MODEL 4
REMARK VINA RESULT: -7.643851410      3.417      7.878
REMARK  6 active torsions:
REMARK  status: ('A' for Active; 'I' for Inactive)
REMARK    1  A    between atoms: C1_2  and  C2_4
REMARK    2  A    between atoms: C2_4  and  C19_25
REMARK    3  A    between atoms: C3_5  and  C4_6
REMARK       I    between atoms: C4_6  and  N1_8
REMARK    4  A    between atoms: C6_10  and  C7_11
REMARK    5  A    between atoms: C7_11  and  C8_12
REMARK    6  A    between atoms: C8_12  and  C9_13
REMARK       I    between atoms: C9_13  and  N2_15
ROOT
HETATM    1  C4  UNL     1      45.578  49.634  33.063  1.00  0.00     0.244 C
HETATM    2  O3  UNL     1      44.716  49.738  33.994  1.00  0.00    -0.268 OA
HETATM    3  N1  UNL     1      46.922  49.608  33.560  1.00  0.00    -0.343 N
HETATM    4  C5  UNL     1      47.318  49.692  34.920  1.00  0.00     0.131 C
HETATM    5  C6  UNL     1      48.778  49.978  34.997  1.00  0.00     0.010 C
HETATM    6  C14 UNL     1      49.262  49.903  33.587  1.00  0.00     0.014 C
HETATM    7  C15 UNL     1      50.318  48.852  33.380  1.00  0.00     0.007 C
HETATM    8  C16 UNL     1      49.898  48.191  32.093  1.00  0.00     0.002 C
HETATM    9  C17 UNL     1      48.385  48.046  32.321  1.00  0.00     0.026 C
HETATM   10  C18 UNL     1      48.082  49.495  32.732  1.00  0.00     0.092 C
ENDROOT
BRANCH   1  11
HETATM   11  C3  UNL     1      45.281  49.549  31.674  1.00  0.00     0.094 C
HETATM   12  C2  UNL     1      44.742  50.371  30.875  1.00  0.00     0.087 C
BRANCH  12  13
HETATM   13  C1  UNL     1      44.233  51.693  31.083  1.00  0.00     0.210 C
HETATM   14  O1  UNL     1      43.336  51.993  31.895  1.00  0.00    -0.644 OA
HETATM   15  O2  UNL     1      44.765  52.782  30.321  1.00  0.00    -0.644 OA
ENDBRANCH  12  13
BRANCH  12  16
HETATM   16  C19 UNL     1      44.597  49.883  29.412  1.00  0.00     0.393 C
HETATM   17  F1  UNL     1      45.212  48.665  29.367  1.00  0.00    -0.209 F
HETATM   18  F2  UNL     1      43.264  49.715  29.112  1.00  0.00    -0.209 F
ENDBRANCH  12  16
ENDBRANCH   1  11
BRANCH   5  19
HETATM   19  C7  UNL     1      49.085  51.331  35.637  1.00  0.00     0.016 C
BRANCH  19  20
HETATM   20  C8  UNL     1      48.035  51.695  36.655  1.00  0.00     0.103 C
BRANCH  20  21
HETATM   21  C9  UNL     1      48.565  51.506  38.048  1.00  0.00     0.219 C
HETATM   22  O4  UNL     1      49.433  52.296  38.498  1.00  0.00    -0.273 OA
HETATM   23  N2  UNL     1      48.122  50.461  38.887  1.00  0.00    -0.352 N
HETATM   24  C10 UNL     1      47.121  49.489  38.474  1.00  0.00     0.126 A
HETATM   25  C13 UNL     1      48.568  50.206  40.217  1.00  0.00     0.126 A
HETATM   26  C11 UNL     1      46.896  48.577  39.637  1.00  0.00     0.021 A
HETATM   27  C12 UNL     1      47.815  49.030  40.746  1.00  0.00     0.021 A
ENDBRANCH  20  21
ENDBRANCH  19  20
ENDBRANCH   5  19
TORSDOF 6
ENDMDL