MODEL 5
REMARK VINA RESULT: -7.329874599      1.382      1.745
REMARK  5 active torsions:
REMARK  status: ('A' for Active; 'I' for Inactive)
REMARK    1  A    between atoms: C1_2  and  C2_3
REMARK       I    between atoms: C1_2  and  N1_12
REMARK    2  A    between atoms: C2_3  and  C3_4
REMARK    3  A    between atoms: N1_12  and  C9_14
REMARK    4  A    between atoms: C9_14  and  C10_15
REMARK       I    between atoms: C10_15  and  N2_17
REMARK    5  A    between atoms: N3_20  and  C13_21
ROOT
HETATM    1  C9  UNL     1      49.404  51.211  35.307  1.00  0.00     0.225 C
ENDROOT
BRANCH   1   2
HETATM    2  N1  UNL     1      48.848  50.656  34.112  1.00  0.00    -0.352 N
HETATM    3  C1  UNL     1      48.004  51.343  33.196  1.00  0.00     0.218 C
HETATM    4  O1  UNL     1      47.727  52.555  33.462  1.00  0.00    -0.274 OA
ATOM      5  H1  UNL     1      49.077  49.685  33.898  1.00  0.00     0.162 HD
BRANCH   3   6
HETATM    6  C2  UNL     1      47.457  50.716  31.983  1.00  0.00     0.107 C
BRANCH   6   7
HETATM    7  C3  UNL     1      46.415  49.667  32.331  1.00  0.00    -0.005 C
HETATM    8  C4  UNL     1      45.787  49.901  33.656  1.00  0.00     0.011 C
HETATM    9  C5  UNL     1      44.292  49.697  33.540  1.00  0.00     0.079 C
HETATM   10  C6  UNL     1      43.793  50.756  32.553  1.00  0.00     0.243 C
HETATM   11  F1  UNL     1      44.314  51.962  32.978  1.00  0.00    -0.206 F
HETATM   12  F2  UNL     1      42.422  50.854  32.565  1.00  0.00    -0.206 F
HETATM   13  C7  UNL     1      44.347  50.488  31.170  1.00  0.00     0.079 C
HETATM   14  C8  UNL     1      45.447  49.462  31.192  1.00  0.00     0.011 C
ENDBRANCH   6   7
ENDBRANCH   3   6
ENDBRANCH   1   2
BRANCH   1  15
HETATM   15  C10 UNL     1      50.573  50.500  35.847  1.00  0.00     0.237 C
HETATM   16  O2  UNL     1      50.386  49.536  36.632  1.00  0.00    -0.272 OA
HETATM   17  N2  UNL     1      51.897  50.875  35.502  1.00  0.00    -0.347 N
HETATM   18  C11 UNL     1      53.045  50.185  36.027  1.00  0.00     0.156 C
HETATM   19  C20 UNL     1      52.164  51.977  34.599  1.00  0.00     0.156 C
HETATM   20  C12 UNL     1      54.275  51.050  36.055  1.00  0.00     0.292 C
HETATM   21  N3  UNL     1      54.553  51.717  34.802  1.00  0.00     0.096 N
HETATM   22  C19 UNL     1      53.469  51.605  33.882  1.00  0.00     0.292 C
BRANCH  21  23
HETATM   23  C13 UNL     1      55.801  51.236  34.305  1.00  0.00     0.223 C
HETATM   24  C14 UNL     1      56.580  52.269  33.529  1.00  0.00     0.036 C
HETATM   25  C15 UNL     1      56.957  53.398  34.434  1.00  0.00     0.002 C
HETATM   26  C16 UNL     1      58.084  52.881  35.339  1.00  0.00     0.000 C
HETATM   27  C17 UNL     1      58.052  51.390  35.410  1.00  0.00     0.002 C
HETATM   28  C18 UNL     1      56.651  50.820  35.481  1.00  0.00     0.036 C
ENDBRANCH  21  23
ENDBRANCH   1  15
TORSDOF 5
ENDMDL