MODEL 4
REMARK VINA RESULT: -8.452041999      1.442      1.807
REMARK  5 active torsions:
REMARK  status: ('A' for Active; 'I' for Inactive)
REMARK    1  A    between atoms: C9_9  and  C10_10
REMARK       I    between atoms: C10_10  and  N1_12
REMARK    2  A    between atoms: N1_12  and  C11_14
REMARK    3  A    between atoms: C11_14  and  C12_15
REMARK    4  A    between atoms: C12_15  and  C13_16
REMARK    5  A    between atoms: N2_21  and  C16_22
ROOT
HETATM    1  C1  UNL     1      45.716  51.495  29.184  1.00  0.00     0.015 C
HETATM    2  C2  UNL     1      45.396  51.076  30.394  1.00  0.00    -0.084 C
HETATM    3  C3  UNL     1      45.051  49.665  30.747  1.00  0.00     0.039 C
HETATM    4  C4  UNL     1      44.913  49.851  32.226  1.00  0.00     0.004 C
HETATM    5  C5  UNL     1      44.021  51.102  32.245  1.00  0.00     0.016 C
HETATM    6  C6  UNL     1      45.267  51.762  31.684  1.00  0.00     0.028 C
HETATM    7  C7  UNL     1      46.027  50.837  32.623  1.00  0.00     0.004 C
HETATM    8  C8  UNL     1      45.893  51.128  34.061  1.00  0.00     0.032 C
HETATM    9  C9  UNL     1      47.018  50.416  34.841  1.00  0.00     0.097 C
HETATM   10  C15 UNL     1      48.280  50.984  34.358  1.00  0.00     0.136 C
HETATM   11  N2  UNL     1      48.491  50.602  32.994  1.00  0.00    -0.387 N
HETATM   12  C21 UNL     1      47.382  50.523  32.128  1.00  0.00     0.069 C
ENDROOT
BRANCH   9  13
HETATM   13  C10 UNL     1      46.698  50.407  36.262  1.00  0.00     0.223 C
HETATM   14  O1  UNL     1      45.931  51.319  36.714  1.00  0.00    -0.273 OA
HETATM   15  N1  UNL     1      47.223  49.414  37.179  1.00  0.00    -0.360 N
ATOM     16  H1  UNL     1      47.819  48.657  36.844  1.00  0.00     0.162 HD
BRANCH  15  17
HETATM   17  C11 UNL     1      46.885  49.522  38.562  1.00  0.00     0.128 C
BRANCH  17  18
HETATM   18  C12 UNL     1      47.286  48.405  39.442  1.00  0.00     0.098 C
BRANCH  18  19
HETATM   19  C13 UNL     1      47.513  48.786  40.878  1.00  0.00     0.241 C
HETATM   20  C14 UNL     1      48.452  49.984  40.958  1.00  0.00     0.090 C
HETATM   21  F1  UNL     1      46.342  49.060  41.500  1.00  0.00    -0.207 F
HETATM   22  F2  UNL     1      48.143  47.694  41.521  1.00  0.00    -0.207 F
ENDBRANCH  18  19
ENDBRANCH  17  18
ENDBRANCH  15  17
ENDBRANCH   9  13
BRANCH  11  23
HETATM   23  C16 UNL     1      49.549  49.684  32.742  1.00  0.00     0.087 C
HETATM   24  C17 UNL     1      50.618  49.595  33.787  1.00  0.00     0.051 C
HETATM   25  C18 UNL     1      51.531  48.436  33.470  1.00  0.00     0.169 C
HETATM   26  O2  UNL     1      51.263  47.898  32.216  1.00  0.00    -0.391 OA
HETATM   27  C19 UNL     1      50.031  47.251  32.300  1.00  0.00     0.169 C
HETATM   28  C20 UNL     1      48.976  48.295  32.569  1.00  0.00     0.051 C
ENDBRANCH  11  23
TORSDOF 5
ENDMDL