MODEL 3
REMARK VINA RESULT: -7.919567320      1.646      1.991
REMARK  5 active torsions:
REMARK  status: ('A' for Active; 'I' for Inactive)
REMARK    1  A    between atoms: C3_3  and  N1_4
REMARK       I    between atoms: N1_4  and  C4_6
REMARK    2  A    between atoms: C4_6  and  C5_8
REMARK    3  A    between atoms: N2_11  and  C8_12
REMARK    4  A    between atoms: C9_13  and  C10_14
REMARK    5  A    between atoms: C18_23  and  C19_24
ROOT
HETATM    1  C1  UNL     1      46.928  49.658  38.202  1.00  0.00     0.015 C
HETATM    2  C2  UNL     1      47.230  49.919  37.067  1.00  0.00    -0.086 C
HETATM    3  C3  UNL     1      47.603  50.208  35.688  1.00  0.00     0.096 C
HETATM    4  C16 UNL     1      47.071  49.135  34.778  1.00  0.00     0.045 C
HETATM    5  C17 UNL     1      46.698  49.649  33.421  1.00  0.00     0.013 C
HETATM    6  C18 UNL     1      45.693  50.755  33.443  1.00  0.00     0.051 C
HETATM    7  C20 UNL     1      45.637  51.359  34.808  1.00  0.00     0.013 C
HETATM    8  C21 UNL     1      47.072  51.579  35.299  1.00  0.00     0.045 C
ENDROOT
BRANCH   3   9
HETATM    9  N1  UNL     1      49.061  50.185  35.603  1.00  0.00    -0.341 N
HETATM   10  C4  UNL     1      49.843  51.259  36.099  1.00  0.00     0.225 C
HETATM   11  O1  UNL     1      49.293  52.258  36.622  1.00  0.00    -0.273 OA
ATOM     12  H1  UNL     1      49.525  49.382  35.178  1.00  0.00     0.164 HD
BRANCH  10  13
HETATM   13  C5  UNL     1      51.295  51.185  35.995  1.00  0.00     0.101 C
HETATM   14  C6  UNL     1      51.923  52.006  34.920  1.00  0.00     0.060 C
HETATM   15  C7  UNL     1      53.277  51.379  34.715  1.00  0.00     0.064 C
HETATM   16  N2  UNL     1      53.193  50.070  35.229  1.00  0.00    -0.370 N
HETATM   17  C15 UNL     1      51.799  49.787  35.577  1.00  0.00     0.141 C
BRANCH  16  18
HETATM   18  C8  UNL     1      54.111  49.583  36.146  1.00  0.00     0.086 C
HETATM   19  C9  UNL     1      55.380  49.001  35.808  1.00  0.00    -0.005 C
BRANCH  19  20
HETATM   20  C10 UNL     1      56.501  49.549  35.074  1.00  0.00     0.013 C
HETATM   21  C11 UNL     1      56.837  50.976  35.061  1.00  0.00     0.035 C
HETATM   22  C12 UNL     1      58.314  51.221  35.390  1.00  0.00     0.168 C
HETATM   23  O2  UNL     1      59.136  50.595  34.475  1.00  0.00    -0.391 OA
HETATM   24  C13 UNL     1      58.790  49.255  34.291  1.00  0.00     0.168 C
HETATM   25  C14 UNL     1      57.819  48.793  35.356  1.00  0.00     0.035 C
ENDBRANCH  19  20
ENDBRANCH  16  18
ENDBRANCH  10  13
ENDBRANCH   3   9
BRANCH   6  26
HETATM   26  C19 UNL     1      44.305  50.280  33.078  1.00  0.00     0.357 C
HETATM   27  F1  UNL     1      44.161  49.998  31.748  1.00  0.00    -0.214 F
HETATM   28  F2  UNL     1      43.993  49.193  33.850  1.00  0.00    -0.214 F
ENDBRANCH   6  26
TORSDOF 5
ENDMDL