MODEL 5
REMARK VINA RESULT: -9.413310502      4.080      8.943
REMARK  4 active torsions:
REMARK  status: ('A' for Active; 'I' for Inactive)
REMARK    1  A    between atoms: C3_9  and  S2_10
REMARK    2  A    between atoms: S2_10  and  C4_11
REMARK    3  A    between atoms: C8_15  and  N4_16
REMARK       I    between atoms: N4_16  and  C9_18
REMARK    4  A    between atoms: C9_18  and  C10_20
ROOT
HETATM    1  N1  UNL     1      19.471  20.506  59.432  1.00  0.00    -0.190 NA
HETATM    2  C1  UNL     1      20.321  19.791  59.789  1.00  0.00     0.121 C
HETATM    3  C2  UNL     1      21.403  18.897  60.213  1.00  0.00     0.154 A
HETATM    4  N2  UNL     1      22.443  18.680  59.493  1.00  0.00    -0.283 N
ATOM      5  H2  UNL     1      22.525  19.147  58.590  1.00  0.00     0.188 HD
HETATM    6  N3  UNL     1      23.388  17.889  59.879  1.00  0.00    -0.268 N
ATOM      7  H3  UNL     1      24.253  17.643  59.396  1.00  0.00     0.195 HD
HETATM    8  S1  UNL     1      22.836  17.370  61.374  1.00  0.00     0.012 SA
HETATM    9  C3  UNL     1      21.358  18.220  61.444  1.00  0.00     0.103 A
ENDROOT
BRANCH   9  10
HETATM   10  S2  UNL     1      20.043  18.337  62.625  1.00  0.00    -0.079 SA
BRANCH  10  11
HETATM   11  C4  UNL     1      19.338  16.802  63.052  1.00  0.00     0.008 A
HETATM   12  C5  UNL     1      19.982  15.598  63.146  1.00  0.00     0.019 A
HETATM   13  C6  UNL     1      19.291  14.435  63.496  1.00  0.00     0.004 A
HETATM   14  C7  UNL     1      17.938  14.465  63.759  1.00  0.00     0.029 A
HETATM   15  C8  UNL     1      17.269  15.642  63.676  1.00  0.00     0.035 A
HETATM   16  C16 UNL     1      17.980  16.783  63.325  1.00  0.00     0.048 A
BRANCH  15  17
HETATM   17  N4  UNL     1      15.874  15.762  63.903  1.00  0.00    -0.327 N
HETATM   18  C9  UNL     1      15.207  15.419  65.076  1.00  0.00     0.226 C
HETATM   19  O1  UNL     1      15.741  14.946  66.102  1.00  0.00    -0.273 OA
ATOM     20  H4  UNL     1      15.309  16.132  63.139  1.00  0.00     0.169 HD
BRANCH  18  21
HETATM   21  C10 UNL     1      13.697  15.646  65.088  1.00  0.00     0.078 C
HETATM   22  C11 UNL     1      13.130  14.550  65.939  1.00  0.00     0.014 C
HETATM   23  C12 UNL     1      11.618  14.565  65.872  1.00  0.00     0.001 C
HETATM   24  C13 UNL     1      11.215  14.392  64.417  1.00  0.00     0.000 C
HETATM   25  C14 UNL     1      11.683  15.631  63.688  1.00  0.00     0.001 C
HETATM   26  C15 UNL     1      13.191  15.659  63.682  1.00  0.00     0.014 C
ENDBRANCH  18  21
ENDBRANCH  15  17
ENDBRANCH  10  11
ENDBRANCH   9  10
TORSDOF 4
ENDMDL