MODEL 3
REMARK VINA RESULT: -6.834980507      2.126      6.773
REMARK  6 active torsions:
REMARK  status: ('A' for Active; 'I' for Inactive)
REMARK    1  A    between atoms: C8_8  and  S1_9
REMARK    2  A    between atoms: S1_9  and  C9_10
REMARK    3  A    between atoms: C9_10  and  C10_11
REMARK    4  A    between atoms: C10_11  and  C11_16
REMARK    5  A    between atoms: N1_12  and  O1_14
REMARK    6  A    between atoms: C16_21  and  N2_22
ROOT
HETATM    1  C10 UNL     1      21.745  18.563  60.444  1.00  0.00     0.053 C
HETATM    2  N1  UNL     1      21.520  19.016  59.289  1.00  0.00    -0.272 N
ATOM      3  H1  UNL     1      22.284  18.930  58.618  1.00  0.00     0.194 HD
ENDROOT
BRANCH   1   4
HETATM    4  C9  UNL     1      20.709  18.633  61.504  1.00  0.00     0.136 C
BRANCH   4   5
HETATM    5  S1  UNL     1      21.084  17.594  62.924  1.00  0.00    -0.131 SA
BRANCH   5   6
HETATM    6  C8  UNL     1      19.903  16.221  62.962  1.00  0.00     0.184 C
HETATM    7  C7  UNL     1      18.695  16.688  63.741  1.00  0.00     0.051 C
HETATM    8  C4  UNL     1      17.704  15.609  64.015  1.00  0.00    -0.042 C
HETATM    9  C3  UNL     1      18.277  14.302  63.527  1.00  0.00     0.040 C
HETATM   10  C5  UNL     1      16.414  15.849  63.267  1.00  0.00     0.015 C
HETATM   11  C6  UNL     1      17.385  15.482  65.486  1.00  0.00     0.015 C
HETATM   12  C2  UNL     1      19.709  14.114  63.908  1.00  0.00     0.119 C
HETATM   13  C1  UNL     1      20.163  12.768  63.381  1.00  0.00     0.039 C
HETATM   14  O3  UNL     1      20.539  15.140  63.547  1.00  0.00    -0.371 OA
ENDBRANCH   5   6
ENDBRANCH   4   5
ENDBRANCH   1   4
BRANCH   1  15
HETATM   15  C11 UNL     1      23.060  17.948  60.777  1.00  0.00     0.018 A
HETATM   16  C12 UNL     1      23.206  16.591  60.581  1.00  0.00     0.016 A
HETATM   17  C13 UNL     1      24.398  15.936  60.803  1.00  0.00     0.001 A
HETATM   18  C14 UNL     1      25.479  16.677  61.237  1.00  0.00     0.002 A
HETATM   19  C15 UNL     1      25.325  18.032  61.431  1.00  0.00     0.032 A
HETATM   20  C16 UNL     1      24.105  18.695  61.203  1.00  0.00     0.069 A
BRANCH  20  21
HETATM   21  N2  UNL     1      24.114  20.078  61.512  1.00  0.00    -0.256 N
HETATM   22  C17 UNL     1      24.711  21.311  61.055  1.00  0.00     0.185 C
HETATM   23  C18 UNL     1      23.383  21.903  61.557  1.00  0.00     0.223 C
HETATM   24  O2  UNL     1      23.465  20.837  62.467  1.00  0.00    -0.276 OA
ENDBRANCH  20  21
ENDBRANCH   1  15
BRANCH   2  25
HETATM   25  O1  UNL     1      20.415  19.590  58.839  1.00  0.00    -0.290 OA
ATOM     26  H1  UNL     1      19.729  19.202  58.309  1.00  0.00     0.244 HD
ENDBRANCH   2  25
TORSDOF 6
ENDMDL