MODEL 3
REMARK VINA RESULT: -7.145551107      1.602      1.811
REMARK  4 active torsions:
REMARK  status: ('A' for Active; 'I' for Inactive)
REMARK    1  A    between atoms: C4_7  and  S2_8
REMARK    2  A    between atoms: S2_8  and  C5_9
REMARK    3  A    between atoms: C5_9  and  C7_11
REMARK       I    between atoms: C7_11  and  N2_13
REMARK    4  A    between atoms: N2_13  and  C8_15
ROOT
HETATM    1  S2  UNL     1      16.439  15.537  63.681  1.00  0.00    -0.091 SA
ENDROOT
BRANCH   1   2
HETATM    2  C4  UNL     1      18.165  15.019  63.569  1.00  0.00     0.115 A
HETATM    3  N1  UNL     1      19.239  15.742  63.363  1.00  0.00    -0.338 N
HETATM    4  C3  UNL     1      20.424  15.172  63.316  1.00  0.00     0.096 A
ATOM      5  H1  UNL     1      19.156  16.752  63.240  1.00  0.00     0.167 HD
HETATM    6  S1  UNL     1      22.095  15.884  63.050  1.00  0.00    -0.095 SA
HETATM    7  C13 UNL     1      20.484  13.835  63.485  1.00  0.00     0.078 A
HETATM    8  C2  UNL     1      23.203  14.600  63.673  1.00  0.00     0.117 C
HETATM    9  C1  UNL     1      24.425  14.420  62.818  1.00  0.00     0.033 C
HETATM   10  S4  UNL     1      22.138  13.139  63.408  1.00  0.00    -0.104 SA
HETATM   11  S3  UNL     1      18.804  13.449  63.710  1.00  0.00    -0.055 SA
ENDBRANCH   1   2
BRANCH   1  12
HETATM   12  C5  UNL     1      15.944  15.660  65.428  1.00  0.00     0.142 C
HETATM   13  C6  UNL     1      17.053  15.065  66.252  1.00  0.00     0.031 C
BRANCH  12  14
HETATM   14  C7  UNL     1      14.646  14.965  65.600  1.00  0.00     0.231 C
HETATM   15  O1  UNL     1      14.474  14.115  66.509  1.00  0.00    -0.272 OA
HETATM   16  N2  UNL     1      13.556  15.239  64.737  1.00  0.00    -0.355 N
ATOM     17  H2  UNL     1      13.672  15.924  63.991  1.00  0.00     0.162 HD
BRANCH  16  18
HETATM   18  C8  UNL     1      12.303  14.579  64.890  1.00  0.00     0.084 C
HETATM   19  C9  UNL     1      11.282  15.370  65.671  1.00  0.00     0.025 C
HETATM   20  C10 UNL     1      10.022  14.534  65.422  1.00  0.00     0.002 C
HETATM   21  C11 UNL     1      10.166  14.060  63.992  1.00  0.00     0.002 C
HETATM   22  C12 UNL     1      11.579  14.393  63.561  1.00  0.00     0.025 C
ENDBRANCH  16  18
ENDBRANCH  12  14
ENDBRANCH   1  12
TORSDOF 4
ENDMDL