MODEL 3
REMARK VINA RESULT: -6.742014271      2.993      5.732
REMARK  4 active torsions:
REMARK  status: ('A' for Active; 'I' for Inactive)
REMARK    1  A    between atoms: C2_6  and  C3_7
REMARK    2  A    between atoms: C3_7  and  C4_8
REMARK    3  A    between atoms: N3_13  and  C7_14
REMARK    4  A    between atoms: N5_25  and  C16_26
ROOT
HETATM    1  C3  UNL     1      22.091  17.590  62.897  1.00  0.00     0.054 C
HETATM    2  C13 UNL     1      22.575  18.250  64.113  1.00  0.00     0.023 C
HETATM    3  C14 UNL     1      21.606  19.422  63.879  1.00  0.00     0.003 C
HETATM    4  C15 UNL     1      21.580  18.974  62.434  1.00  0.00     0.023 C
ENDROOT
BRANCH   1   5
HETATM    5  C2  UNL     1      20.866  16.736  63.111  1.00  0.00     0.084 A
HETATM    6  S1  UNL     1      19.207  17.168  62.989  1.00  0.00    -0.037 SA
HETATM    7  C1  UNL     1      18.540  15.642  63.371  1.00  0.00     0.161 A
HETATM    8  N1  UNL     1      17.290  15.248  63.465  1.00  0.00    -0.378 N
HETATM    9  N5  UNL     1      19.640  14.904  63.566  1.00  0.00    -0.266 N
ATOM     10  H12 UNL     1      16.452  15.811  63.316  1.00  0.00     0.158 HD
ATOM     11  H11 UNL     1      16.892  14.338  63.693  1.00  0.00     0.158 HD
HETATM   12  N4  UNL     1      20.772  15.466  63.432  1.00  0.00    -0.292 N
ATOM     13  H4  UNL     1      21.622  14.921  63.577  1.00  0.00     0.187 HD
BRANCH   9  14
HETATM   14  C16 UNL     1      19.507  13.465  63.923  1.00  0.00     0.110 A
HETATM   15  C17 UNL     1      20.635  12.565  63.478  1.00  0.00     0.029 A
HETATM   16  C18 UNL     1      19.357  12.496  62.731  1.00  0.00     0.029 A
ENDBRANCH   9  14
ENDBRANCH   1   5
BRANCH   1  17
HETATM   17  C4  UNL     1      22.967  17.072  61.873  1.00  0.00     0.045 A
HETATM   18  C5  UNL     1      22.869  17.473  60.532  1.00  0.00     0.046 A
HETATM   19  C6  UNL     1      23.818  16.808  59.822  1.00  0.00     0.109 A
HETATM   20  N2  UNL     1      24.484  16.025  60.670  1.00  0.00    -0.309 N
HETATM   21  N3  UNL     1      23.966  16.191  61.897  1.00  0.00    -0.291 N
ATOM     22  H2  UNL     1      25.257  15.406  60.428  1.00  0.00     0.186 HD
BRANCH  21  23
HETATM   23  C7  UNL     1      24.432  15.505  63.070  1.00  0.00     0.108 C
HETATM   24  C8  UNL     1      25.952  15.552  63.196  1.00  0.00     0.027 C
HETATM   25  C9  UNL     1      26.657  14.589  62.308  1.00  0.00     0.002 C
HETATM   26  C10 UNL     1      26.462  13.186  62.879  1.00  0.00     0.000 C
HETATM   27  C11 UNL     1      25.120  13.178  63.567  1.00  0.00     0.002 C
HETATM   28  C12 UNL     1      24.109  14.017  62.838  1.00  0.00     0.027 C
ENDBRANCH  21  23
ENDBRANCH   1  17
TORSDOF 4
ENDMDL