MODEL 4
REMARK VINA RESULT: -7.199291745      2.420      3.857
REMARK  4 active torsions:
REMARK  status: ('A' for Active; 'I' for Inactive)
REMARK       I    between atoms: C2_2  and  N1_4
REMARK    1  A    between atoms: N1_4  and  N2_6
REMARK    2  A    between atoms: C3_7  and  C4_8
REMARK    3  A    between atoms: C8_13  and  C9_14
REMARK    4  A    between atoms: C9_14  and  C10_16
ROOT
HETATM    1  N2  UNL     1      23.046  18.167  60.925  1.00  0.00    -0.232 N
HETATM    2  C3  UNL     1      23.156  17.086  61.678  1.00  0.00     0.113 A
HETATM    3  C8  UNL     1      22.076  16.664  62.375  1.00  0.00     0.085 A
HETATM    4  S1  UNL     1      20.866  17.828  61.917  1.00  0.00    -0.053 SA
HETATM    5  C16 UNL     1      21.800  18.764  60.901  1.00  0.00     0.165 A
HETATM    6  S2  UNL     1      21.392  20.124  60.021  1.00  0.00    -0.050 SA
ENDROOT
BRANCH   3   7
HETATM    7  C9  UNL     1      21.876  15.659  63.447  1.00  0.00     0.173 C
HETATM    8  O3  UNL     1      22.579  15.662  64.467  1.00  0.00    -0.291 OA
BRANCH   7   9
HETATM    9  C10 UNL     1      20.823  14.630  63.310  1.00  0.00     0.061 C
HETATM   10  C11 UNL     1      19.548  14.953  64.035  1.00  0.00     0.012 C
HETATM   11  C12 UNL     1      18.473  14.065  63.445  1.00  0.00     0.001 C
HETATM   12  C13 UNL     1      18.818  12.624  63.388  1.00  0.00     0.000 C
HETATM   13  C14 UNL     1      20.234  12.313  62.965  1.00  0.00     0.001 C
HETATM   14  C15 UNL     1      21.235  13.237  63.635  1.00  0.00     0.012 C
ENDBRANCH   7   9
ENDBRANCH   3   7
BRANCH   2  15
HETATM   15  C4  UNL     1      24.302  16.106  61.443  1.00  0.00     0.105 A
HETATM   16  C5  UNL     1      24.131  14.765  61.073  1.00  0.00     0.041 A
HETATM   17  C6  UNL     1      25.384  14.219  60.941  1.00  0.00     0.027 A
HETATM   18  C7  UNL     1      26.267  15.227  61.225  1.00  0.00     0.142 A
HETATM   19  O2  UNL     1      25.556  16.260  61.499  1.00  0.00    -0.320 OA
ENDBRANCH   2  15
BRANCH   1  20
HETATM   20  N1  UNL     1      24.076  18.973  60.351  1.00  0.00    -0.262 N
HETATM   21  C2  UNL     1      25.016  19.769  60.997  1.00  0.00     0.232 C
HETATM   22  C1  UNL     1      26.068  20.500  60.151  1.00  0.00     0.119 C
HETATM   23  O1  UNL     1      25.137  19.988  62.233  1.00  0.00    -0.272 OA
ATOM     24  H1  UNL     1      24.128  18.965  59.332  1.00  0.00     0.190 HD
ENDBRANCH   1  20
TORSDOF 4
ENDMDL