MODEL 4
REMARK VINA RESULT: -5.681258632      2.536      4.470
REMARK  5 active torsions:
REMARK  status: ('A' for Active; 'I' for Inactive)
REMARK    1  A    between atoms: C2_2  and  S1_3
REMARK    2  A    between atoms: S1_3  and  C3_4
REMARK    3  A    between atoms: N2_10  and  C6_11
REMARK    4  A    between atoms: C10_18  and  C11_19
REMARK    5  A    between atoms: C11_19  and  C14_22
ROOT
HETATM    1  C3  UNL     1      25.749  14.957  61.710  1.00  0.00     0.130 C
HETATM    2  N1  UNL     1      25.740  15.798  62.649  1.00  0.00    -0.252 N
ATOM      3  H1  UNL     1      26.284  15.615  63.493  1.00  0.00     0.195 HD
HETATM    4  O1  UNL     1      25.041  16.906  62.557  1.00  0.00    -0.254 OA
HETATM    5  C4  UNL     1      24.439  17.233  61.387  1.00  0.00     0.178 C
HETATM    6  C5  UNL     1      25.269  18.215  60.532  1.00  0.00     0.325 C
HETATM    7  N2  UNL     1      25.529  19.422  61.246  1.00  0.00     0.097 N
HETATM    8  C8  UNL     1      24.215  19.933  61.666  1.00  0.00     0.324 C
HETATM    9  C9  UNL     1      23.124  19.156  61.021  1.00  0.00     0.017 C
HETATM   10  N3  UNL     1      22.340  19.762  60.227  1.00  0.00    -0.404 N
ATOM     11  H31 UNL     1      21.591  19.229  59.785  1.00  0.00     0.155 HD
ATOM     12  H32 UNL     1      22.398  20.756  60.006  1.00  0.00     0.155 HD
HETATM   13  C10 UNL     1      23.038  17.689  61.347  1.00  0.00     0.090 C
HETATM   14  S2  UNL     1      24.694  15.656  60.457  1.00  0.00    -0.060 SA
ENDROOT
BRANCH  13  15
HETATM   15  C11 UNL     1      22.121  17.465  62.468  1.00  0.00    -0.032 C
HETATM   16  C12 UNL     1      22.475  18.107  63.789  1.00  0.00     0.016 C
HETATM   17  C13 UNL     1      20.805  18.177  62.078  1.00  0.00     0.016 C
BRANCH  15  18
HETATM   18  C14 UNL     1      21.708  16.031  62.689  1.00  0.00    -0.014 C
HETATM   19  C15 UNL     1      22.284  15.366  63.892  1.00  0.00     0.010 C
HETATM   20  C16 UNL     1      20.185  15.882  62.836  1.00  0.00     0.010 C
ENDBRANCH  15  18
ENDBRANCH  13  15
BRANCH   7  21
HETATM   21  C6  UNL     1      26.145  20.451  60.479  1.00  0.00     0.268 C
HETATM   22  C7  UNL     1      25.653  21.836  60.745  1.00  0.00     0.037 C
ENDBRANCH   7  21
BRANCH   1  23
HETATM   23  S1  UNL     1      26.604  13.420  61.619  1.00  0.00    -0.104 SA
BRANCH  23  24
HETATM   24  C2  UNL     1      27.567  13.183  63.153  1.00  0.00     0.077 C
HETATM   25  C1  UNL     1      27.236  11.858  63.799  1.00  0.00     0.016 C
ENDBRANCH  23  24
ENDBRANCH   1  23
TORSDOF 5
ENDMDL