MODEL 4
REMARK VINA RESULT: -5.624512047      3.038      6.261
REMARK  6 active torsions:
REMARK  status: ('A' for Active; 'I' for Inactive)
REMARK    1  A    between atoms: C2_2  and  N1_4
REMARK    2  A    between atoms: N1_4  and  C5_6
REMARK    3  A    between atoms: C5_6  and  O1_7
REMARK    4  A    between atoms: C5_6  and  C6_9
REMARK    5  A    between atoms: C9_16  and  S1_17
REMARK    6  A    between atoms: S1_17  and  C10_18
ROOT
HETATM    1  C6  UNL     1      22.977  19.106  60.769  1.00  0.00     0.102 A
HETATM    2  N2  UNL     1      23.475  20.341  60.658  1.00  0.00    -0.355 N
ATOM      3  H2  UNL     1      22.877  21.079  60.288  1.00  0.00     0.166 HD
HETATM    4  C7  UNL     1      24.731  20.646  61.015  1.00  0.00     0.043 A
HETATM    5  C8  UNL     1      25.512  19.606  61.514  1.00  0.00     0.093 A
HETATM    6  N3  UNL     1      25.013  18.363  61.626  1.00  0.00    -0.342 N
ATOM      7  H3  UNL     1      25.602  17.616  61.995  1.00  0.00     0.167 HD
HETATM    8  C9  UNL     1      23.765  18.096  61.264  1.00  0.00     0.098 A
HETATM    9  S2  UNL     1      27.198  19.927  62.013  1.00  0.00    -0.110 SA
HETATM   10  C14 UNL     1      27.346  21.691  62.336  1.00  0.00     0.081 C
HETATM   11  C15 UNL     1      26.050  22.416  62.154  1.00  0.00     0.017 C
HETATM   12  C16 UNL     1      25.301  22.016  60.897  1.00  0.00     0.061 C
ENDROOT
BRANCH   1  13
HETATM   13  C5  UNL     1      21.606  18.826  60.367  1.00  0.00     0.410 C
BRANCH  13  14
HETATM   14  N1  UNL     1      20.615  19.683  60.940  1.00  0.00     0.122 N
HETATM   15  C4  UNL     1      19.680  18.999  61.801  1.00  0.00     0.314 C
BRANCH  14  16
HETATM   16  C2  UNL     1      19.846  20.405  59.959  1.00  0.00     0.218 C
HETATM   17  C1  UNL     1      18.380  20.187  59.990  1.00  0.00     0.042 C
HETATM   18  C3  UNL     1      20.159  21.888  59.975  1.00  0.00     0.042 C
ENDBRANCH  14  16
ENDBRANCH  13  14
BRANCH  13  19
HETATM   19  O1  UNL     1      21.524  18.918  58.980  1.00  0.00    -0.363 OA
ATOM     20  H1  UNL     1      20.864  19.565  58.759  1.00  0.00     0.212 HD
ENDBRANCH  13  19
ENDBRANCH   1  13
BRANCH   8  21
HETATM   21  S1  UNL     1      23.067  16.431  61.406  1.00  0.00    -0.101 SA
BRANCH  21  22
HETATM   22  C10 UNL     1      22.328  16.195  63.026  1.00  0.00     0.003 C
HETATM   23  C11 UNL     1      20.864  15.857  62.933  1.00  0.00     0.026 C
HETATM   24  C12 UNL     1      23.010  14.970  63.646  1.00  0.00     0.026 C
HETATM   25  C13 UNL     1      22.533  17.333  63.970  1.00  0.00     0.026 C
ENDBRANCH  21  22
ENDBRANCH   8  21
TORSDOF 6
ENDMDL