MODEL 4
REMARK VINA RESULT: -8.077721778      5.080      7.572
REMARK  4 active torsions:
REMARK  status: ('A' for Active; 'I' for Inactive)
REMARK    1  A    between atoms: N1_2  and  C1_4
REMARK    2  A    between atoms: C4_7  and  C5_8
REMARK    3  A    between atoms: N2_9  and  N3_11
REMARK    4  A    between atoms: C8_15  and  C9_16
ROOT
HETATM    1  N3  UNL     1      14.534  16.320  64.974  1.00  0.00    -0.279 N
ATOM      2  H3  UNL     1      14.640  17.094  65.628  1.00  0.00     0.189 HD
HETATM    3  C6  UNL     1      13.334  15.913  64.644  1.00  0.00     0.186 A
HETATM    4  C7  UNL     1      13.083  14.876  63.771  1.00  0.00     0.087 A
HETATM    5  C8  UNL     1      11.711  14.768  63.694  1.00  0.00     0.041 A
HETATM    6  N4  UNL     1      11.215  15.732  64.516  1.00  0.00    -0.263 N
ATOM      7  H4  UNL     1      10.224  15.910  64.679  1.00  0.00     0.194 HD
HETATM    8  O3  UNL     1      12.192  16.391  65.062  1.00  0.00    -0.218 OA
ENDROOT
BRANCH   1   9
HETATM    9  N2  UNL     1      15.666  15.708  64.443  1.00  0.00    -0.309 N
HETATM   10  C5  UNL     1      16.750  15.712  65.129  1.00  0.00     0.126 C
ATOM     11  H2  UNL     1      15.633  15.264  63.525  1.00  0.00     0.186 HD
BRANCH  10  12
HETATM   12  C4  UNL     1      17.918  15.052  64.525  1.00  0.00     0.024 A
HETATM   13  C3  UNL     1      18.867  15.631  63.724  1.00  0.00     0.023 A
HETATM   14  C2  UNL     1      19.854  14.846  63.276  1.00  0.00     0.045 A
HETATM   15  C1  UNL     1      19.834  13.530  63.656  1.00  0.00     0.144 A
HETATM   16  S1  UNL     1      18.436  13.434  64.626  1.00  0.00    -0.065 SA
BRANCH  15  17
HETATM   17  N1  UNL     1      20.786  12.501  63.300  1.00  0.00    -0.108 N
HETATM   18  O1  UNL     1      20.444  11.601  62.542  1.00  0.00    -0.531 OA
HETATM   19  O2  UNL     1      22.038  12.565  63.819  1.00  0.00    -0.531 OA
ENDBRANCH  15  17
ENDBRANCH  10  12
ENDBRANCH   1   9
BRANCH   5  20
HETATM   20  C9  UNL     1      10.925  13.805  62.889  1.00  0.00     0.037 C
HETATM   21  C10 UNL     1      10.829  12.522  63.658  1.00  0.00     0.011 C
HETATM   22  C11 UNL     1       9.385  12.122  63.816  1.00  0.00     0.001 C
HETATM   23  C12 UNL     1       9.147  10.781  63.173  1.00  0.00     0.000 C
HETATM   24  C13 UNL     1       9.753  10.651  61.815  1.00  0.00     0.000 C
HETATM   25  C14 UNL     1       9.807  11.934  61.040  1.00  0.00     0.000 C
HETATM   26  C15 UNL     1      11.229  12.363  60.854  1.00  0.00     0.001 C
HETATM   27  C16 UNL     1      11.584  13.637  61.543  1.00  0.00     0.011 C
ENDBRANCH   5  20
TORSDOF 4
ENDMDL