MODEL 3
REMARK VINA RESULT: -7.029053768      2.668      6.726
REMARK  4 active torsions:
REMARK  status: ('A' for Active; 'I' for Inactive)
REMARK    1  A    between atoms: N1_2  and  C1_4
REMARK    2  A    between atoms: C6_9  and  S1_10
REMARK    3  A    between atoms: S1_10  and  N2_11
REMARK       I    between atoms: C7_13  and  N3_14
REMARK       I    between atoms: C7_13  and  N4_20
REMARK    4  A    between atoms: N3_14  and  C8_16
ROOT
HETATM    1  N2  UNL     1      23.528  17.757  63.368  1.00  0.00    -0.160 N
ATOM      2  H2  UNL     1      24.426  18.052  63.752  1.00  0.00     0.193 HD
HETATM    3  C7  UNL     1      23.451  16.623  62.781  1.00  0.00     0.687 C
HETATM    4  N3  UNL     1      22.230  16.172  62.233  1.00  0.00    -0.181 N
ATOM      5  H3  UNL     1      22.049  16.289  61.236  1.00  0.00     0.185 HD
HETATM    6  N4  UNL     1      24.597  15.805  62.674  1.00  0.00    -0.217 N
HETATM    7  C10 UNL     1      25.807  16.355  62.138  1.00  0.00     0.141 C
HETATM    8  C11 UNL     1      26.440  15.468  61.094  1.00  0.00     0.020 C
HETATM    9  C12 UNL     1      26.253  14.008  61.364  1.00  0.00     0.003 C
HETATM   10  C13 UNL     1      25.761  13.709  62.754  1.00  0.00     0.020 C
HETATM   11  C14 UNL     1      24.502  14.436  63.114  1.00  0.00     0.141 C
ENDROOT
BRANCH   1  12
HETATM   12  S1  UNL     1      22.134  18.831  63.535  1.00  0.00     0.004 SA
BRANCH  12  13
HETATM   13  C6  UNL     1      21.651  19.552  61.992  1.00  0.00     0.055 A
HETATM   14  C1  UNL     1      22.507  20.445  61.383  1.00  0.00     0.121 A
HETATM   15  C2  UNL     1      22.105  20.992  60.183  1.00  0.00     0.037 A
HETATM   16  C3  UNL     1      20.891  20.652  59.618  1.00  0.00     0.003 A
HETATM   17  C4  UNL     1      20.040  19.766  60.222  1.00  0.00     0.002 A
HETATM   18  C5  UNL     1      20.440  19.217  61.423  1.00  0.00     0.023 A
BRANCH  14  19
HETATM   19  N1  UNL     1      23.747  20.770  61.993  1.00  0.00    -0.114 N
HETATM   20  O1  UNL     1      23.842  21.827  62.639  1.00  0.00    -0.532 OA
HETATM   21  O2  UNL     1      24.837  19.959  61.892  1.00  0.00    -0.532 OA
ENDBRANCH  14  19
ENDBRANCH  12  13
ENDBRANCH   1  12
BRANCH   4  22
HETATM   22  C8  UNL     1      21.238  15.549  63.070  1.00  0.00     0.137 A
HETATM   23  C9  UNL     1      21.283  14.521  63.927  1.00  0.00     0.192 A
HETATM   24  O3  UNL     1      20.050  14.562  64.275  1.00  0.00    -0.282 OA
HETATM   25  S2  UNL     1      19.610  15.808  63.356  1.00  0.00     0.055 SA
ENDBRANCH   4  22
TORSDOF 4
ENDMDL