MODEL 2
REMARK VINA RESULT: -9.162184140      1.588      2.440
REMARK  5 active torsions:
REMARK  status: ('A' for Active; 'I' for Inactive)
REMARK    1  A    between atoms: C2_3  and  C3_4
REMARK    2  A    between atoms: C3_4  and  C4_5
REMARK    3  A    between atoms: C5_7  and  O2_8
REMARK    4  A    between atoms: C13_21  and  S1_22
REMARK    5  A    between atoms: S1_22  and  C14_23
ROOT
HETATM    1  C1  UNL     1      16.581  15.253  66.071  1.00  0.00     0.159 C
HETATM    2  N1  UNL     1      15.974  15.685  64.816  1.00  0.00    -0.319 N
HETATM    3  C2  UNL     1      16.631  16.173  63.735  1.00  0.00     0.105 A
HETATM    4  N2  UNL     1      15.682  16.420  62.825  1.00  0.00    -0.286 N
ATOM      5  H2  UNL     1      15.847  16.797  61.892  1.00  0.00     0.188 HD
HETATM    6  N3  UNL     1      14.518  16.108  63.311  1.00  0.00    -0.278 N
ATOM      7  H3  UNL     1      13.632  16.204  62.815  1.00  0.00     0.189 HD
HETATM    8  C13 UNL     1      14.657  15.634  64.582  1.00  0.00     0.162 A
ENDROOT
BRANCH   3   9
HETATM    9  C3  UNL     1      18.089  16.383  63.598  1.00  0.00     0.143 C
BRANCH   9  10
HETATM   10  C4  UNL     1      18.829  15.107  63.453  1.00  0.00     0.070 A
HETATM   11  O1  UNL     1      18.294  13.912  63.524  1.00  0.00    -0.291 OA
HETATM   12  C5  UNL     1      19.148  12.964  63.362  1.00  0.00     0.190 A
HETATM   13  C6  UNL     1      20.385  13.533  63.161  1.00  0.00     0.009 A
HETATM   14  C7  UNL     1      20.171  14.901  63.221  1.00  0.00    -0.017 A
HETATM   15  C12 UNL     1      21.625  12.769  62.932  1.00  0.00     0.044 C
HETATM   16  C8  UNL     1      21.188  15.977  63.074  1.00  0.00     0.042 C
HETATM   17  C9  UNL     1      22.341  15.644  64.031  1.00  0.00     0.005 C
HETATM   18  C10 UNL     1      23.231  14.584  63.480  1.00  0.00     0.001 C
HETATM   19  C11 UNL     1      22.755  13.185  63.852  1.00  0.00     0.005 C
BRANCH  12  20
HETATM   20  O2  UNL     1      18.866  11.611  63.388  1.00  0.00    -0.340 OA
ATOM     21  H2  UNL     1      19.139  10.976  62.736  1.00  0.00     0.220 HD
ENDBRANCH  12  20
ENDBRANCH   9  10
ENDBRANCH   3   9
BRANCH   8  22
HETATM   22  S1  UNL     1      13.311  15.121  65.578  1.00  0.00    -0.087 SA
BRANCH  22  23
HETATM   23  C14 UNL     1      11.702  15.165  64.835  1.00  0.00     0.055 C
HETATM   24  C15 UNL     1      10.655  14.592  65.761  1.00  0.00     0.015 C
HETATM   25  C16 UNL     1       9.963  13.506  64.997  1.00  0.00     0.001 C
HETATM   26  C17 UNL     1      10.095  13.919  63.566  1.00  0.00     0.001 C
HETATM   27  C18 UNL     1      11.539  14.410  63.547  1.00  0.00     0.015 C
ENDBRANCH  22  23
ENDBRANCH   8  22
TORSDOF 5
ENDMDL