MODEL 4
REMARK VINA RESULT: -4.855352057      0.880      1.787
REMARK  4 active torsions:
REMARK  status: ('A' for Active; 'I' for Inactive)
REMARK    1  A    between atoms: C2_2  and  N1_5
REMARK    2  A    between atoms: N1_5  and  N2_7
REMARK    3  A    between atoms: N3_9  and  N4_11
REMARK    4  A    between atoms: N4_11  and  N5_13
ROOT
HETATM    1  N2  UNL     1       1.915  30.777  22.111  1.00  0.00    -0.231 N
ATOM      2  H2  UNL     1       2.470  30.087  21.607  1.00  0.00     0.209 HD
HETATM    3  N3  UNL     1       2.409  31.386  23.114  1.00  0.00    -0.214 N
ATOM      4  H3  UNL     1       1.865  32.079  23.628  1.00  0.00     0.211 HD
ENDROOT
BRANCH   1   5
HETATM    5  N1  UNL     1       0.608  31.058  21.706  1.00  0.00    -0.312 N
ATOM      6  H1  UNL     1      -0.182  30.617  22.176  1.00  0.00     0.182 HD
BRANCH   5   7
HETATM    7  C2  UNL     1       0.386  31.970  20.629  1.00  0.00     0.036 C
HETATM    8  C1  UNL     1       0.416  33.420  21.043  1.00  0.00     0.039 C
HETATM    9  C3  UNL     1       1.347  31.762  19.483  1.00  0.00     0.039 C
HETATM   10  C4  UNL     1      -1.018  31.678  20.081  1.00  0.00     0.039 C
ENDBRANCH   5   7
ENDBRANCH   1   5
BRANCH   3  11
HETATM   11  N4  UNL     1       3.737  31.073  23.493  1.00  0.00    -0.234 N
ATOM     12  H4  UNL     1       4.325  30.450  22.941  1.00  0.00     0.209 HD
BRANCH  11  13
HETATM   13  N5  UNL     1       4.189  31.672  24.670  1.00  0.00    -0.330 N
ATOM     14  H52 UNL     1       4.766  32.512  24.648  1.00  0.00     0.178 HD
ATOM     15  H51 UNL     1       3.905  31.215  25.537  1.00  0.00     0.178 HD
ENDBRANCH  11  13
ENDBRANCH   3  11
TORSDOF 4
ENDMDL