MODEL 2
REMARK VINA RESULT: -4.241744005      0.721      2.844
REMARK  2 active torsions:
REMARK  status: ('A' for Active; 'I' for Inactive)
REMARK    1  A    between atoms: N1_1  and  C1_4
REMARK    2  A    between atoms: C2_8  and  N3_9
ROOT
HETATM    1  C1  UNL     1       4.886  32.519  24.683  1.00  0.00     0.699 A
HETATM    2  N2  UNL     1       4.591  33.429  23.744  1.00  0.00    -0.088 N
ATOM      3  H2  UNL     1       5.020  34.349  23.642  1.00  0.00     0.214 HD
HETATM    4  O1  UNL     1       3.663  32.930  22.987  1.00  0.00    -0.186 OA
HETATM    5  C2  UNL     1       3.316  31.745  23.356  1.00  0.00     0.256 A
HETATM    6  N4  UNL     1       4.091  31.462  24.445  1.00  0.00    -0.152 N
ATOM      7  H4  UNL     1       4.070  30.596  24.985  1.00  0.00     0.188 HD
ENDROOT
BRANCH   1   8
HETATM    8  N1  UNL     1       5.769  32.614  25.649  1.00  0.00    -0.233 N
ATOM      9  H12 UNL     1       6.043  33.475  26.124  1.00  0.00     0.174 HD
ATOM     10  H11 UNL     1       6.313  31.865  26.077  1.00  0.00     0.174 HD
ENDBRANCH   1   8
BRANCH   5  11
HETATM   11  N3  UNL     1       2.437  30.949  22.850  1.00  0.00    -0.363 N
ATOM     12  H32 UNL     1       1.790  31.195  22.100  1.00  0.00     0.159 HD
ATOM     13  H31 UNL     1       2.226  29.978  23.083  1.00  0.00     0.159 HD
ENDBRANCH   5  11
TORSDOF 2
ENDMDL