MODEL 2
REMARK VINA RESULT: -4.979458702      1.915      2.710
REMARK  2 active torsions:
REMARK  status: ('A' for Active; 'I' for Inactive)
REMARK    1  A    between atoms: C3_6  and  N2_7
REMARK    2  A    between atoms: N2_7  and  N3_9
ROOT
HETATM    1  N1  UNL     1       0.683  35.119  21.410  1.00  0.00    -0.385 N
ATOM      2  H11 UNL     1      -0.109  35.726  21.194  1.00  0.00     0.157 HD
ATOM      3  H12 UNL     1       1.556  35.554  21.707  1.00  0.00     0.157 HD
HETATM    4  C1  UNL     1       0.547  33.836  21.297  1.00  0.00     0.103 A
HETATM    5  C2  UNL     1       1.619  33.014  21.589  1.00  0.00     0.097 A
HETATM    6  C3  UNL     1       1.527  31.647  21.486  1.00  0.00     0.123 A
HETATM    7  N4  UNL     1       0.365  31.118  21.092  1.00  0.00    -0.337 N
ATOM      8  H4  UNL     1       0.270  30.106  21.007  1.00  0.00     0.168 HD
HETATM    9  C4  UNL     1      -0.687  31.925  20.804  1.00  0.00     0.183 A
HETATM   10  N5  UNL     1      -0.602  33.263  20.905  1.00  0.00    -0.339 N
ATOM     11  H5  UNL     1      -1.412  33.843  20.683  1.00  0.00     0.168 HD
ENDROOT
BRANCH   6  12
HETATM   12  N2  UNL     1       2.633  30.815  21.788  1.00  0.00    -0.292 N
ATOM     13  H2  UNL     1       3.207  30.489  21.011  1.00  0.00     0.188 HD
BRANCH  12  14
HETATM   14  N3  UNL     1       2.986  30.416  23.054  1.00  0.00    -0.344 N
ATOM     15  H32 UNL     1       2.479  29.619  23.440  1.00  0.00     0.176 HD
ATOM     16  H31 UNL     1       3.709  30.859  23.620  1.00  0.00     0.176 HD
ENDBRANCH  12  14
ENDBRANCH   6  12
TORSDOF 2
ENDMDL