MODEL 3
REMARK VINA RESULT: -4.601671500      1.816      3.782
REMARK  3 active torsions:
REMARK  status: ('A' for Active; 'I' for Inactive)
REMARK    1  A    between atoms: N1_1  and  C1_4
REMARK    2  A    between atoms: C2_9  and  S1_10
REMARK    3  A    between atoms: S1_10  and  N4_11
ROOT
HETATM    1  C1  UNL     1       3.123  31.648  23.120  1.00  0.00     0.692 A
HETATM    2  N2  UNL     1       2.236  30.653  22.941  1.00  0.00    -0.130 N
ATOM      3  H2  UNL     1       2.205  29.761  23.435  1.00  0.00     0.205 HD
HETATM    4  N3  UNL     1       1.403  31.072  21.984  1.00  0.00    -0.264 N
ATOM      5  H3  UNL     1       0.613  30.540  21.618  1.00  0.00     0.189 HD
HETATM    6  C2  UNL     1       1.766  32.308  21.573  1.00  0.00     0.194 A
HETATM    7  N5  UNL     1       2.846  32.667  22.288  1.00  0.00    -0.166 N
ATOM      8  H5  UNL     1       3.358  33.546  22.215  1.00  0.00     0.186 HD
ENDROOT
BRANCH   6   9
HETATM    9  S1  UNL     1       0.973  33.300  20.315  1.00  0.00     0.017 SA
BRANCH   9  10
HETATM   10  N4  UNL     1      -0.744  32.910  20.252  1.00  0.00    -0.367 N
ATOM     11  H42 UNL     1      -1.182  32.153  20.776  1.00  0.00     0.164 HD
ATOM     12  H41 UNL     1      -1.216  33.554  19.618  1.00  0.00     0.164 HD
ENDBRANCH   9  10
ENDBRANCH   6   9
BRANCH   1  13
HETATM   13  N1  UNL     1       4.101  31.629  23.967  1.00  0.00    -0.233 N
ATOM     14  H12 UNL     1       3.995  31.547  24.978  1.00  0.00     0.174 HD
ATOM     15  H11 UNL     1       5.089  31.695  23.724  1.00  0.00     0.174 HD
ENDBRANCH   1  13
TORSDOF 3
ENDMDL