MODEL 5
REMARK VINA RESULT: -3.912565440      1.822      3.093
REMARK  2 active torsions:
REMARK  status: ('A' for Active; 'I' for Inactive)
REMARK    1  A    between atoms: N1_1  and  C1_4
REMARK    2  A    between atoms: C2_10  and  N4_11
ROOT
HETATM    1  C1  UNL     1       3.920  31.803  23.263  1.00  0.00     0.149 A
HETATM    2  N2  UNL     1       4.721  32.535  22.532  1.00  0.00    -0.277 N
ATOM      3  H2  UNL     1       5.553  32.961  22.940  1.00  0.00     0.189 HD
HETATM    4  N3  UNL     1       4.436  32.712  21.269  1.00  0.00    -0.266 N
ATOM      5  H3  UNL     1       4.957  33.251  20.577  1.00  0.00     0.195 HD
HETATM    6  S1  UNL     1       3.011  31.848  21.050  1.00  0.00     0.023 SA
HETATM    7  C2  UNL     1       2.819  31.265  22.640  1.00  0.00     0.131 A
ENDROOT
BRANCH   1   8
HETATM    8  N1  UNL     1       4.149  31.583  24.553  1.00  0.00    -0.382 N
ATOM      9  H12 UNL     1       4.902  30.962  24.852  1.00  0.00     0.157 HD
ATOM     10  H11 UNL     1       3.589  32.020  25.283  1.00  0.00     0.157 HD
ENDBRANCH   1   8
BRANCH   7  11
HETATM   11  N4  UNL     1       1.892  30.509  23.174  1.00  0.00    -0.389 N
ATOM     12  H42 UNL     1       0.877  30.524  23.077  1.00  0.00     0.157 HD
ATOM     13  H41 UNL     1       2.023  29.727  23.815  1.00  0.00     0.157 HD
ENDBRANCH   7  11
TORSDOF 2
ENDMDL