MODEL 1
REMARK VINA RESULT: -3.923985020      0.000      0.000
REMARK  2 active torsions:
REMARK  status: ('A' for Active; 'I' for Inactive)
REMARK    1  A    between atoms: N1_1  and  C1_4
REMARK    2  A    between atoms: C2_10  and  N4_11
ROOT
HETATM    1  C1  UNL     1       0.395  31.213  20.627  1.00  0.00     0.151 A
HETATM    2  N2  UNL     1       0.871  30.462  19.628  1.00  0.00    -0.296 N
ATOM      3  H2  UNL     1       1.502  29.663  19.682  1.00  0.00     0.177 HD
HETATM    4  S1  UNL     1       0.178  31.154  18.259  1.00  0.00     0.070 SA
HETATM    5  N3  UNL     1      -0.703  32.383  18.992  1.00  0.00    -0.296 N
ATOM      6  H3  UNL     1      -1.300  33.083  18.553  1.00  0.00     0.177 HD
HETATM    7  C2  UNL     1      -0.430  32.220  20.290  1.00  0.00     0.151 A
ENDROOT
BRANCH   1   8
HETATM    8  N1  UNL     1       0.772  30.908  21.869  1.00  0.00    -0.382 N
ATOM      9  H12 UNL     1       0.580  30.025  22.343  1.00  0.00     0.157 HD
ATOM     10  H11 UNL     1       1.295  31.610  22.394  1.00  0.00     0.157 HD
ENDBRANCH   1   8
BRANCH   7  11
HETATM   11  N4  UNL     1      -0.949  33.016  21.216  1.00  0.00    -0.382 N
ATOM     12  H42 UNL     1      -1.941  32.983  21.454  1.00  0.00     0.157 HD
ATOM     13  H41 UNL     1      -0.367  33.685  21.720  1.00  0.00     0.157 HD
ENDBRANCH   7  11
TORSDOF 2
ENDMDL