MODEL 3
REMARK VINA RESULT: -5.005019709      1.030      2.519
REMARK  3 active torsions:
REMARK  status: ('A' for Active; 'I' for Inactive)
REMARK    1  A    between atoms: C2_7  and  C3_8
REMARK    2  A    between atoms: C3_8  and  N3_9
REMARK    3  A    between atoms: C4_14  and  N4_15
ROOT
HETATM    1  N1  UNL     1      -1.938  33.007  21.156  1.00  0.00    -0.234 N
ATOM      2  H11 UNL     1      -2.803  33.074  20.621  1.00  0.00     0.174 HD
ATOM      3  H12 UNL     1      -1.885  33.514  22.040  1.00  0.00     0.174 HD
HETATM    4  C1  UNL     1      -0.922  32.308  20.749  1.00  0.00     0.680 A
HETATM    5  N2  UNL     1       0.217  32.220  21.454  1.00  0.00    -0.172 N
ATOM      6  H2  UNL     1       0.294  32.717  22.341  1.00  0.00     0.186 HD
HETATM    7  C2  UNL     1       1.243  31.502  21.021  1.00  0.00     0.168 A
HETATM    8  O1  UNL     1       1.140  30.859  19.874  1.00  0.00    -0.264 OA
HETATM    9  C4  UNL     1       0.051  30.911  19.146  1.00  0.00     0.237 A
HETATM   10  N5  UNL     1      -0.991  31.640  19.584  1.00  0.00    -0.155 N
ATOM     11  H5  UNL     1      -1.844  31.686  19.026  1.00  0.00     0.188 HD
ENDROOT
BRANCH   7  12
HETATM   12  C3  UNL     1       2.496  31.396  21.781  1.00  0.00     0.314 C
BRANCH  12  13
HETATM   13  N3  UNL     1       2.272  30.703  23.004  1.00  0.00    -0.072 N
ATOM     14  H33 UNL     1       1.290  30.724  23.279  1.00  0.00     0.274 HD
ATOM     15  H32 UNL     1       2.376  29.694  22.895  1.00  0.00     0.274 HD
ATOM     16  H31 UNL     1       2.881  31.073  23.734  1.00  0.00     0.274 HD
ENDBRANCH  12  13
ENDBRANCH   7  12
BRANCH   9  17
HETATM   17  N4  UNL     1      -0.035  30.270  18.015  1.00  0.00    -0.364 N
ATOM     18  H42 UNL     1       0.593  30.509  17.247  1.00  0.00     0.159 HD
ATOM     19  H41 UNL     1      -0.724  29.530  17.879  1.00  0.00     0.159 HD
ENDBRANCH   9  17
TORSDOF 3
ENDMDL