MODEL 4
REMARK VINA RESULT: -3.876597595      1.817      3.420
REMARK  2 active torsions:
REMARK  status: ('A' for Active; 'I' for Inactive)
REMARK    1  A    between atoms: N1_1  and  N2_4
REMARK    2  A    between atoms: N2_4  and  C1_5
ROOT
HETATM    1  C1  UNL     1       1.077  31.309  21.052  1.00  0.00     0.359 C
HETATM    2  N3  UNL     1      -0.270  31.835  21.154  1.00  0.00    -0.046 N
ATOM      3  H31 UNL     1      -0.289  32.800  21.483  1.00  0.00     0.280 HD
ATOM      4  H32 UNL     1      -0.797  31.416  21.920  1.00  0.00     0.280 HD
HETATM    5  C2  UNL     1      -0.915  31.673  19.892  1.00  0.00     0.245 C
HETATM    6  C3  UNL     1      -0.107  32.452  18.858  1.00  0.00     0.105 C
HETATM    7  S1  UNL     1       1.591  32.097  19.471  1.00  0.00    -0.117 SA
ENDROOT
BRANCH   1   8
HETATM    8  N2  UNL     1       1.888  31.791  22.144  1.00  0.00    -0.104 NA
BRANCH   8   9
HETATM    9  N1  UNL     1       2.138  30.725  22.988  1.00  0.00    -0.346 N
ATOM     10  H12 UNL     1       2.897  30.053  22.880  1.00  0.00     0.172 HD
ATOM     11  H11 UNL     1       1.433  30.738  23.725  1.00  0.00     0.172 HD
ENDBRANCH   8   9
ENDBRANCH   1   8
TORSDOF 2
ENDMDL