MODEL 3
REMARK VINA RESULT: -4.661636874      2.181      3.428
REMARK  2 active torsions:
REMARK  status: ('A' for Active; 'I' for Inactive)
REMARK    1  A    between atoms: N1_2  and  C2_4
REMARK    2  A    between atoms: C3_7  and  N3_8
ROOT
HETATM    1  C2  UNL     1       1.533  31.598  21.716  1.00  0.00     0.693 A
HETATM    2  N2  UNL     1       1.577  32.932  21.818  1.00  0.00    -0.023 N
ATOM      3  H2  UNL     1       2.401  33.364  22.236  1.00  0.00     0.203 HD
HETATM    4  C3  UNL     1       0.578  33.726  21.391  1.00  0.00     0.691 A
HETATM    5  N4  UNL     1      -0.499  33.145  20.842  1.00  0.00    -0.187 N
ATOM      6  H4  UNL     1      -1.265  33.732  20.512  1.00  0.00     0.185 HD
HETATM    7  C4  UNL     1      -0.597  31.818  20.714  1.00  0.00     0.215 A
HETATM    8  N5  UNL     1       0.442  31.058  21.164  1.00  0.00    -0.187 N
ATOM      9  H5  UNL     1       0.386  30.043  21.075  1.00  0.00     0.185 HD
ENDROOT
BRANCH   1  10
HETATM   10  N1  UNL     1       2.627  30.822  22.189  1.00  0.00    -0.230 N
HETATM   11  C1  UNL     1       3.631  31.350  23.073  1.00  0.00     0.165 C
ATOM     12  H1  UNL     1       2.703  29.851  21.888  1.00  0.00     0.177 HD
ENDBRANCH   1  10
BRANCH   4  13
HETATM   13  N3  UNL     1       0.721  34.990  21.537  1.00  0.00    -0.234 N
ATOM     14  H32 UNL     1       0.447  35.685  20.842  1.00  0.00     0.174 HD
ATOM     15  H31 UNL     1       1.140  35.321  22.407  1.00  0.00     0.174 HD
ENDBRANCH   4  13
TORSDOF 2
ENDMDL