MODEL 5
REMARK VINA RESULT: -4.569671769      2.040      3.182
REMARK  3 active torsions:
REMARK  status: ('A' for Active; 'I' for Inactive)
REMARK    1  A    between atoms: C3_4  and  N2_5
REMARK    2  A    between atoms: N2_5  and  N3_7
REMARK    3  A    between atoms: C4_10  and  N4_11
ROOT
HETATM    1  C1  UNL     1       3.269  30.967  22.430  1.00  0.00     0.177 C
HETATM    2  N1  UNL     1       2.090  31.615  21.888  1.00  0.00    -0.304 N
HETATM    3  C2  UNL     1       1.842  32.937  21.845  1.00  0.00     0.144 A
HETATM    4  C3  UNL     1       0.626  33.194  21.262  1.00  0.00     0.109 A
HETATM    5  C4  UNL     1       0.131  31.926  20.942  1.00  0.00     0.143 A
HETATM    6  N5  UNL     1       1.045  31.013  21.338  1.00  0.00    -0.282 N
ATOM      7  H5  UNL     1       0.946  30.004  21.230  1.00  0.00     0.189 HD
ENDROOT
BRANCH   4   8
HETATM    8  N2  UNL     1       0.022  34.455  21.026  1.00  0.00    -0.302 N
ATOM      9  H2  UNL     1       0.164  34.878  20.110  1.00  0.00     0.186 HD
BRANCH   8  10
HETATM   10  N3  UNL     1      -0.747  35.160  21.944  1.00  0.00    -0.345 N
ATOM     11  H32 UNL     1      -1.035  34.649  22.778  1.00  0.00     0.176 HD
ATOM     12  H31 UNL     1      -1.039  36.132  21.843  1.00  0.00     0.176 HD
ENDBRANCH   8  10
ENDBRANCH   4   8
BRANCH   5  13
HETATM   13  N4  UNL     1      -1.014  31.721  20.365  1.00  0.00    -0.383 N
ATOM     14  H42 UNL     1      -1.813  32.351  20.304  1.00  0.00     0.157 HD
ATOM     15  H41 UNL     1      -1.260  30.857  19.882  1.00  0.00     0.157 HD
ENDBRANCH   5  13
TORSDOF 3
ENDMDL