MODEL 5
REMARK VINA RESULT: -6.504354300      3.046      6.194
REMARK  5 active torsions:
REMARK  status: ('A' for Active; 'I' for Inactive)
REMARK    1  A    between atoms: C2_2  and  C3_3
REMARK    2  A    between atoms: C14_14  and  O1_16
REMARK    3  A    between atoms: C17_19  and  O2_20
REMARK    4  A    between atoms: O2_20  and  C18_21
REMARK    5  A    between atoms: C18_21  and  C19_23
ROOT
HETATM    1  C3  UNL     1     -22.844  17.396 -20.119  1.00  0.00    -0.020 C
HETATM    2  C4  UNL     1     -22.163  16.302 -20.923  1.00  0.00     0.020 C
HETATM    3  C5  UNL     1     -24.273  17.040 -19.970  1.00  0.00     0.041 C
HETATM    4  C6  UNL     1     -24.655  15.848 -19.224  1.00  0.00    -0.017 C
HETATM    5  C7  UNL     1     -24.023  15.450 -17.957  1.00  0.00    -0.043 C
HETATM    6  C8  UNL     1     -22.520  15.378 -18.027  1.00  0.00    -0.060 C
HETATM    7  C9  UNL     1     -21.929  14.207 -17.907  1.00  0.00     0.019 C
HETATM    8  C10 UNL     1     -21.522  16.472 -18.218  1.00  0.00     0.044 C
HETATM    9  C11 UNL     1     -22.095  17.700 -18.865  1.00  0.00     0.006 C
HETATM   10  C12 UNL     1     -22.794  18.522 -17.861  1.00  0.00     0.047 C
HETATM   11  C13 UNL     1     -22.639  17.839 -16.434  1.00  0.00    -0.019 C
HETATM   12  C14 UNL     1     -21.943  18.668 -15.604  1.00  0.00     0.046 C
HETATM   13  C15 UNL     1     -21.734  19.003 -14.232  1.00  0.00     0.076 C
HETATM   14  C16 UNL     1     -23.310  16.823 -16.011  1.00  0.00    -0.006 C
HETATM   15  C17 UNL     1     -22.907  16.423 -14.707  1.00  0.00     0.065 C
HETATM   16  C20 UNL     1     -24.095  16.335 -13.705  1.00  0.00     0.066 C
HETATM   17  C21 UNL     1     -25.185  15.492 -14.305  1.00  0.00     0.012 C
HETATM   18  C22 UNL     1     -24.967  15.031 -15.698  1.00  0.00    -0.001 C
HETATM   19  C23 UNL     1     -26.327  14.467 -16.145  1.00  0.00     0.011 C
HETATM   20  C24 UNL     1     -24.488  16.064 -16.681  1.00  0.00     0.017 C
HETATM   21  C25 UNL     1     -25.642  17.030 -16.808  1.00  0.00     0.026 C
ENDROOT
BRANCH  15  22
HETATM   22  O2  UNL     1     -21.678  16.340 -14.191  1.00  0.00    -0.282 OA
BRANCH  22  23
HETATM   23  C18 UNL     1     -21.184  15.582 -13.200  1.00  0.00     0.277 C
HETATM   24  O3  UNL     1     -21.587  14.418 -13.082  1.00  0.00    -0.264 OA
BRANCH  23  25
HETATM   25  C19 UNL     1     -20.173  16.067 -12.230  1.00  0.00     0.226 C
HETATM   26 CL1  UNL     1     -19.862  14.884 -10.948  1.00  0.00    -0.120 Cl
ENDBRANCH  23  25
ENDBRANCH  22  23
ENDBRANCH  15  22
BRANCH  12  27
HETATM   27  O1  UNL     1     -21.161  19.522 -16.295  1.00  0.00    -0.365 OA
ATOM     28  H1  UNL     1     -21.631  20.311 -16.537  1.00  0.00     0.217 HD
ENDBRANCH  12  27
BRANCH   1  29
HETATM   29  C2  UNL     1     -22.774  18.630 -20.975  1.00  0.00    -0.027 C
HETATM   30  C1  UNL     1     -23.792  19.143 -21.624  1.00  0.00     0.007 C
ENDBRANCH   1  29
TORSDOF 5
ENDMDL