MODEL 4
REMARK VINA RESULT: -8.093093795      2.471      4.323
REMARK  4 active torsions:
REMARK  status: ('A' for Active; 'I' for Inactive)
REMARK    1  A    between atoms: C1_2  and  C2_3
REMARK       I    between atoms: C1_2  and  N1_10
REMARK    2  A    between atoms: C2_3  and  C3_4
REMARK    3  A    between atoms: N2_17  and  C15_18
REMARK    4  A    between atoms: C16_21  and  C17_22
ROOT
HETATM    1  O1  UNL     1     -23.353  14.208 -16.664  1.00  0.00    -0.273 OA
HETATM    2  C1  UNL     1     -22.348  14.957 -16.849  1.00  0.00     0.220 C
HETATM    3  N1  UNL     1     -22.093  15.993 -15.911  1.00  0.00    -0.351 N
HETATM    4  C9  UNL     1     -22.987  16.164 -14.797  1.00  0.00     0.126 C
HETATM    5  C10 UNL     1     -22.207  16.736 -13.637  1.00  0.00     0.021 C
HETATM    6  C11 UNL     1     -21.634  18.093 -13.961  1.00  0.00     0.014 C
HETATM    7  C12 UNL     1     -21.071  18.170 -15.349  1.00  0.00    -0.006 C
HETATM    8  C13 UNL     1     -21.758  19.245 -16.168  1.00  0.00     0.033 C
HETATM    9  C14 UNL     1     -21.220  20.499 -15.517  1.00  0.00     0.125 C
HETATM   10  N2  UNL     1     -19.850  20.159 -15.112  1.00  0.00    -0.365 N
HETATM   11  C22 UNL     1     -19.670  18.757 -15.253  1.00  0.00     0.135 C
HETATM   12  C23 UNL     1     -20.963  16.856 -16.058  1.00  0.00     0.136 C
ENDROOT
BRANCH  10  13
HETATM   13  C15 UNL     1     -18.982  21.205 -14.663  1.00  0.00     0.128 A
HETATM   14  N3  UNL     1     -18.774  21.449 -13.347  1.00  0.00    -0.330 N
HETATM   15  C16 UNL     1     -17.957  22.398 -12.874  1.00  0.00     0.086 A
ATOM     16  H3  UNL     1     -19.273  20.870 -12.671  1.00  0.00     0.168 HD
HETATM   17  N4  UNL     1     -17.293  23.168 -13.743  1.00  0.00    -0.354 N
HETATM   18  C20 UNL     1     -17.432  23.008 -15.048  1.00  0.00     0.117 A
ATOM     19  H4  UNL     1     -16.668  23.893 -13.391  1.00  0.00     0.166 HD
HETATM   20  C21 UNL     1     -18.282  22.020 -15.522  1.00  0.00     0.093 A
HETATM   21 CL1  UNL     1     -18.451  21.857 -17.242  1.00  0.00    -0.079 Cl
BRANCH  15  22
HETATM   22  C17 UNL     1     -17.767  22.621 -11.426  1.00  0.00     0.053 A
HETATM   23  C18 UNL     1     -17.739  23.995 -10.866  1.00  0.00     0.013 A
HETATM   24  C19 UNL     1     -18.910  23.145 -10.587  1.00  0.00     0.013 A
ENDBRANCH  15  22
ENDBRANCH  10  13
BRANCH   2  25
HETATM   25  C2  UNL     1     -21.475  14.746 -18.010  1.00  0.00     0.107 C
BRANCH  25  26
HETATM   26  C3  UNL     1     -22.255  14.744 -19.282  1.00  0.00    -0.006 C
HETATM   27  C4  UNL     1     -21.499  14.250 -20.481  1.00  0.00     0.005 C
HETATM   28  C5  UNL     1     -20.375  15.188 -20.864  1.00  0.00     0.000 C
HETATM   29  C6  UNL     1     -21.064  16.503 -21.251  1.00  0.00     0.000 C
HETATM   30  C7  UNL     1     -21.685  17.063 -19.998  1.00  0.00     0.000 C
HETATM   31  C8  UNL     1     -22.806  16.146 -19.532  1.00  0.00     0.005 C
ENDBRANCH  25  26
ENDBRANCH   2  25
TORSDOF 4
ENDMDL