MODEL 3
REMARK VINA RESULT: -8.047954458      3.894      7.462
REMARK  4 active torsions:
REMARK  status: ('A' for Active; 'I' for Inactive)
REMARK    1  A    between atoms: C2_2  and  C3_4
REMARK    2  A    between atoms: C11_13  and  C12_14
REMARK    3  A    between atoms: C12_14  and  C13_15
REMARK    4  A    between atoms: C13_15  and  C14_16
ROOT
HETATM    1  C3  UNL     1     -23.413  16.891 -19.031  1.00  0.00     0.082 C
HETATM    2  C4  UNL     1     -23.164  15.630 -19.831  1.00  0.00     0.032 C
HETATM    3  C5  UNL     1     -23.530  16.668 -17.557  1.00  0.00     0.042 C
HETATM    4  C6  UNL     1     -22.206  16.838 -16.792  1.00  0.00     0.018 C
HETATM    5  C7  UNL     1     -21.188  15.952 -17.497  1.00  0.00     0.023 C
HETATM    6  C8  UNL     1     -21.875  18.279 -16.975  1.00  0.00    -0.057 C
HETATM    7  C9  UNL     1     -22.014  18.758 -18.187  1.00  0.00     0.056 C
HETATM    8  C10 UNL     1     -22.462  17.980 -19.360  1.00  0.00     0.165 C
HETATM    9  O2  UNL     1     -22.081  18.216 -20.503  1.00  0.00    -0.292 OA
HETATM   10  C11 UNL     1     -21.390  19.151 -15.874  1.00  0.00     0.038 C
HETATM   11  C18 UNL     1     -21.945  18.687 -14.515  1.00  0.00     0.021 C
HETATM   12  C19 UNL     1     -21.632  17.241 -14.392  1.00  0.00     0.036 C
HETATM   13  C20 UNL     1     -21.767  16.840 -12.967  1.00  0.00     0.046 C
HETATM   14  C21 UNL     1     -21.060  15.604 -12.516  1.00  0.00     0.175 C
HETATM   15  O4  UNL     1     -22.238  14.868 -12.399  1.00  0.00    -0.385 OA
HETATM   16  C22 UNL     1     -22.947  16.049 -12.586  1.00  0.00     0.128 C
HETATM   17  C23 UNL     1     -24.085  16.039 -13.520  1.00  0.00     0.036 C
HETATM   18  C24 UNL     1     -23.808  16.116 -14.969  1.00  0.00     0.047 C
HETATM   19  C25 UNL     1     -22.389  16.391 -15.368  1.00  0.00     0.119 C
HETATM   20  F1  UNL     1     -21.750  15.134 -15.244  1.00  0.00    -0.241 F
ENDROOT
BRANCH  10  21
HETATM   21  C12 UNL     1     -19.923  19.362 -15.805  1.00  0.00    -0.021 C
BRANCH  21  22
HETATM   22  C13 UNL     1     -19.315  20.277 -14.846  1.00  0.00    -0.023 C
BRANCH  22  23
HETATM   23  C14 UNL     1     -18.501  19.862 -13.728  1.00  0.00     0.034 C
HETATM   24  C15 UNL     1     -18.242  18.493 -13.297  1.00  0.00     0.037 C
HETATM   25  C16 UNL     1     -17.173  18.743 -12.221  1.00  0.00     0.168 C
HETATM   26  O3  UNL     1     -16.617  19.965 -12.492  1.00  0.00    -0.390 OA
HETATM   27  C17 UNL     1     -17.083  20.442 -13.712  1.00  0.00     0.176 C
ENDBRANCH  22  23
ENDBRANCH  21  22
ENDBRANCH  10  21
BRANCH   1  28
HETATM   28  C2  UNL     1     -24.749  17.389 -19.554  1.00  0.00     0.139 C
HETATM   29  C1  UNL     1     -25.536  18.388 -18.741  1.00  0.00     0.092 C
HETATM   30  O1  UNL     1     -25.235  17.038 -20.591  1.00  0.00    -0.297 OA
ENDBRANCH   1  28
TORSDOF 4
ENDMDL