MODEL 5
REMARK VINA RESULT: -6.798049566      2.342      3.284
REMARK  6 active torsions:
REMARK  status: ('A' for Active; 'I' for Inactive)
REMARK    1  A    between atoms: C2_2  and  C3_3
REMARK    2  A    between atoms: C3_3  and  O1_4
REMARK    3  A    between atoms: O1_4  and  C4_5
REMARK    4  A    between atoms: C4_5  and  C5_7
REMARK    5  A    between atoms: C17_20  and  C18_21
REMARK    6  A    between atoms: C22_26  and  C23_27
ROOT
HETATM    1  C18 UNL     1     -24.702  16.340 -17.630  1.00  0.00     0.054 C
HETATM    2  C19 UNL     1     -24.174  15.064 -16.967  1.00  0.00     0.032 C
HETATM    3  C20 UNL     1     -25.482  15.661 -18.767  1.00  0.00     0.032 C
HETATM    4  C21 UNL     1     -25.836  16.908 -16.874  1.00  0.00     0.069 C
HETATM    5  N1  UNL     1     -26.779  17.334 -16.277  1.00  0.00    -0.196 NA
ENDROOT
BRANCH   1   6
HETATM    6  C17 UNL     1     -23.716  17.347 -17.953  1.00  0.00     0.008 C
HETATM    7  C7  UNL     1     -23.009  18.115 -16.860  1.00  0.00     0.010 C
HETATM    8  C6  UNL     1     -22.855  17.462 -15.526  1.00  0.00     0.022 C
HETATM    9  C8  UNL     1     -21.563  18.435 -17.198  1.00  0.00    -0.029 C
HETATM   10  C5  UNL     1     -21.811  18.271 -14.760  1.00  0.00     0.097 C
HETATM   11  C22 UNL     1     -20.952  18.786 -15.822  1.00  0.00     0.069 C
HETATM   12  C9  UNL     1     -21.299  19.665 -17.974  1.00  0.00     0.016 C
HETATM   13  C10 UNL     1     -20.790  17.210 -17.645  1.00  0.00     0.014 C
HETATM   14  C11 UNL     1     -21.506  16.333 -18.629  1.00  0.00     0.036 C
HETATM   15  C12 UNL     1     -22.755  17.024 -19.055  1.00  0.00    -0.066 C
HETATM   16  C13 UNL     1     -22.915  17.315 -20.330  1.00  0.00     0.053 C
HETATM   17  C14 UNL     1     -24.080  17.990 -20.884  1.00  0.00     0.149 C
HETATM   18  O3  UNL     1     -24.169  18.286 -22.048  1.00  0.00    -0.293 OA
HETATM   19  C15 UNL     1     -25.143  18.283 -19.906  1.00  0.00     0.084 C
HETATM   20  C16 UNL     1     -24.538  18.502 -18.604  1.00  0.00     0.024 C
BRANCH  10  21
HETATM   21  C4  UNL     1     -21.038  17.433 -13.806  1.00  0.00     0.263 C
HETATM   22  O2  UNL     1     -21.574  16.851 -12.828  1.00  0.00    -0.265 OA
BRANCH  21  23
HETATM   23  O1  UNL     1     -19.672  17.255 -13.957  1.00  0.00    -0.321 OA
BRANCH  23  24
HETATM   24  C3  UNL     1     -18.752  17.608 -12.914  1.00  0.00     0.178 C
BRANCH  24  25
HETATM   25  C2  UNL     1     -18.147  18.941 -13.347  1.00  0.00     0.022 C
HETATM   26  C1  UNL     1     -16.932  19.247 -12.485  1.00  0.00     0.007 C
ENDBRANCH  24  25
ENDBRANCH  23  24
ENDBRANCH  21  23
ENDBRANCH  10  21
BRANCH  11  27
HETATM   27  C23 UNL     1     -20.824  20.258 -15.606  1.00  0.00     0.237 C
HETATM   28  O4  UNL     1     -20.949  20.750 -14.474  1.00  0.00    -0.306 OA
ENDBRANCH  11  27
ENDBRANCH   1   6
TORSDOF 6
ENDMDL