MODEL 2
REMARK VINA RESULT: -8.889410461      1.160      1.349
REMARK  4 active torsions:
REMARK  status: ('A' for Active; 'I' for Inactive)
REMARK    1  A    between atoms: C4_5  and  C5_6
REMARK    2  A    between atoms: C8_9  and  C9_10
REMARK    3  A    between atoms: C9_10  and  N1_11
REMARK    4  A    between atoms: C15_17  and  N2_18
ROOT
HETATM    1  N1  UNL     1     -18.885  20.690 -14.205  1.00  0.00    -0.373 N
HETATM    2  C10 UNL     1     -19.758  19.608 -14.153  1.00  0.00     0.066 C
HETATM    3  C11 UNL     1     -21.057  19.848 -14.907  1.00  0.00     0.082 C
HETATM    4  C12 UNL     1     -20.869  20.356 -16.309  1.00  0.00     0.067 C
HETATM    5  C13 UNL     1     -20.099  19.447 -17.209  1.00  0.00     0.041 C
HETATM    6  C14 UNL     1     -21.052  18.445 -17.819  1.00  0.00     0.041 C
HETATM    7  C15 UNL     1     -22.008  19.217 -18.688  1.00  0.00     0.246 C
HETATM    8  C20 UNL     1     -22.270  20.586 -18.133  1.00  0.00     0.204 C
HETATM    9  O1  UNL     1     -22.142  20.671 -16.773  1.00  0.00    -0.378 OA
HETATM   10  C21 UNL     1     -20.027  21.634 -16.173  1.00  0.00     0.058 C
HETATM   11  C22 UNL     1     -18.740  21.269 -15.505  1.00  0.00     0.130 C
ENDROOT
BRANCH   1  12
HETATM   12  C9  UNL     1     -17.662  20.652 -13.530  1.00  0.00     0.067 C
BRANCH  12  13
HETATM   13  C8  UNL     1     -17.360  21.683 -12.501  1.00  0.00     0.025 C
HETATM   14  C7  UNL     1     -18.483  22.493 -11.974  1.00  0.00     0.010 C
HETATM   15  C6  UNL     1     -18.070  22.882 -10.533  1.00  0.00     0.010 C
HETATM   16  C5  UNL     1     -16.720  22.298 -10.341  1.00  0.00     0.026 C
HETATM   17  C23 UNL     1     -16.798  21.051 -11.225  1.00  0.00     0.019 C
BRANCH  16  18
HETATM   18  C4  UNL     1     -16.464  21.956  -8.915  1.00  0.00    -0.012 A
HETATM   19  C3  UNL     1     -15.511  21.135  -8.374  1.00  0.00     0.017 A
HETATM   20  C2  UNL     1     -15.502  20.999  -7.035  1.00  0.00     0.032 A
HETATM   21  C1  UNL     1     -16.451  21.698  -6.330  1.00  0.00     0.075 A
HETATM   22 CL1  UNL     1     -16.677  21.717  -4.567  1.00  0.00    -0.076 Cl
HETATM   23  S1  UNL     1     -17.315  22.513  -7.551  1.00  0.00    -0.082 SA
ENDBRANCH  16  18
ENDBRANCH  12  13
ENDBRANCH   1  12
BRANCH   7  24
HETATM   24  N2  UNL     1     -23.210  18.488 -19.005  1.00  0.00     0.095 N
HETATM   25  C16 UNL     1     -23.012  17.115 -19.342  1.00  0.00     0.273 C
HETATM   26  C17 UNL     1     -23.974  16.855 -20.492  1.00  0.00     0.032 C
HETATM   27  C18 UNL     1     -23.885  18.164 -21.248  1.00  0.00     0.032 C
HETATM   28  C19 UNL     1     -23.872  19.156 -20.076  1.00  0.00     0.273 C
ENDBRANCH   7  24
TORSDOF 4
ENDMDL