MODEL 2
REMARK VINA RESULT: -7.080063923      3.335      5.054
REMARK  3 active torsions:
REMARK  status: ('A' for Active; 'I' for Inactive)
REMARK    1  A    between atoms: O1_2  and  C2_3
REMARK    2  A    between atoms: C14_18  and  C15_19
REMARK    3  A    between atoms: C14_18  and  C16_21
ROOT
HETATM    1  C2  UNL     1     -25.572  15.641 -12.708  1.00  0.00     0.283 C
HETATM    2  C3  UNL     1     -26.418  15.984 -13.857  1.00  0.00     0.296 C
HETATM    3  O2  UNL     1     -27.399  16.712 -14.082  1.00  0.00    -0.262 OA
HETATM    4  O3  UNL     1     -25.654  15.132 -14.635  1.00  0.00    -0.277 OA
HETATM    5  C4  UNL     1     -24.607  15.313 -13.763  1.00  0.00     0.218 C
HETATM    6  O4  UNL     1     -23.799  14.206 -13.505  1.00  0.00    -0.345 OA
HETATM    7  C5  UNL     1     -22.838  14.819 -14.312  1.00  0.00     0.139 C
HETATM    8  C6  UNL     1     -22.904  14.238 -15.696  1.00  0.00     0.034 C
HETATM    9  C7  UNL     1     -21.909  14.937 -16.524  1.00  0.00     0.016 C
HETATM   10  C8  UNL     1     -22.455  15.590 -17.822  1.00  0.00    -0.022 C
HETATM   11  C9  UNL     1     -23.551  14.688 -18.255  1.00  0.00     0.020 C
HETATM   12  C10 UNL     1     -21.317  15.394 -18.757  1.00  0.00    -0.021 C
HETATM   13  C11 UNL     1     -21.374  15.738 -20.144  1.00  0.00    -0.030 C
HETATM   14  C12 UNL     1     -22.449  16.559 -20.704  1.00  0.00     0.027 C
HETATM   15  C13 UNL     1     -23.317  17.356 -19.867  1.00  0.00     0.015 C
HETATM   16  C14 UNL     1     -22.860  18.006 -18.602  1.00  0.00    -0.020 C
HETATM   17  C19 UNL     1     -22.784  17.002 -17.448  1.00  0.00     0.007 C
HETATM   18  C20 UNL     1     -23.839  17.105 -16.399  1.00  0.00     0.007 C
HETATM   19  C21 UNL     1     -23.381  17.214 -14.981  1.00  0.00     0.018 C
HETATM   20  C22 UNL     1     -23.437  16.107 -14.055  1.00  0.00     0.042 C
HETATM   21  C23 UNL     1     -22.821  16.631 -12.725  1.00  0.00     0.024 C
ENDROOT
BRANCH   1  22
HETATM   22  O1  UNL     1     -25.317  16.642 -11.810  1.00  0.00    -0.375 OA
HETATM   23  C1  UNL     1     -25.906  16.287 -10.575  1.00  0.00     0.202 C
ENDBRANCH   1  22
BRANCH  16  24
HETATM   24  C15 UNL     1     -23.954  19.028 -18.330  1.00  0.00     0.124 C
HETATM   25 CL1  UNL     1     -25.499  18.667 -19.089  1.00  0.00    -0.130 Cl
ENDBRANCH  16  24
BRANCH  16  26
HETATM   26  C16 UNL     1     -21.592  18.776 -18.712  1.00  0.00    -0.013 C
HETATM   27  C17 UNL     1     -21.582  20.177 -19.155  1.00  0.00     0.010 C
HETATM   28  C18 UNL     1     -20.794  18.776 -17.406  1.00  0.00     0.010 C
ENDBRANCH  16  26
TORSDOF 3
ENDMDL