MODEL 1
REMARK VINA RESULT: -8.609094997      0.000      0.000
REMARK  4 active torsions:
REMARK  status: ('A' for Active; 'I' for Inactive)
REMARK    1  A    between atoms: C2_2  and  N1_4
REMARK    2  A    between atoms: C5_7  and  C6_8
REMARK       I    between atoms: C6_8  and  N2_10
REMARK    3  A    between atoms: N3_21  and  C16_22
REMARK    4  A    between atoms: C16_22  and  C17_23
ROOT
HETATM    1  N1  UNL     1     -19.566  19.802 -15.183  1.00  0.00    -0.313 N
HETATM    2  C4  UNL     1     -19.443  21.131 -15.305  1.00  0.00     0.124 A
HETATM    3 CL1  UNL     1     -20.276  22.125 -16.504  1.00  0.00    -0.063 Cl
HETATM    4  C5  UNL     1     -18.575  21.621 -14.364  1.00  0.00     0.083 A
HETATM    5  C12 UNL     1     -18.126  20.522 -13.606  1.00  0.00     0.029 A
HETATM    6  C13 UNL     1     -18.766  19.434 -14.150  1.00  0.00     0.155 A
HETATM    7  O2  UNL     1     -18.620  18.110 -13.707  1.00  0.00    -0.334 OA
HETATM    8  C14 UNL     1     -18.104  17.683 -12.460  1.00  0.00     0.197 C
HETATM    9  C15 UNL     1     -16.752  18.373 -12.214  1.00  0.00     0.144 C
HETATM   10  N3  UNL     1     -16.995  19.614 -11.607  1.00  0.00    -0.406 N
HETATM   11  C23 UNL     1     -17.173  20.718 -12.518  1.00  0.00     0.161 C
ENDROOT
BRANCH   4  12
HETATM   12  C6  UNL     1     -18.211  23.019 -14.215  1.00  0.00     0.257 C
HETATM   13  O1  UNL     1     -17.483  23.614 -15.080  1.00  0.00    -0.267 OA
HETATM   14  N2  UNL     1     -18.641  23.803 -13.107  1.00  0.00    -0.348 N
HETATM   15  C7  UNL     1     -18.274  25.187 -12.970  1.00  0.00     0.126 C
HETATM   16  C11 UNL     1     -19.476  23.154 -12.103  1.00  0.00     0.126 C
HETATM   17  C8  UNL     1     -17.928  25.605 -11.575  1.00  0.00     0.020 C
HETATM   18  C9  UNL     1     -18.257  24.560 -10.543  1.00  0.00     0.003 C
HETATM   19  C10 UNL     1     -19.654  24.031 -10.883  1.00  0.00     0.020 C
ENDBRANCH   4  12
BRANCH   1  20
HETATM   20  C2  UNL     1     -20.383  18.936 -15.996  1.00  0.00     0.085 C
HETATM   21  C1  UNL     1     -20.306  19.288 -17.451  1.00  0.00     0.032 C
HETATM   22  C3  UNL     1     -21.827  18.972 -15.485  1.00  0.00     0.032 C
ENDBRANCH   1  20
BRANCH  10  23
HETATM   23  C16 UNL     1     -16.308  19.978 -10.426  1.00  0.00     0.121 C
BRANCH  23  24
HETATM   24  C17 UNL     1     -16.620  21.298  -9.802  1.00  0.00     0.003 C
HETATM   25  C18 UNL     1     -17.796  21.368  -8.900  1.00  0.00     0.006 C
HETATM   26  C19 UNL     1     -17.693  22.562  -7.942  1.00  0.00     0.000 C
HETATM   27  C20 UNL     1     -16.577  22.299  -6.952  1.00  0.00     0.000 C
HETATM   28  C21 UNL     1     -15.561  21.363  -7.596  1.00  0.00     0.000 C
HETATM   29  C22 UNL     1     -15.393  21.798  -9.030  1.00  0.00     0.006 C
ENDBRANCH  23  24
ENDBRANCH  10  23
TORSDOF 4
ENDMDL