MODEL 4
REMARK VINA RESULT: -8.783950779      1.383      1.439
REMARK  4 active torsions:
REMARK  status: ('A' for Active; 'I' for Inactive)
REMARK    1  A    between atoms: C2_2  and  C3_3
REMARK    2  A    between atoms: C7_7  and  O1_8
REMARK    3  A    between atoms: O1_8  and  C8_9
REMARK    4  A    between atoms: C13_15  and  N1_16
ROOT
HETATM    1  C3  UNL     1     -19.208  22.697 -16.784  1.00  0.00    -0.020 C
HETATM    2  C4  UNL     1     -18.710  22.507 -18.223  1.00  0.00     0.020 C
HETATM    3  C5  UNL     1     -20.697  22.482 -16.696  1.00  0.00     0.016 C
HETATM    4  C6  UNL     1     -21.188  21.268 -17.427  1.00  0.00     0.037 C
HETATM    5  C7  UNL     1     -20.911  19.988 -16.693  1.00  0.00     0.145 C
HETATM    6  C14 UNL     1     -20.335  20.327 -15.352  1.00  0.00     0.008 C
HETATM    7  C15 UNL     1     -19.301  21.068 -14.987  1.00  0.00    -0.071 C
HETATM    8  C16 UNL     1     -18.397  21.793 -15.917  1.00  0.00     0.026 C
HETATM    9  C17 UNL     1     -17.315  22.506 -15.139  1.00  0.00     0.011 C
HETATM   10  C18 UNL     1     -16.666  21.525 -14.215  1.00  0.00     0.018 C
HETATM   11  C19 UNL     1     -17.596  20.946 -13.187  1.00  0.00     0.024 C
HETATM   12  C20 UNL     1     -17.353  19.477 -12.950  1.00  0.00     0.024 C
HETATM   13  C21 UNL     1     -17.445  21.693 -11.923  1.00  0.00     0.136 C
HETATM   14  O4  UNL     1     -16.694  21.424 -11.022  1.00  0.00    -0.297 OA
HETATM   15  C22 UNL     1     -18.387  22.834 -11.966  1.00  0.00     0.080 C
HETATM   16  C23 UNL     1     -19.510  22.404 -12.877  1.00  0.00     0.018 C
HETATM   17  C24 UNL     1     -19.049  21.152 -13.533  1.00  0.00     0.030 C
ENDROOT
BRANCH   5  18
HETATM   18  O1  UNL     1     -21.981  19.185 -16.491  1.00  0.00    -0.374 OA
BRANCH  18  19
HETATM   19  C8  UNL     1     -22.206  18.194 -17.411  1.00  0.00     0.154 C
HETATM   20  C9  UNL     1     -21.209  17.095 -17.418  1.00  0.00     0.071 C
HETATM   21  C10 UNL     1     -21.736  15.707 -17.456  1.00  0.00     0.172 C
HETATM   22  F1  UNL     1     -20.791  14.914 -18.129  1.00  0.00    -0.249 F
HETATM   23  C11 UNL     1     -23.027  15.509 -18.152  1.00  0.00     0.039 C
HETATM   24  C12 UNL     1     -23.932  16.681 -18.244  1.00  0.00     0.037 C
HETATM   25  C13 UNL     1     -23.624  17.705 -17.215  1.00  0.00     0.185 C
BRANCH  25  26
HETATM   26  N1  UNL     1     -23.894  17.328 -15.856  1.00  0.00    -0.148 N
HETATM   27  O2  UNL     1     -24.941  16.719 -15.590  1.00  0.00    -0.536 OA
HETATM   28  O3  UNL     1     -23.047  17.601 -14.813  1.00  0.00    -0.536 OA
ENDBRANCH  25  26
ENDBRANCH  18  19
ENDBRANCH   5  18
BRANCH   1  29
HETATM   29  C2  UNL     1     -18.983  24.146 -16.452  1.00  0.00    -0.027 C
HETATM   30  C1  UNL     1     -19.659  25.122 -17.046  1.00  0.00     0.007 C
ENDBRANCH   1  29
TORSDOF 4
ENDMDL