MODEL 5
REMARK VINA RESULT: -7.303919519      1.821      6.458
REMARK  9 active torsions:
REMARK  status: ('A' for Active; 'I' for Inactive)
REMARK    1  A    between atoms: C2_2  and  O1_3
REMARK    2  A    between atoms: O1_3  and  C3_4
REMARK    3  A    between atoms: C3_4  and  C4_6
REMARK    4  A    between atoms: C4_6  and  N1_7
REMARK    5  A    between atoms: N1_7  and  O3_8
REMARK    6  A    between atoms: N1_7  and  C5_10
REMARK    7  A    between atoms: C8_13  and  C9_15
REMARK    8  A    between atoms: C16_22  and  O4_23
REMARK    9  A    between atoms: O4_23  and  C17_24
ROOT
HETATM    1  C5  UNL     1     -17.760  20.880 -12.392  1.00  0.00     0.043 C
HETATM    2  C6  UNL     1     -18.270  22.010 -12.847  1.00  0.00    -0.015 C
HETATM    3  C7  UNL     1     -18.624  22.417 -14.231  1.00  0.00    -0.027 C
HETATM    4  C8  UNL     1     -19.534  21.737 -14.857  1.00  0.00     0.026 C
HETATM    5 CL1  UNL     1     -20.393  20.335 -14.101  1.00  0.00    -0.088 Cl
HETATM    6  C13 UNL     1     -17.912  23.658 -14.676  1.00  0.00     0.019 C
HETATM    7  C14 UNL     1     -16.681  23.381 -15.501  1.00  0.00     0.015 C
HETATM    8  C15 UNL     1     -17.298  24.285 -13.386  1.00  0.00     0.042 C
HETATM    9  C16 UNL     1     -18.269  24.356 -12.268  1.00  0.00     0.145 C
HETATM   10  C19 UNL     1     -18.395  22.965 -11.701  1.00  0.00     0.013 C
HETATM   11  C20 UNL     1     -19.774  22.849 -11.098  1.00  0.00     0.023 C
HETATM   12  C21 UNL     1     -17.385  22.511 -10.743  1.00  0.00     0.023 C
HETATM   13  C22 UNL     1     -17.571  20.981 -10.879  1.00  0.00     0.061 C
ENDROOT
BRANCH   1  14
HETATM   14  N1  UNL     1     -17.410  19.738 -13.149  1.00  0.00    -0.255 N
BRANCH  14  15
HETATM   15  C4  UNL     1     -18.191  18.548 -12.991  1.00  0.00     0.266 C
BRANCH  15  16
HETATM   16  C3  UNL     1     -17.504  17.455 -12.313  1.00  0.00     0.279 C
HETATM   17  O2  UNL     1     -16.276  17.552 -12.094  1.00  0.00    -0.263 OA
BRANCH  16  18
HETATM   18  O1  UNL     1     -18.156  16.315 -11.903  1.00  0.00    -0.321 OA
BRANCH  18  19
HETATM   19  C2  UNL     1     -19.538  16.060 -12.057  1.00  0.00     0.174 C
HETATM   20  C1  UNL     1     -19.933  14.946 -11.089  1.00  0.00     0.034 C
ENDBRANCH  18  19
ENDBRANCH  16  18
ENDBRANCH  15  16
ENDBRANCH  14  15
BRANCH  14  21
HETATM   21  O3  UNL     1     -16.449  19.728 -13.891  1.00  0.00    -0.287 OA
ATOM     22  H3  UNL     1     -16.574  19.564 -14.818  1.00  0.00     0.244 HD
ENDBRANCH  14  21
ENDBRANCH   1  14
BRANCH   4  23
HETATM   23  C9  UNL     1     -20.094  21.871 -16.198  1.00  0.00    -0.013 C
HETATM   24  C10 UNL     1     -21.264  20.870 -16.285  1.00  0.00     0.020 C
HETATM   25  C11 UNL     1     -19.041  21.242 -17.159  1.00  0.00     0.020 C
HETATM   26  C12 UNL     1     -20.422  23.163 -16.789  1.00  0.00     0.020 C
ENDBRANCH   4  23
BRANCH   9  27
HETATM   27  O4  UNL     1     -18.090  25.349 -11.331  1.00  0.00    -0.315 OA
BRANCH  27  28
HETATM   28  C17 UNL     1     -19.042  26.306 -11.013  1.00  0.00     0.255 C
HETATM   29  C18 UNL     1     -19.116  27.556 -11.780  1.00  0.00     0.126 C
HETATM   30  O5  UNL     1     -19.800  26.025 -10.061  1.00  0.00    -0.266 OA
ENDBRANCH  27  28
ENDBRANCH   9  27
TORSDOF 9
ENDMDL