MODEL 1
REMARK VINA RESULT: -7.109623636      0.000      0.000
REMARK  4 active torsions:
REMARK  status: ('A' for Active; 'I' for Inactive)
REMARK    1  A    between atoms: C6_7  and  C8_9
REMARK    2  A    between atoms: C8_9  and  O2_10
REMARK    3  A    between atoms: O2_10  and  C9_11
REMARK    4  A    between atoms: C18_22  and  O4_23
ROOT
HETATM    1  C1  UNL     1     -25.901  17.315 -15.720  1.00  0.00     0.019 C
HETATM    2  C2  UNL     1     -24.679  16.839 -15.775  1.00  0.00    -0.034 C
HETATM    3  C3  UNL     1     -23.711  16.463 -14.724  1.00  0.00     0.033 C
HETATM    4  C4  UNL     1     -23.991  16.706 -13.327  1.00  0.00     0.089 C
HETATM    5  C5  UNL     1     -22.704  16.350 -12.606  1.00  0.00     0.138 C
HETATM    6  O1  UNL     1     -22.674  16.559 -11.424  1.00  0.00    -0.297 OA
HETATM    7  C6  UNL     1     -21.545  15.779 -13.288  1.00  0.00     0.039 C
HETATM    8  C7  UNL     1     -21.725  14.251 -13.284  1.00  0.00     0.025 C
HETATM    9  C11 UNL     1     -21.321  16.282 -14.697  1.00  0.00     0.029 C
HETATM   10  C12 UNL     1     -22.401  17.144 -15.183  1.00  0.00    -0.027 C
HETATM   11  C13 UNL     1     -22.276  18.502 -14.461  1.00  0.00     0.016 C
HETATM   12  C14 UNL     1     -22.649  17.378 -16.561  1.00  0.00     0.052 C
HETATM   13  C15 UNL     1     -21.854  17.050 -17.716  1.00  0.00     0.051 C
HETATM   14  C16 UNL     1     -22.924  17.342 -18.784  1.00  0.00     0.097 C
HETATM   15  O3  UNL     1     -24.148  17.081 -18.142  1.00  0.00    -0.346 OA
HETATM   16  C17 UNL     1     -23.892  16.529 -16.961  1.00  0.00     0.166 C
HETATM   17 CL1  UNL     1     -23.497  14.803 -16.998  1.00  0.00    -0.083 Cl
HETATM   18  C18 UNL     1     -22.761  16.409 -19.962  1.00  0.00     0.156 C
HETATM   19  C20 UNL     1     -23.222  17.230 -21.171  1.00  0.00     0.036 C
HETATM   20  C21 UNL     1     -22.633  18.595 -20.853  1.00  0.00     0.014 C
HETATM   21  C22 UNL     1     -22.895  18.684 -19.365  1.00  0.00    -0.014 C
HETATM   22  C23 UNL     1     -21.998  19.718 -18.799  1.00  0.00     0.018 C
HETATM   23  C24 UNL     1     -24.319  19.270 -19.256  1.00  0.00     0.018 C
ENDROOT
BRANCH  18  24
HETATM   24  O4  UNL     1     -21.470  16.051 -20.245  1.00  0.00    -0.388 OA
HETATM   25  C19 UNL     1     -21.462  14.779 -20.804  1.00  0.00     0.202 C
ENDBRANCH  18  24
BRANCH   7  26
HETATM   26  C8  UNL     1     -20.308  16.087 -12.433  1.00  0.00     0.184 C
BRANCH  26  27
HETATM   27  O2  UNL     1     -19.407  16.878 -13.184  1.00  0.00    -0.390 OA
BRANCH  27  28
HETATM   28  C9  UNL     1     -18.260  17.135 -12.434  1.00  0.00     0.163 C
HETATM   29  C10 UNL     1     -17.649  18.460 -12.755  1.00  0.00     0.033 C
ENDBRANCH  27  28
ENDBRANCH  26  27
ENDBRANCH   7  26
TORSDOF 4
ENDMDL