MODEL 1
REMARK VINA RESULT: -7.153291440      0.000      0.000
REMARK  4 active torsions:
REMARK  status: ('A' for Active; 'I' for Inactive)
REMARK    1  A    between atoms: N5_15  and  C6_16
REMARK    2  A    between atoms: C7_17  and  C8_18
REMARK    3  A    between atoms: C8_18  and  C9_19
REMARK       I    between atoms: C9_19  and  N6_21
REMARK    4  A    between atoms: N6_21  and  N7_23
ROOT
HETATM    1  N1  UNL     1     -10.027 -29.036 -25.436  1.00  0.00    -0.383 N
ATOM      2  H11 UNL     1     -10.351 -29.592 -24.643  1.00  0.00     0.157 HD
ATOM      3  H12 UNL     1      -9.032 -28.900 -25.615  1.00  0.00     0.157 HD
HETATM    4  C1  UNL     1     -10.860 -28.481 -26.244  1.00  0.00     0.131 A
HETATM    5  N2  UNL     1     -10.434 -27.749 -27.286  1.00  0.00    -0.337 N
ATOM      6  H2  UNL     1      -9.434 -27.628 -27.442  1.00  0.00     0.168 HD
HETATM    7  C2  UNL     1     -11.321 -27.168 -28.133  1.00  0.00     0.183 A
HETATM    8  N3  UNL     1     -12.627 -27.356 -27.884  1.00  0.00    -0.336 N
ATOM      9  H3  UNL     1     -13.299 -26.921 -28.516  1.00  0.00     0.168 HD
HETATM   10  C3  UNL     1     -13.107 -28.077 -26.858  1.00  0.00     0.144 A
HETATM   11  C4  UNL     1     -12.221 -28.666 -25.999  1.00  0.00     0.122 A
HETATM   12  N4  UNL     1     -12.927 -29.319 -25.075  1.00  0.00    -0.346 N
ATOM     13  H4  UNL     1     -12.530 -29.855 -24.303  1.00  0.00     0.167 HD
HETATM   14  C5  UNL     1     -14.261 -29.161 -25.323  1.00  0.00     0.190 A
HETATM   15  N5  UNL     1     -14.371 -28.405 -26.410  1.00  0.00    -0.303 N
ENDROOT
BRANCH  15  16
HETATM   16  C6  UNL     1     -15.529 -27.894 -27.039  1.00  0.00     0.096 C
HETATM   17  C7  UNL     1     -16.629 -27.504 -26.538  1.00  0.00     0.000 C
BRANCH  17  18
HETATM   18  C8  UNL     1     -17.089 -27.454 -25.160  1.00  0.00     0.133 C
BRANCH  18  19
HETATM   19  C9  UNL     1     -16.498 -26.215 -24.469  1.00  0.00     0.238 C
HETATM   20  O1  UNL     1     -17.040 -25.140 -24.682  1.00  0.00    -0.272 OA
HETATM   21  N6  UNL     1     -15.376 -26.384 -23.635  1.00  0.00    -0.276 N
ATOM     22  H6  UNL     1     -14.959 -27.304 -23.490  1.00  0.00     0.189 HD
BRANCH  21  23
HETATM   23  N7  UNL     1     -14.853 -25.246 -23.014  1.00  0.00    -0.343 N
ATOM     24  H72 UNL     1     -15.345 -24.814 -22.232  1.00  0.00     0.176 HD
ATOM     25  H71 UNL     1     -13.973 -24.873 -23.372  1.00  0.00     0.176 HD
ENDBRANCH  21  23
ENDBRANCH  18  19
ENDBRANCH  17  18
ENDBRANCH  15  16
TORSDOF 4
ENDMDL