MODEL 1
REMARK VINA RESULT: -6.916935304      0.000      0.000
REMARK  4 active torsions:
REMARK  status: ('A' for Active; 'I' for Inactive)
REMARK    1  A    between atoms: C2_2  and  C3_3
REMARK    2  A    between atoms: C3_3  and  N1_4
REMARK    3  A    between atoms: N2_6  and  C5_8
REMARK    4  A    between atoms: C8_17  and  N6_18
ROOT
HETATM    1  N1  UNL     1     -15.746 -26.788 -25.225  1.00  0.00    -0.162 N
HETATM    2  C4  UNL     1     -14.767 -27.180 -26.061  1.00  0.00     0.689 A
HETATM    3  N2  UNL     1     -13.514 -26.932 -25.854  1.00  0.00    -0.161 N
ATOM      4  H2  UNL     1     -13.212 -26.417 -25.027  1.00  0.00     0.187 HD
HETATM    5  N5  UNL     1     -15.323 -27.844 -27.098  1.00  0.00    -0.184 N
ATOM      6  H5  UNL     1     -14.825 -28.258 -27.887  1.00  0.00     0.184 HD
HETATM    7  C7  UNL     1     -16.659 -27.861 -26.898  1.00  0.00     0.137 A
HETATM    8  C8  UNL     1     -17.709 -28.401 -27.637  1.00  0.00     0.131 A
HETATM    9  N7  UNL     1     -18.949 -28.235 -27.143  1.00  0.00    -0.337 N
ATOM     10  H7  UNL     1     -19.730 -28.623 -27.671  1.00  0.00     0.168 HD
HETATM   11  C9  UNL     1     -19.219 -27.592 -26.002  1.00  0.00     0.183 A
HETATM   12  N8  UNL     1     -18.214 -27.074 -25.290  1.00  0.00    -0.336 N
ATOM     13  H8  UNL     1     -18.411 -26.584 -24.418  1.00  0.00     0.168 HD
HETATM   14  C10 UNL     1     -16.937 -27.196 -25.717  1.00  0.00     0.156 A
ENDROOT
BRANCH   1  15
HETATM   15  C3  UNL     1     -15.569 -26.041 -23.983  1.00  0.00     0.176 C
BRANCH  15  16
HETATM   16  C2  UNL     1     -15.903 -24.610 -24.189  1.00  0.00    -0.016 C
HETATM   17  C1  UNL     1     -14.954 -23.658 -24.202  1.00  0.00     0.008 C
ENDBRANCH  15  16
ENDBRANCH   1  15
BRANCH   3  18
HETATM   18  C5  UNL     1     -12.550 -27.407 -26.828  1.00  0.00     0.192 A
HETATM   19  N3  UNL     1     -11.970 -26.958 -27.848  1.00  0.00    -0.346 N
HETATM   20  C6  UNL     1     -11.252 -28.152 -28.077  1.00  0.00     0.249 A
ATOM     21  H3  UNL     1     -12.005 -26.061 -28.333  1.00  0.00     0.164 HD
HETATM   22  N4  UNL     1     -11.915 -28.639 -26.924  1.00  0.00    -0.346 N
ATOM     23  H4  UNL     1     -11.922 -29.512 -26.396  1.00  0.00     0.164 HD
ENDBRANCH   3  18
BRANCH   8  24
HETATM   24  N6  UNL     1     -17.486 -29.024 -28.737  1.00  0.00    -0.383 N
ATOM     25  H62 UNL     1     -16.824 -29.797 -28.802  1.00  0.00     0.157 HD
ATOM     26  H61 UNL     1     -17.973 -28.762 -29.595  1.00  0.00     0.157 HD
ENDBRANCH   8  24
TORSDOF 4
ENDMDL