MODEL 3
REMARK VINA RESULT: -7.367127319      2.089      2.877
REMARK  4 active torsions:
REMARK  status: ('A' for Active; 'I' for Inactive)
REMARK       I    between atoms: C2_2  and  N1_4
REMARK    1  A    between atoms: N1_4  and  N2_6
REMARK    2  A    between atoms: C3_8  and  C5_11
REMARK    3  A    between atoms: C6_12  and  N4_13
REMARK    4  A    between atoms: C7_20  and  N7_21
ROOT
HETATM    1  N2  UNL     1     -13.928 -26.382 -25.292  1.00  0.00    -0.287 N
ATOM      2  H2  UNL     1     -13.209 -25.692 -25.512  1.00  0.00     0.188 HD
HETATM    3  C3  UNL     1     -13.878 -27.526 -25.852  1.00  0.00     0.146 C
HETATM    4  C4  UNL     1     -14.927 -28.480 -25.509  1.00  0.00     0.120 C
HETATM    5  N3  UNL     1     -15.771 -29.213 -25.216  1.00  0.00    -0.190 NA
ENDROOT
BRANCH   3   6
HETATM    6  C5  UNL     1     -12.864 -27.936 -26.794  1.00  0.00     0.099 A
HETATM    7  C6  UNL     1     -12.992 -28.378 -28.090  1.00  0.00     0.205 A
HETATM    8  N5  UNL     1     -11.709 -28.627 -28.509  1.00  0.00    -0.278 N
HETATM    9  N6  UNL     1     -10.865 -28.365 -27.567  1.00  0.00    -0.283 N
ATOM     10  H5  UNL     1     -11.457 -28.971 -29.436  1.00  0.00     0.189 HD
HETATM   11  C7  UNL     1     -11.489 -27.931 -26.463  1.00  0.00     0.131 A
ATOM     12  H6  UNL     1      -9.854 -28.475 -27.651  1.00  0.00     0.188 HD
BRANCH   7  13
HETATM   13  N4  UNL     1     -14.147 -28.558 -28.871  1.00  0.00    -0.095 N
HETATM   14  O2  UNL     1     -13.973 -28.703 -30.145  1.00  0.00    -0.530 OA
HETATM   15  O3  UNL     1     -15.440 -28.604 -28.485  1.00  0.00    -0.530 OA
ENDBRANCH   7  13
BRANCH  11  16
HETATM   16  N7  UNL     1     -10.946 -27.584 -25.342  1.00  0.00    -0.384 N
ATOM     17  H72 UNL     1     -11.282 -26.879 -24.686  1.00  0.00     0.157 HD
ATOM     18  H71 UNL     1     -10.093 -27.952 -24.921  1.00  0.00     0.157 HD
ENDBRANCH  11  16
ENDBRANCH   3   6
BRANCH   1  19
HETATM   19  N1  UNL     1     -14.935 -26.043 -24.389  1.00  0.00    -0.269 N
HETATM   20  C2  UNL     1     -15.214 -24.708 -24.019  1.00  0.00     0.232 C
HETATM   21  C1  UNL     1     -16.287 -24.392 -23.059  1.00  0.00     0.119 C
HETATM   22  O1  UNL     1     -14.538 -23.780 -24.514  1.00  0.00    -0.272 OA
ATOM     23  H1  UNL     1     -15.494 -26.791 -23.977  1.00  0.00     0.190 HD
ENDBRANCH   1  19
TORSDOF 4
ENDMDL