MODEL 4
REMARK VINA RESULT: -8.059296128      0.533      1.859
REMARK  5 active torsions:
REMARK  status: ('A' for Active; 'I' for Inactive)
REMARK    1  A    between atoms: C1_4  and  C2_6
REMARK    2  A    between atoms: C3_11  and  N5_12
REMARK    3  A    between atoms: N5_12  and  N6_14
REMARK    4  A    between atoms: C4_16  and  C5_17
REMARK    5  A    between atoms: N7_23  and  N8_24
ROOT
HETATM    1  C2  UNL     1     -11.540 -28.863 -25.749  1.00  0.00     0.201 A
HETATM    2  N3  UNL     1     -12.417 -29.743 -25.244  1.00  0.00    -0.266 N
ATOM      3  H3  UNL     1     -12.187 -30.530 -24.638  1.00  0.00     0.189 HD
HETATM    4  N4  UNL     1     -13.623 -29.419 -25.662  1.00  0.00    -0.127 N
ATOM      5  H4  UNL     1     -14.488 -29.910 -25.438  1.00  0.00     0.206 HD
HETATM    6  C3  UNL     1     -13.511 -28.337 -26.430  1.00  0.00     0.734 A
HETATM    7  N7  UNL     1     -12.227 -27.983 -26.492  1.00  0.00    -0.069 N
ENDROOT
BRANCH   6   8
HETATM    8  N5  UNL     1     -14.491 -27.753 -27.004  1.00  0.00    -0.129 N
ATOM      9  H5  UNL     1     -14.423 -27.674 -28.018  1.00  0.00     0.205 HD
BRANCH   8  10
HETATM   10  N6  UNL     1     -15.598 -27.228 -26.458  1.00  0.00    -0.297 N
HETATM   11  C4  UNL     1     -16.812 -27.499 -26.399  1.00  0.00     0.119 C
ATOM     12  H6  UNL     1     -15.387 -26.369 -25.951  1.00  0.00     0.186 HD
BRANCH  11  13
HETATM   13  C5  UNL     1     -17.556 -28.602 -26.957  1.00  0.00    -0.019 A
HETATM   14  C6  UNL     1     -18.253 -29.468 -26.184  1.00  0.00     0.013 A
HETATM   15  C7  UNL     1     -18.977 -30.539 -26.711  1.00  0.00     0.001 A
HETATM   16  C8  UNL     1     -18.985 -30.727 -28.068  1.00  0.00     0.000 A
HETATM   17  C9  UNL     1     -18.289 -29.870 -28.893  1.00  0.00     0.001 A
HETATM   18  C10 UNL     1     -17.589 -28.827 -28.336  1.00  0.00     0.013 A
ENDBRANCH  11  13
ENDBRANCH   8  10
ENDBRANCH   6   8
BRANCH   7  19
HETATM   19  N8  UNL     1     -11.644 -26.901 -27.189  1.00  0.00    -0.322 N
ATOM     20  H82 UNL     1     -11.032 -26.168 -26.830  1.00  0.00     0.178 HD
ATOM     21  H81 UNL     1     -11.774 -26.719 -28.185  1.00  0.00     0.178 HD
ENDBRANCH   7  19
BRANCH   1  22
HETATM   22  C1  UNL     1     -10.094 -28.872 -25.523  1.00  0.00     0.158 C
HETATM   23  N1  UNL     1      -9.517 -27.862 -24.964  1.00  0.00    -0.385 N
ATOM     24  H12 UNL     1      -8.508 -27.869 -24.807  1.00  0.00     0.157 HD
ATOM     25  H11 UNL     1     -10.064 -27.051 -24.676  1.00  0.00     0.157 HD
HETATM   26  N2  UNL     1      -9.331 -29.999 -25.924  1.00  0.00    -0.079 NA
ENDBRANCH   1  22
TORSDOF 5
ENDMDL