MODEL 4
REMARK VINA RESULT: -7.501425310      2.823      6.197
REMARK  3 active torsions:
REMARK  status: ('A' for Active; 'I' for Inactive)
REMARK    1  A    between atoms: N3_4  and  N4_6
REMARK    2  A    between atoms: N4_6  and  N5_8
REMARK    3  A    between atoms: C2_10  and  C3_11
ROOT
HETATM    1  C3  UNL     1     -14.627 -26.495 -25.321  1.00  0.00     0.051 A
HETATM    2  C4  UNL     1     -14.947 -27.373 -26.351  1.00  0.00     0.052 A
HETATM    3  C5  UNL     1     -13.818 -27.665 -27.077  1.00  0.00     0.078 A
HETATM    4  C6  UNL     1     -13.533 -28.448 -28.173  1.00  0.00     0.260 A
HETATM    5  O1  UNL     1     -14.457 -29.101 -28.724  1.00  0.00    -0.267 OA
HETATM    6  N6  UNL     1     -12.262 -28.521 -28.664  1.00  0.00    -0.319 N
ATOM      7  H6  UNL     1     -12.064 -29.104 -29.477  1.00  0.00     0.169 HD
HETATM    8  C7  UNL     1     -11.271 -27.827 -28.081  1.00  0.00     0.184 A
HETATM    9  N7  UNL     1     -11.563 -27.070 -27.016  1.00  0.00    -0.338 N
ATOM     10  H7  UNL     1     -10.804 -26.547 -26.580  1.00  0.00     0.168 HD
HETATM   11  C8  UNL     1     -12.802 -26.955 -26.483  1.00  0.00     0.122 A
HETATM   12  N8  UNL     1     -13.310 -26.267 -25.439  1.00  0.00    -0.340 N
ATOM     13  H8  UNL     1     -12.768 -25.658 -24.825  1.00  0.00     0.167 HD
ENDROOT
BRANCH   1  14
HETATM   14  C2  UNL     1     -15.556 -25.950 -24.330  1.00  0.00     0.138 C
HETATM   15  N5  UNL     1     -15.317 -26.145 -23.082  1.00  0.00    -0.295 N
ATOM     16  H5  UNL     1     -14.491 -26.671 -22.796  1.00  0.00     0.187 HD
BRANCH  15  17
HETATM   17  N4  UNL     1     -16.192 -25.634 -22.119  1.00  0.00    -0.241 N
ATOM     18  H4  UNL     1     -15.831 -25.292 -21.227  1.00  0.00     0.208 HD
BRANCH  17  19
HETATM   19  N3  UNL     1     -17.562 -25.594 -22.385  1.00  0.00    -0.261 N
HETATM   20  C1  UNL     1     -18.322 -26.585 -22.078  1.00  0.00     0.216 C
HETATM   21  N1  UNL     1     -17.741 -27.721 -21.462  1.00  0.00    -0.065 NA
HETATM   22  N2  UNL     1     -19.707 -26.531 -22.353  1.00  0.00    -0.065 NA
ATOM     23  H3  UNL     1     -17.966 -24.769 -22.828  1.00  0.00     0.190 HD
ENDBRANCH  17  19
ENDBRANCH  15  17
ENDBRANCH   1  14
TORSDOF 3
ENDMDL