MODEL 3
REMARK VINA RESULT: -7.106324171      2.381      4.374
REMARK  6 active torsions:
REMARK  status: ('A' for Active; 'I' for Inactive)
REMARK    1  A    between atoms: C2_2  and  C3_3
REMARK    2  A    between atoms: C3_3  and  N1_4
REMARK    3  A    between atoms: C4_5  and  N2_6
REMARK    4  A    between atoms: C7_14  and  N4_15
REMARK    5  A    between atoms: N4_15  and  N5_17
REMARK    6  A    between atoms: N5_17  and  O2_19
ROOT
HETATM    1  N1  UNL     1     -17.234 -28.207 -27.547  1.00  0.00    -0.164 N
HETATM    2  C4  UNL     1     -17.917 -27.698 -26.506  1.00  0.00     0.682 A
HETATM    3  N3  UNL     1     -17.273 -27.102 -25.462  1.00  0.00    -0.155 N
ATOM      4  H3  UNL     1     -17.820 -26.726 -24.687  1.00  0.00     0.187 HD
HETATM    5  C5  UNL     1     -15.931 -26.999 -25.433  1.00  0.00     0.277 A
HETATM    6  O1  UNL     1     -15.342 -26.448 -24.467  1.00  0.00    -0.266 OA
HETATM    7  C6  UNL     1     -15.216 -27.505 -26.474  1.00  0.00     0.122 A
HETATM    8  C7  UNL     1     -13.837 -27.413 -26.468  1.00  0.00     0.142 A
HETATM    9  N6  UNL     1     -13.197 -27.937 -27.532  1.00  0.00    -0.337 N
ATOM     10  H6  UNL     1     -12.178 -27.887 -27.564  1.00  0.00     0.168 HD
HETATM   11  C8  UNL     1     -13.849 -28.523 -28.556  1.00  0.00     0.183 A
HETATM   12  N7  UNL     1     -15.192 -28.612 -28.560  1.00  0.00    -0.337 N
ATOM     13  H7  UNL     1     -15.673 -29.058 -29.341  1.00  0.00     0.168 HD
HETATM   14  C9  UNL     1     -15.892 -28.112 -27.533  1.00  0.00     0.144 A
ENDROOT
BRANCH   8  15
HETATM   15  N4  UNL     1     -13.214 -26.851 -25.485  1.00  0.00    -0.265 N
ATOM     16  H4  UNL     1     -13.708 -26.589 -24.632  1.00  0.00     0.190 HD
BRANCH  15  17
HETATM   17  N5  UNL     1     -11.844 -26.611 -25.624  1.00  0.00    -0.208 N
ATOM     18  H5  UNL     1     -11.534 -25.717 -26.007  1.00  0.00     0.215 HD
BRANCH  17  19
HETATM   19  O2  UNL     1     -10.984 -27.464 -25.289  1.00  0.00    -0.274 OA
ATOM     20  H2  UNL     1     -10.074 -27.390 -25.554  1.00  0.00     0.246 HD
ENDBRANCH  17  19
ENDBRANCH  15  17
ENDBRANCH   8  15
BRANCH   1  21
HETATM   21  C3  UNL     1     -17.951 -28.840 -28.652  1.00  0.00     0.176 C
BRANCH  21  22
HETATM   22  C2  UNL     1     -18.387 -30.207 -28.274  1.00  0.00    -0.016 C
HETATM   23  C1  UNL     1     -18.352 -31.168 -29.177  1.00  0.00     0.008 C
ENDBRANCH  21  22
ENDBRANCH   1  21
BRANCH   2  24
HETATM   24  N2  UNL     1     -19.203 -27.794 -26.529  1.00  0.00    -0.234 N
ATOM     25  H22 UNL     1     -19.695 -28.081 -27.375  1.00  0.00     0.174 HD
ATOM     26  H21 UNL     1     -19.710 -27.572 -25.673  1.00  0.00     0.174 HD
ENDBRANCH   2  24
TORSDOF 6
ENDMDL