MODEL 4
REMARK VINA RESULT: -6.995838426      1.200      1.691
REMARK  4 active torsions:
REMARK  status: ('A' for Active; 'I' for Inactive)
REMARK    1  A    between atoms: N1_1  and  N2_4
REMARK    2  A    between atoms: C3_8  and  N3_9
REMARK    3  A    between atoms: N3_9  and  C4_11
REMARK    4  A    between atoms: C9_21  and  C10_22
ROOT
HETATM    1  N2  UNL     1     -10.358 -28.392 -26.383  1.00  0.00    -0.292 N
ATOM      2  H2  UNL     1      -9.799 -28.958 -27.021  1.00  0.00     0.188 HD
HETATM    3  C1  UNL     1     -11.578 -28.157 -26.702  1.00  0.00     0.124 A
HETATM    4  C2  UNL     1     -12.380 -27.398 -25.874  1.00  0.00     0.098 A
HETATM    5  C3  UNL     1     -13.698 -27.175 -26.270  1.00  0.00     0.106 A
HETATM    6  N5  UNL     1     -14.066 -27.725 -27.430  1.00  0.00    -0.326 N
ATOM      7  H5  UNL     1     -15.028 -27.568 -27.726  1.00  0.00     0.169 HD
HETATM    8  C9  UNL     1     -13.310 -28.454 -28.233  1.00  0.00     0.146 A
HETATM    9  N6  UNL     1     -12.033 -28.674 -27.856  1.00  0.00    -0.325 N
ATOM     10  H6  UNL     1     -11.415 -29.231 -28.445  1.00  0.00     0.169 HD
ENDROOT
BRANCH   5  11
HETATM   11  N3  UNL     1     -14.597 -26.409 -25.491  1.00  0.00    -0.371 N
ATOM     12  H3  UNL     1     -14.488 -25.397 -25.429  1.00  0.00     0.161 HD
BRANCH  11  13
HETATM   13  C4  UNL     1     -15.658 -27.060 -24.790  1.00  0.00     0.086 C
HETATM   14  C5  UNL     1     -16.956 -27.059 -25.576  1.00  0.00     0.052 C
HETATM   15  C6  UNL     1     -17.958 -27.831 -24.742  1.00  0.00     0.234 C
HETATM   16  N4  UNL     1     -18.240 -27.043 -23.560  1.00  0.00    -0.075 N
HETATM   17  C7  UNL     1     -17.300 -25.993 -23.324  1.00  0.00     0.234 C
ATOM     18  H42 UNL     1     -19.190 -26.672 -23.595  1.00  0.00     0.277 HD
ATOM     19  H41 UNL     1     -18.320 -27.644 -22.740  1.00  0.00     0.277 HD
HETATM   20  C8  UNL     1     -15.853 -26.421 -23.445  1.00  0.00     0.052 C
ENDBRANCH  11  13
ENDBRANCH   5  11
BRANCH   8  21
HETATM   21  C10 UNL     1     -13.861 -28.985 -29.469  1.00  0.00     0.307 C
HETATM   22  O1  UNL     1     -13.091 -29.349 -30.379  1.00  0.00    -0.298 OA
ENDBRANCH   8  21
BRANCH   1  23
HETATM   23  N1  UNL     1      -9.745 -27.928 -25.225  1.00  0.00    -0.344 N
ATOM     24  H12 UNL     1     -10.348 -27.780 -24.416  1.00  0.00     0.176 HD
ATOM     25  H11 UNL     1      -8.747 -27.730 -25.139  1.00  0.00     0.176 HD
ENDBRANCH   1  23
TORSDOF 4
ENDMDL