MODEL 5
REMARK VINA RESULT: -7.880034813      2.001      2.184
REMARK  6 active torsions:
REMARK  status: ('A' for Active; 'I' for Inactive)
REMARK    1  A    between atoms: N1_1  and  N2_4
REMARK       I    between atoms: N2_4  and  C1_6
REMARK    2  A    between atoms: C1_6  and  O2_8
REMARK    3  A    between atoms: O2_8  and  C2_9
REMARK    4  A    between atoms: C2_9  and  C3_10
REMARK    5  A    between atoms: C8_15  and  N3_16
REMARK    6  A    between atoms: N3_16  and  C9_18
ROOT
HETATM    1  C3  UNL     1     -15.703 -26.716 -25.241  1.00  0.00    -0.007 A
HETATM    2  C4  UNL     1     -16.911 -27.174 -25.699  1.00  0.00     0.011 A
HETATM    3  C5  UNL     1     -16.993 -27.942 -26.870  1.00  0.00     0.001 A
HETATM    4  C6  UNL     1     -15.898 -28.262 -27.596  1.00  0.00     0.002 A
HETATM    5  C7  UNL     1     -14.674 -27.808 -27.148  1.00  0.00     0.030 A
HETATM    6  C8  UNL     1     -14.579 -27.053 -25.998  1.00  0.00     0.057 A
ENDROOT
BRANCH   6   7
HETATM    7  N3  UNL     1     -13.326 -26.583 -25.531  1.00  0.00    -0.189 N
ATOM      8  H3  UNL     1     -13.284 -25.885 -24.787  1.00  0.00     0.184 HD
BRANCH   7   9
HETATM    9  C9  UNL     1     -12.232 -27.045 -26.055  1.00  0.00     0.714 A
HETATM   10  N4  UNL     1     -11.703 -26.790 -27.271  1.00  0.00    -0.115 N
HETATM   11  N5  UNL     1     -10.579 -27.458 -27.420  1.00  0.00    -0.213 N
ATOM     12  H4  UNL     1     -12.114 -26.171 -27.970  1.00  0.00     0.207 HD
HETATM   13  N6  UNL     1     -10.382 -28.140 -26.309  1.00  0.00    -0.213 N
ATOM     14  H5  UNL     1      -9.974 -27.449 -28.242  1.00  0.00     0.210 HD
HETATM   15  N7  UNL     1     -11.375 -27.908 -25.457  1.00  0.00    -0.115 N
ATOM     16  H6  UNL     1      -9.587 -28.753 -26.130  1.00  0.00     0.210 HD
ATOM     17  H7  UNL     1     -11.474 -28.306 -24.523  1.00  0.00     0.207 HD
ENDBRANCH   7   9
ENDBRANCH   6   7
BRANCH   1  18
HETATM   18  C2  UNL     1     -15.515 -25.879 -24.046  1.00  0.00     0.221 C
BRANCH  18  19
HETATM   19  O2  UNL     1     -15.523 -24.512 -24.241  1.00  0.00    -0.298 OA
BRANCH  19  20
HETATM   20  C1  UNL     1     -16.510 -23.615 -23.940  1.00  0.00     0.379 C
HETATM   21  N2  UNL     1     -17.155 -23.640 -22.668  1.00  0.00    -0.252 N
ATOM     22  H2  UNL     1     -16.875 -24.336 -21.977  1.00  0.00     0.191 HD
HETATM   23  O1  UNL     1     -16.835 -22.761 -24.824  1.00  0.00    -0.237 OA
BRANCH  21  24
HETATM   24  N1  UNL     1     -18.168 -22.724 -22.351  1.00  0.00    -0.341 N
ATOM     25  H12 UNL     1     -18.569 -22.750 -21.414  1.00  0.00     0.177 HD
ATOM     26  H11 UNL     1     -18.499 -22.046 -23.036  1.00  0.00     0.177 HD
ENDBRANCH  21  24
ENDBRANCH  19  20
ENDBRANCH  18  19
ENDBRANCH   1  18
TORSDOF 6
ENDMDL