MODEL 5
REMARK VINA RESULT: -6.835620702      1.997      3.272
REMARK  2 active torsions:
REMARK  status: ('A' for Active; 'I' for Inactive)
REMARK       I    between atoms: C1_2  and  N2_4
REMARK    1  A    between atoms: C6_15  and  N6_16
REMARK    2  A    between atoms: N6_16  and  C7_18
ROOT
HETATM    1  N1  UNL     1     -11.606 -28.247 -29.060  1.00  0.00    -0.038 NA
HETATM    2  C1  UNL     1     -12.993 -28.305 -28.814  1.00  0.00     0.355 C
HETATM    3  O1  UNL     1     -13.745 -28.819 -29.662  1.00  0.00    -0.249 OA
HETATM    4  N2  UNL     1     -13.519 -27.780 -27.612  1.00  0.00    -0.188 N
HETATM    5  N3  UNL     1     -12.999 -27.179 -26.529  1.00  0.00    -0.283 N
ATOM      6  H3  UNL     1     -12.059 -26.913 -26.234  1.00  0.00     0.188 HD
HETATM    7  C2  UNL     1     -14.224 -27.074 -25.995  1.00  0.00     0.124 A
HETATM    8  C3  UNL     1     -15.091 -26.692 -24.992  1.00  0.00     0.096 A
HETATM    9  N4  UNL     1     -14.852 -26.092 -23.837  1.00  0.00    -0.348 N
ATOM     10  H4  UNL     1     -13.937 -25.803 -23.491  1.00  0.00     0.167 HD
HETATM   11  C4  UNL     1     -16.043 -25.926 -23.189  1.00  0.00     0.181 A
HETATM   12  N5  UNL     1     -17.027 -26.437 -23.969  1.00  0.00    -0.347 N
ATOM     13  H5  UNL     1     -18.023 -26.456 -23.748  1.00  0.00     0.167 HD
HETATM   14  C5  UNL     1     -16.446 -26.920 -25.102  1.00  0.00     0.107 A
HETATM   15  C6  UNL     1     -16.961 -27.538 -26.219  1.00  0.00     0.138 A
HETATM   16  N7  UNL     1     -16.112 -27.901 -27.178  1.00  0.00    -0.323 N
ATOM     17  H7  UNL     1     -16.483 -28.359 -28.011  1.00  0.00     0.169 HD
HETATM   18  C8  UNL     1     -14.777 -27.689 -27.097  1.00  0.00     0.164 A
ENDROOT
BRANCH  15  19
HETATM   19  N6  UNL     1     -18.375 -27.763 -26.306  1.00  0.00    -0.318 N
ATOM     20  H6  UNL     1     -18.947 -27.095 -26.821  1.00  0.00     0.169 HD
BRANCH  19  21
HETATM   21  C7  UNL     1     -19.001 -28.871 -25.706  1.00  0.00     0.354 C
HETATM   22  O2  UNL     1     -19.079 -28.943 -24.440  1.00  0.00    -0.283 OA
ENDBRANCH  19  21
ENDBRANCH  15  19
TORSDOF 2
ENDMDL