MODEL 5
REMARK VINA RESULT: -6.620305704      1.963      2.354
REMARK  5 active torsions:
REMARK  status: ('A' for Active; 'I' for Inactive)
REMARK    1  A    between atoms: N1_1  and  C1_4
REMARK    2  A    between atoms: C4_12  and  C5_13
REMARK    3  A    between atoms: C5_13  and  C6_14
REMARK    4  A    between atoms: C6_14  and  C7_16
REMARK    5  A    between atoms: C7_16  and  N4_17
ROOT
HETATM    1  C1  UNL     1     -18.924 -27.623 -26.140  1.00  0.00     0.147 A
HETATM    2  N2  UNL     1     -18.475 -28.286 -27.213  1.00  0.00    -0.302 N
ATOM      3  H2  UNL     1     -19.173 -28.738 -27.804  1.00  0.00     0.171 HD
HETATM    4  C2  UNL     1     -17.203 -28.411 -27.581  1.00  0.00     0.277 A
HETATM    5  O1  UNL     1     -16.997 -29.093 -28.649  1.00  0.00    -0.266 OA
HETATM    6  C3  UNL     1     -16.091 -27.898 -26.956  1.00  0.00     0.136 A
HETATM    7  N3  UNL     1     -14.754 -27.980 -27.268  1.00  0.00    -0.339 N
ATOM      8  H3  UNL     1     -14.386 -28.477 -28.078  1.00  0.00     0.167 HD
HETATM    9  C4  UNL     1     -14.005 -27.335 -26.392  1.00  0.00     0.089 A
HETATM   10  N5  UNL     1     -14.855 -26.812 -25.475  1.00  0.00    -0.338 N
ATOM     11  H5  UNL     1     -14.580 -26.256 -24.665  1.00  0.00     0.168 HD
HETATM   12  C8  UNL     1     -16.118 -27.142 -25.801  1.00  0.00     0.111 A
HETATM   13  S1  UNL     1     -17.710 -26.894 -25.199  1.00  0.00    -0.034 SA
ENDROOT
BRANCH   9  14
HETATM   14  C5  UNL     1     -12.546 -27.203 -26.394  1.00  0.00     0.156 C
BRANCH  14  15
HETATM   15  C6  UNL     1     -11.833 -28.467 -26.110  1.00  0.00     0.159 C
HETATM   16  O2  UNL     1     -12.365 -29.499 -25.759  1.00  0.00    -0.296 OA
BRANCH  15  17
HETATM   17  C7  UNL     1     -10.351 -28.471 -26.266  1.00  0.00     0.307 C
BRANCH  17  18
HETATM   18  N4  UNL     1      -9.678 -27.999 -25.070  1.00  0.00    -0.073 N
ATOM     19  H43 UNL     1      -9.028 -28.698 -24.709  1.00  0.00     0.274 HD
ATOM     20  H42 UNL     1      -9.011 -27.258 -25.288  1.00  0.00     0.274 HD
ATOM     21  H41 UNL     1     -10.339 -27.703 -24.351  1.00  0.00     0.274 HD
ENDBRANCH  17  18
ENDBRANCH  15  17
ENDBRANCH  14  15
ENDBRANCH   9  14
BRANCH   1  22
HETATM   22  N1  UNL     1     -20.178 -27.558 -25.864  1.00  0.00    -0.380 N
ATOM     23  H12 UNL     1     -20.690 -26.682 -25.760  1.00  0.00     0.158 HD
ATOM     24  H11 UNL     1     -20.742 -28.398 -25.733  1.00  0.00     0.158 HD
ENDBRANCH   1  22
TORSDOF 5
ENDMDL