MODEL 5
REMARK VINA RESULT: -5.876584989      2.437      4.466
REMARK  4 active torsions:
REMARK  status: ('A' for Active; 'I' for Inactive)
REMARK    1  A    between atoms: N1_1  and  C1_4
REMARK    2  A    between atoms: N7_16  and  C4_17
REMARK    3  A    between atoms: C4_17  and  O1_18
REMARK    4  A    between atoms: O1_18  and  N8_19
ROOT
HETATM    1  C1  UNL     1      54.725 -12.748  28.743  1.00  0.00     0.714 A
HETATM    2  N2  UNL     1      53.997 -13.875  28.822  1.00  0.00    -0.185 N
ATOM      3  H2  UNL     1      54.410 -14.770  28.558  1.00  0.00     0.185 HD
HETATM    4  C2  UNL     1      52.727 -13.821  29.248  1.00  0.00     0.215 A
HETATM    5  N3  UNL     1      52.185 -12.636  29.594  1.00  0.00    -0.183 N
ATOM      6  H3  UNL     1      51.218 -12.602  29.917  1.00  0.00     0.185 HD
HETATM    7  C3  UNL     1      52.906 -11.482  29.522  1.00  0.00     0.741 A
HETATM    8  N4  UNL     1      54.175 -11.545  29.095  1.00  0.00     0.107 N
HETATM    9  N5  UNL     1      54.640 -10.316  29.117  1.00  0.00    -0.191 N
ATOM     10  H5  UNL     1      55.585 -10.043  28.844  1.00  0.00     0.211 HD
HETATM   11  N6  UNL     1      53.716  -9.497  29.537  1.00  0.00    -0.208 N
ATOM     12  H6  UNL     1      53.814  -8.488  29.648  1.00  0.00     0.210 HD
HETATM   13  N7  UNL     1      52.641 -10.198  29.791  1.00  0.00    -0.079 N
ENDROOT
BRANCH  13  14
HETATM   14  C4  UNL     1      51.345  -9.718  30.286  1.00  0.00     0.369 C
BRANCH  14  15
HETATM   15  O1  UNL     1      51.180  -8.361  29.990  1.00  0.00    -0.265 OA
BRANCH  15  16
HETATM   16  N8  UNL     1      50.692  -8.288  28.742  1.00  0.00    -0.309 N
ATOM     17  H82 UNL     1      49.705  -8.226  28.491  1.00  0.00     0.184 HD
ATOM     18  H81 UNL     1      51.490  -8.305  28.108  1.00  0.00     0.184 HD
ENDBRANCH  15  16
ENDBRANCH  14  15
ENDBRANCH  13  14
BRANCH   1  19
HETATM   19  N1  UNL     1      55.954 -12.804  28.331  1.00  0.00    -0.232 N
ATOM     20  H12 UNL     1      56.417 -11.961  27.990  1.00  0.00     0.174 HD
ATOM     21  H11 UNL     1      56.453 -13.694  28.347  1.00  0.00     0.174 HD
ENDBRANCH   1  19
TORSDOF 4
ENDMDL