MODEL 4
REMARK VINA RESULT: -6.087643211      1.956      2.400
REMARK  6 active torsions:
REMARK  status: ('A' for Active; 'I' for Inactive)
REMARK    1  A    between atoms: N1_1  and  N2_4
REMARK    2  A    between atoms: N2_4  and  C1_6
REMARK    3  A    between atoms: C1_6  and  O1_7
REMARK    4  A    between atoms: C1_6  and  N3_9
REMARK    5  A    between atoms: N3_9  and  N4_10
REMARK    6  A    between atoms: N3_9  and  C2_13
ROOT
HETATM    1  N3  UNL     1      52.721 -10.474  28.079  1.00  0.00    -0.051 N
ENDROOT
BRANCH   1   2
HETATM    2  C1  UNL     1      53.328  -9.398  28.734  1.00  0.00     0.273 C
BRANCH   2   3
HETATM    3  N2  UNL     1      54.234  -8.465  28.241  1.00  0.00    -0.270 N
ATOM      4  H2  UNL     1      55.231  -8.576  28.423  1.00  0.00     0.190 HD
BRANCH   3   5
HETATM    5  N1  UNL     1      53.775  -7.371  27.492  1.00  0.00    -0.342 N
ATOM      6  H12 UNL     1      53.972  -7.337  26.492  1.00  0.00     0.176 HD
ATOM      7  H11 UNL     1      53.253  -6.624  27.950  1.00  0.00     0.176 HD
ENDBRANCH   3   5
ENDBRANCH   2   3
BRANCH   2   8
HETATM    8  O1  UNL     1      53.015  -9.212  29.993  1.00  0.00    -0.330 OA
ATOM      9  H1  UNL     1      52.264  -9.719  30.278  1.00  0.00     0.221 HD
ENDBRANCH   2   8
ENDBRANCH   1   2
BRANCH   1  10
HETATM   10  N4  UNL     1      51.586 -10.165  27.242  1.00  0.00    -0.321 N
ATOM     11  H42 UNL     1      51.106  -9.281  27.411  1.00  0.00     0.178 HD
ATOM     12  H41 UNL     1      51.367 -10.834  26.502  1.00  0.00     0.178 HD
ENDBRANCH   1  10
BRANCH   1  13
HETATM   13  C2  UNL     1      53.069 -11.806  28.209  1.00  0.00     0.714 C
HETATM   14  N5  UNL     1      53.969 -12.133  29.116  1.00  0.00    -0.222 N
HETATM   15  C3  UNL     1      54.340 -13.533  29.260  1.00  0.00     0.156 C
ATOM     16  H5  UNL     1      54.398 -11.419  29.706  1.00  0.00     0.177 HD
HETATM   17  C4  UNL     1      53.106 -14.424  29.169  1.00  0.00     0.155 C
HETATM   18  N6  UNL     1      52.236 -14.071  28.093  1.00  0.00    -0.125 NA
HETATM   19  N7  UNL     1      52.623 -12.910  27.440  1.00  0.00    -0.135 N
ATOM     20  H7  UNL     1      52.587 -12.851  26.423  1.00  0.00     0.201 HD
ENDBRANCH   1  13
TORSDOF 6
ENDMDL