MODEL 1
REMARK VINA RESULT: -6.980111357      0.000      0.000
REMARK  5 active torsions:
REMARK  status: ('A' for Active; 'I' for Inactive)
REMARK    1  A    between atoms: N1_1  and  N2_4
REMARK    2  A    between atoms: N3_8  and  O1_9
REMARK    3  A    between atoms: C3_13  and  C4_14
REMARK    4  A    between atoms: C4_14  and  N5_15
REMARK    5  A    between atoms: C4_14  and  O2_19
ROOT
HETATM    1  N2  UNL     1      53.728 -11.197  29.764  1.00  0.00    -0.291 N
ATOM      2  H2  UNL     1      53.514 -11.783  30.571  1.00  0.00     0.188 HD
HETATM    3  C1  UNL     1      52.898 -10.288  29.400  1.00  0.00     0.140 A
HETATM    4  C2  UNL     1      51.710 -10.064  30.061  1.00  0.00     0.193 A
HETATM    5  N3  UNL     1      50.840  -9.114  29.683  1.00  0.00    -0.170 N
HETATM    6  N4  UNL     1      51.160  -8.379  28.633  1.00  0.00    -0.259 N
ATOM      7  H4  UNL     1      50.521  -7.648  28.318  1.00  0.00     0.191 HD
HETATM    8  C3  UNL     1      52.320  -8.580  27.968  1.00  0.00     0.156 A
HETATM    9  N6  UNL     1      53.203  -9.531  28.338  1.00  0.00    -0.325 N
ATOM     10  H6  UNL     1      54.073  -9.670  27.825  1.00  0.00     0.169 HD
ENDROOT
BRANCH   8  11
HETATM   11  C4  UNL     1      52.652  -7.725  26.779  1.00  0.00     0.386 C
BRANCH  11  12
HETATM   12  N5  UNL     1      51.568  -6.807  26.487  1.00  0.00    -0.046 N
ATOM     13  H53 UNL     1      50.751  -7.293  26.120  1.00  0.00     0.277 HD
ATOM     14  H52 UNL     1      51.153  -6.429  27.339  1.00  0.00     0.277 HD
ATOM     15  H51 UNL     1      51.880  -6.067  25.859  1.00  0.00     0.277 HD
ENDBRANCH  11  12
BRANCH  11  16
HETATM   16  O2  UNL     1      53.828  -7.027  26.967  1.00  0.00    -0.364 OA
ATOM     17  H2  UNL     1      53.667  -6.152  27.300  1.00  0.00     0.212 HD
ENDBRANCH  11  16
ENDBRANCH   8  11
BRANCH   5  18
HETATM   18  O1  UNL     1      49.644  -8.908  30.369  1.00  0.00    -0.268 OA
ATOM     19  H1  UNL     1      48.977  -8.320  30.036  1.00  0.00     0.247 HD
ENDBRANCH   5  18
BRANCH   1  20
HETATM   20  N1  UNL     1      54.920 -11.390  29.066  1.00  0.00    -0.344 N
ATOM     21  H12 UNL     1      55.376 -10.582  28.642  1.00  0.00     0.176 HD
ATOM     22  H11 UNL     1      55.327 -12.321  28.983  1.00  0.00     0.176 HD
ENDBRANCH   1  20
TORSDOF 5
ENDMDL