MODEL 5
REMARK VINA RESULT: -5.977351581      1.739      4.285
REMARK  3 active torsions:
REMARK  status: ('A' for Active; 'I' for Inactive)
REMARK    1  A    between atoms: N1_1  and  O1_4
REMARK    2  A    between atoms: O1_4  and  N2_5
REMARK    3  A    between atoms: C1_7  and  C2_8
ROOT
HETATM    1  C2  UNL     1      52.586 -10.045  27.785  1.00  0.00     0.130 A
HETATM    2  N3  UNL     1      53.606 -10.101  28.687  1.00  0.00    -0.293 N
ATOM      3  H3  UNL     1      53.994  -9.234  29.060  1.00  0.00     0.172 HD
HETATM    4  C3  UNL     1      54.108 -11.273  29.090  1.00  0.00     0.329 A
HETATM    5  O2  UNL     1      55.043 -11.347  29.915  1.00  0.00    -0.246 OA
HETATM    6  N4  UNL     1      53.597 -12.413  28.600  1.00  0.00    -0.260 N
ATOM      7  H4  UNL     1      53.974 -13.311  28.903  1.00  0.00     0.175 HD
HETATM    8  C4  UNL     1      52.588 -12.374  27.709  1.00  0.00     0.329 A
HETATM    9  O3  UNL     1      52.115 -13.462  27.253  1.00  0.00    -0.246 OA
HETATM   10  N5  UNL     1      52.086 -11.198  27.304  1.00  0.00    -0.293 N
ATOM     11  H5  UNL     1      51.322 -11.177  26.628  1.00  0.00     0.172 HD
ENDROOT
BRANCH   1  12
HETATM   12  C1  UNL     1      52.041  -8.773  27.346  1.00  0.00     0.165 C
HETATM   13  N2  UNL     1      51.436  -8.013  28.166  1.00  0.00    -0.250 N
ATOM     14  H2  UNL     1      51.071  -7.130  27.808  1.00  0.00     0.196 HD
BRANCH  13  15
HETATM   15  O1  UNL     1      51.239  -8.286  29.476  1.00  0.00    -0.164 OA
BRANCH  15  16
HETATM   16  N1  UNL     1      50.198  -9.044  29.966  1.00  0.00    -0.286 N
ATOM     17  H12 UNL     1      49.876  -9.813  29.380  1.00  0.00     0.186 HD
ATOM     18  H11 UNL     1      49.740  -8.883  30.863  1.00  0.00     0.186 HD
ENDBRANCH  15  16
ENDBRANCH  13  15
ENDBRANCH   1  12
TORSDOF 3
ENDMDL