MODEL 3
REMARK VINA RESULT: -5.438426241      1.492      1.857
REMARK  5 active torsions:
REMARK  status: ('A' for Active; 'I' for Inactive)
REMARK    1  A    between atoms: N1_1  and  C1_5
REMARK    2  A    between atoms: C1_5  and  N2_6
REMARK    3  A    between atoms: C1_5  and  C2_10
REMARK    4  A    between atoms: C2_10  and  O2_12
REMARK    5  A    between atoms: O2_12  and  C3_13
ROOT
HETATM    1  C2  UNL     1      52.209  -9.818  28.029  1.00  0.00     0.319 C
HETATM    2  O1  UNL     1      52.313 -10.216  26.852  1.00  0.00    -0.261 OA
ENDROOT
BRANCH   1   3
HETATM    3  C1  UNL     1      52.610  -8.413  28.320  1.00  0.00     0.475 C
BRANCH   3   4
HETATM    4  N1  UNL     1      52.322  -8.166  29.723  1.00  0.00    -0.041 N
ATOM      5  H13 UNL     1      51.400  -7.748  29.848  1.00  0.00     0.277 HD
ATOM      6  H12 UNL     1      52.169  -9.036  30.232  1.00  0.00     0.277 HD
ATOM      7  H11 UNL     1      53.052  -7.601  30.157  1.00  0.00     0.277 HD
ENDBRANCH   3   4
BRANCH   3   8
HETATM    8  N2  UNL     1      54.030  -8.213  28.027  1.00  0.00    -0.041 N
ATOM      9  H23 UNL     1      54.177  -7.406  27.420  1.00  0.00     0.277 HD
ATOM     10  H22 UNL     1      54.539  -7.886  28.848  1.00  0.00     0.277 HD
ATOM     11  H21 UNL     1      54.450  -9.057  27.636  1.00  0.00     0.277 HD
ENDBRANCH   3   8
ENDBRANCH   1   3
BRANCH   1  12
HETATM   12  O2  UNL     1      51.736 -10.697  28.968  1.00  0.00    -0.283 OA
BRANCH  12  13
HETATM   13  C3  UNL     1      52.407 -11.792  29.494  1.00  0.00     0.355 C
HETATM   14  C4  UNL     1      52.071 -13.113  28.880  1.00  0.00     0.293 C
HETATM   15  N3  UNL     1      52.983 -14.095  29.493  1.00  0.00    -0.070 N
HETATM   16  C5  UNL     1      54.271 -13.879  28.836  1.00  0.00     0.260 C
ATOM     17  H32 UNL     1      53.025 -14.040  30.511  1.00  0.00     0.277 HD
ATOM     18  H31 UNL     1      52.650 -15.057  29.441  1.00  0.00     0.277 HD
HETATM   19  C6  UNL     1      54.497 -12.432  28.488  1.00  0.00     0.262 C
HETATM   20  N4  UNL     1      53.829 -11.586  29.435  1.00  0.00    -0.045 N
ATOM     21  H42 UNL     1      54.044 -10.605  29.255  1.00  0.00     0.280 HD
ATOM     22  H41 UNL     1      54.245 -11.684  30.362  1.00  0.00     0.280 HD
ENDBRANCH  12  13
ENDBRANCH   1  12
TORSDOF 5
ENDMDL