MODEL 4
REMARK VINA RESULT: -5.527573650      1.521      2.237
REMARK  5 active torsions:
REMARK  status: ('A' for Active; 'I' for Inactive)
REMARK    1  A    between atoms: N1_1  and  C1_4
REMARK    2  A    between atoms: N3_8  and  C3_9
REMARK    3  A    between atoms: C4_10  and  N4_11
REMARK    4  A    between atoms: N4_11  and  N5_12
REMARK    5  A    between atoms: N4_11  and  N6_15
ROOT
HETATM    1  C1  UNL     1      53.231  -8.581  28.213  1.00  0.00     0.680 A
HETATM    2  N2  UNL     1      54.250  -9.003  28.973  1.00  0.00    -0.187 N
ATOM      3  H2  UNL     1      54.927  -8.328  29.331  1.00  0.00     0.185 HD
HETATM    4  C2  UNL     1      54.388 -10.300  29.269  1.00  0.00     0.210 A
HETATM    5  N3  UNL     1      53.486 -11.213  28.795  1.00  0.00    -0.269 N
HETATM    6  C5  UNL     1      52.473 -10.776  28.037  1.00  0.00     0.345 A
HETATM    7  O1  UNL     1      51.585 -11.530  27.548  1.00  0.00    -0.246 OA
HETATM    8  N7  UNL     1      52.330  -9.449  27.733  1.00  0.00    -0.141 N
ATOM      9  H7  UNL     1      51.553  -9.128  27.154  1.00  0.00     0.189 HD
ENDROOT
BRANCH   5  10
HETATM   10  C3  UNL     1      53.672 -12.563  29.132  1.00  0.00     0.123 C
HETATM   11  C4  UNL     1      54.426 -13.468  28.586  1.00  0.00     0.153 C
BRANCH  11  12
HETATM   12  N4  UNL     1      54.455 -14.806  29.110  1.00  0.00    -0.220 N
BRANCH  12  13
HETATM   13  N5  UNL     1      53.239 -15.445  29.303  1.00  0.00    -0.325 N
ATOM     14  H52 UNL     1      52.481 -15.303  28.634  1.00  0.00     0.178 HD
ATOM     15  H51 UNL     1      53.146 -16.047  30.121  1.00  0.00     0.178 HD
ENDBRANCH  12  13
BRANCH  12  16
HETATM   16  N6  UNL     1      55.635 -15.464  29.424  1.00  0.00    -0.325 N
ATOM     17  H62 UNL     1      55.618 -16.247  30.078  1.00  0.00     0.178 HD
ATOM     18  H61 UNL     1      56.536 -15.201  29.027  1.00  0.00     0.178 HD
ENDBRANCH  12  16
ENDBRANCH  11  12
ENDBRANCH   5  10
BRANCH   1  19
HETATM   19  N1  UNL     1      53.087  -7.329  27.921  1.00  0.00    -0.234 N
ATOM     20  H12 UNL     1      53.355  -6.638  28.623  1.00  0.00     0.174 HD
ATOM     21  H11 UNL     1      52.716  -7.037  27.016  1.00  0.00     0.174 HD
ENDBRANCH   1  19
TORSDOF 5
ENDMDL