MODEL 4
REMARK VINA RESULT: -6.153104766      1.821      4.699
REMARK  1 active torsions:
REMARK  status: ('A' for Active; 'I' for Inactive)
REMARK    1  A    between atoms: N3_5  and  N4_6
ROOT
HETATM    1  N1  UNL     1      52.875 -14.279  29.424  1.00  0.00    -0.062 NA
HETATM    2  C1  UNL     1      52.740 -13.001  28.780  1.00  0.00     0.212 A
HETATM    3  N2  UNL     1      52.794 -11.808  29.369  1.00  0.00    -0.247 N
ATOM      4  H2  UNL     1      52.942 -11.681  30.371  1.00  0.00     0.192 HD
HETATM    5  N3  UNL     1      52.636 -10.807  28.523  1.00  0.00    -0.131 N
HETATM    6  C4  UNL     1      52.471 -11.417  27.316  1.00  0.00     0.363 A
HETATM    7  O2  UNL     1      52.286 -10.799  26.215  1.00  0.00    -0.243 OA
HETATM    8  N6  UNL     1      52.533 -12.752  27.463  1.00  0.00    -0.279 N
ATOM      9  H6  UNL     1      52.442 -13.448  26.723  1.00  0.00     0.173 HD
ENDROOT
BRANCH   5  10
HETATM   10  N4  UNL     1      52.633  -9.442  28.766  1.00  0.00    -0.199 N
HETATM   11  C2  UNL     1      53.354  -8.326  28.182  1.00  0.00     0.282 C
HETATM   12  N5  UNL     1      52.363  -7.437  28.774  1.00  0.00    -0.323 N
HETATM   13  C3  UNL     1      51.991  -8.515  29.619  1.00  0.00     0.341 C
ATOM     14  H5  UNL     1      52.067  -6.470  28.640  1.00  0.00     0.166 HD
HETATM   15  O1  UNL     1      51.347  -8.577  30.690  1.00  0.00    -0.245 OA
ENDBRANCH   5  10
TORSDOF 1
ENDMDL