MODEL 2
REMARK VINA RESULT: -5.952899219      2.959      3.983
REMARK  4 active torsions:
REMARK  status: ('A' for Active; 'I' for Inactive)
REMARK    1  A    between atoms: N1_1  and  C1_4
REMARK    2  A    between atoms: C2_9  and  S1_10
REMARK    3  A    between atoms: S1_10  and  N4_11
REMARK    4  A    between atoms: N5_16  and  N6_17
ROOT
HETATM    1  C1  UNL     1      52.304 -11.863  28.416  1.00  0.00     0.713 A
HETATM    2  N2  UNL     1      52.194 -11.846  27.085  1.00  0.00    -0.128 N
ATOM      3  H2  UNL     1      52.024 -12.652  26.483  1.00  0.00     0.205 HD
HETATM    4  N3  UNL     1      52.342 -10.603  26.697  1.00  0.00    -0.258 N
ATOM      5  H3  UNL     1      52.304 -10.296  25.725  1.00  0.00     0.190 HD
HETATM    6  C2  UNL     1      52.550  -9.787  27.742  1.00  0.00     0.276 A
HETATM    7  N5  UNL     1      52.522 -10.600  28.807  1.00  0.00    -0.061 N
ENDROOT
BRANCH   6   8
HETATM    8  S1  UNL     1      52.798  -8.053  27.678  1.00  0.00     0.292 S
HETATM    9  O1  UNL     1      52.215  -7.482  26.405  1.00  0.00    -0.198 OA
HETATM   10  O2  UNL     1      52.165  -7.372  28.872  1.00  0.00    -0.198 OA
BRANCH   8  11
HETATM   11  N4  UNL     1      54.484  -7.771  27.718  1.00  0.00    -0.322 N
ATOM     12  H42 UNL     1      55.092  -7.931  28.521  1.00  0.00     0.169 HD
ATOM     13  H41 UNL     1      54.759  -7.417  26.801  1.00  0.00     0.169 HD
ENDBRANCH   8  11
ENDBRANCH   6   8
BRANCH   7  14
HETATM   14  N6  UNL     1      52.696 -10.177  30.126  1.00  0.00    -0.322 N
ATOM     15  H62 UNL     1      53.371 -10.581  30.776  1.00  0.00     0.178 HD
ATOM     16  H61 UNL     1      52.177  -9.426  30.582  1.00  0.00     0.178 HD
ENDBRANCH   7  14
BRANCH   1  17
HETATM   17  N1  UNL     1      52.217 -12.923  29.201  1.00  0.00    -0.231 N
ATOM     18  H12 UNL     1      51.424 -13.173  29.792  1.00  0.00     0.174 HD
ATOM     19  H11 UNL     1      52.927 -13.644  29.331  1.00  0.00     0.174 HD
ENDBRANCH   1  17
TORSDOF 4
ENDMDL