MODEL 4
REMARK VINA RESULT: -6.159578487      1.742      2.363
REMARK  3 active torsions:
REMARK  status: ('A' for Active; 'I' for Inactive)
REMARK    1  A    between atoms: C2_2  and  C3_3
REMARK    2  A    between atoms: C5_14  and  N6_15
REMARK    3  A    between atoms: N6_15  and  N7_17
ROOT
HETATM    1  C1  UNL     1      52.423 -13.417  27.462  1.00  0.00     0.074 C
HETATM    2  C2  UNL     1      53.155 -12.913  28.691  1.00  0.00     0.189 C
HETATM    3  N2  UNL     1      53.957 -11.789  28.278  1.00  0.00    -0.070 NA
HETATM    4  N3  UNL     1      53.395 -10.639  28.888  1.00  0.00    -0.044 N
HETATM    5  C4  UNL     1      52.410 -11.024  29.715  1.00  0.00     0.276 A
HETATM    6  N4  UNL     1      51.889  -9.925  30.284  1.00  0.00    -0.249 N
ATOM      7  H4  UNL     1      51.122  -9.920  30.957  1.00  0.00     0.191 HD
HETATM    8  N5  UNL     1      52.516  -8.850  29.844  1.00  0.00    -0.126 N
ATOM      9  H5  UNL     1      52.334  -7.881  30.104  1.00  0.00     0.206 HD
HETATM   10  C5  UNL     1      53.445  -9.298  28.982  1.00  0.00     0.732 A
HETATM   11  O1  UNL     1      52.293 -12.419  29.675  1.00  0.00    -0.284 OA
ENDROOT
BRANCH   2  12
HETATM   12  C3  UNL     1      54.034 -13.950  29.275  1.00  0.00     0.111 C
HETATM   13  N1  UNL     1      55.309 -13.832  29.358  1.00  0.00    -0.407 N
ATOM     14  H12 UNL     1      55.722 -12.972  28.998  1.00  0.00     0.155 HD
ATOM     15  H11 UNL     1      55.914 -14.547  29.760  1.00  0.00     0.155 HD
ENDBRANCH   2  12
BRANCH  10  16
HETATM   16  N6  UNL     1      54.267  -8.548  28.335  1.00  0.00    -0.136 N
ATOM     17  H6  UNL     1      55.271  -8.711  28.398  1.00  0.00     0.205 HD
BRANCH  16  18
HETATM   18  N7  UNL     1      53.769  -7.513  27.551  1.00  0.00    -0.331 N
ATOM     19  H72 UNL     1      52.764  -7.336  27.534  1.00  0.00     0.177 HD
ATOM     20  H71 UNL     1      54.418  -6.945  27.006  1.00  0.00     0.177 HD
ENDBRANCH  16  18
ENDBRANCH  10  16
TORSDOF 3
ENDMDL