MODEL 3
REMARK VINA RESULT: -6.446221611      2.720      3.661
REMARK  3 active torsions:
REMARK  status: ('A' for Active; 'I' for Inactive)
REMARK    1  A    between atoms: C5_12  and  N4_13
REMARK    2  A    between atoms: N4_13  and  N5_15
REMARK    3  A    between atoms: N5_15  and  N6_17
ROOT
HETATM    1  C1  UNL     1      56.677 -12.523  30.428  1.00  0.00     0.178 C
HETATM    2  N1  UNL     1      55.475 -12.522  29.639  1.00  0.00    -0.290 N
HETATM    3  C2  UNL     1      55.042 -13.754  29.296  1.00  0.00     0.202 C
HETATM    4  N2  UNL     1      53.755 -14.050  28.957  1.00  0.00    -0.316 N
ATOM      5  H2  UNL     1      53.461 -15.004  29.166  1.00  0.00     0.170 HD
HETATM    6  C3  UNL     1      52.815 -13.278  28.390  1.00  0.00     0.276 C
HETATM    7  O1  UNL     1      51.738 -13.857  28.019  1.00  0.00    -0.266 OA
HETATM    8  C4  UNL     1      52.905 -11.922  28.171  1.00  0.00     0.142 C
HETATM    9  N3  UNL     1      52.064 -11.419  27.347  1.00  0.00    -0.392 N
ATOM     10  H31 UNL     1      52.131 -10.414  27.185  1.00  0.00     0.156 HD
ATOM     11  H32 UNL     1      51.400 -12.066  26.921  1.00  0.00     0.156 HD
HETATM   12  C5  UNL     1      53.813 -11.038  28.753  1.00  0.00     0.168 C
HETATM   13  N7  UNL     1      54.974 -11.319  29.368  1.00  0.00    -0.280 N
ATOM     14  H7  UNL     1      55.535 -10.519  29.660  1.00  0.00     0.189 HD
ENDROOT
BRANCH  12  15
HETATM   15  N4  UNL     1      53.495  -9.808  28.691  1.00  0.00    -0.268 N
ATOM     16  H4  UNL     1      53.457  -9.339  27.786  1.00  0.00     0.190 HD
BRANCH  15  17
HETATM   17  N5  UNL     1      53.200  -9.093  29.856  1.00  0.00    -0.248 N
ATOM     18  H5  UNL     1      53.811  -9.176  30.668  1.00  0.00     0.207 HD
BRANCH  17  19
HETATM   19  N6  UNL     1      52.075  -8.268  29.918  1.00  0.00    -0.331 N
ATOM     20  H62 UNL     1      51.407  -8.292  29.148  1.00  0.00     0.178 HD
ATOM     21  H61 UNL     1      51.926  -7.653  30.718  1.00  0.00     0.178 HD
ENDBRANCH  17  19
ENDBRANCH  15  17
ENDBRANCH  12  15
TORSDOF 3
ENDMDL