MODEL 2
REMARK VINA RESULT: -6.580158719      1.758      2.635
REMARK  6 active torsions:
REMARK  status: ('A' for Active; 'I' for Inactive)
REMARK    1  A    between atoms: N1_1  and  C1_4
REMARK    2  A    between atoms: C2_7  and  C3_8
REMARK    3  A    between atoms: C3_8  and  O1_9
REMARK    4  A    between atoms: O1_9  and  C4_10
REMARK    5  A    between atoms: C4_10  and  C5_11
REMARK    6  A    between atoms: C5_11  and  N3_12
ROOT
HETATM    1  C1  UNL     1     -12.873 -26.908 -25.578  1.00  0.00     0.121 A
HETATM    2  N2  UNL     1     -13.897 -26.568 -24.757  1.00  0.00    -0.329 N
ATOM      3  H2  UNL     1     -13.751 -26.087 -23.870  1.00  0.00     0.168 HD
HETATM    4  C2  UNL     1     -15.116 -26.909 -25.197  1.00  0.00     0.108 A
HETATM    5  N4  UNL     1     -15.393 -27.529 -26.328  1.00  0.00    -0.329 N
ATOM      6  H4  UNL     1     -16.364 -27.738 -26.561  1.00  0.00     0.168 HD
HETATM    7  C6  UNL     1     -14.393 -27.899 -27.198  1.00  0.00     0.131 A
HETATM    8  N5  UNL     1     -14.526 -28.512 -28.341  1.00  0.00    -0.302 N
ATOM      9  H5  UNL     1     -15.449 -28.776 -28.685  1.00  0.00     0.171 HD
HETATM   10  C7  UNL     1     -13.435 -28.785 -29.048  1.00  0.00     0.290 A
HETATM   11  O2  UNL     1     -13.335 -29.368 -30.174  1.00  0.00    -0.260 OA
HETATM   12  S1  UNL     1     -12.177 -28.162 -28.080  1.00  0.00    -0.021 SA
HETATM   13  C8  UNL     1     -13.130 -27.569 -26.789  1.00  0.00     0.097 A
ENDROOT
BRANCH   4  14
HETATM   14  C3  UNL     1     -16.285 -26.535 -24.298  1.00  0.00     0.244 C
BRANCH  14  15
HETATM   15  O1  UNL     1     -15.984 -26.852 -23.017  1.00  0.00    -0.382 OA
BRANCH  15  16
HETATM   16  C4  UNL     1     -16.259 -26.013 -22.013  1.00  0.00     0.195 C
BRANCH  16  17
HETATM   17  C5  UNL     1     -15.171 -25.212 -21.395  1.00  0.00     0.255 C
BRANCH  17  18
HETATM   18  N3  UNL     1     -14.358 -25.893 -20.430  1.00  0.00    -0.077 N
ATOM     19  H33 UNL     1     -14.827 -25.899 -19.524  1.00  0.00     0.274 HD
ATOM     20  H32 UNL     1     -14.342 -26.892 -20.635  1.00  0.00     0.274 HD
ATOM     21  H31 UNL     1     -13.405 -25.547 -20.324  1.00  0.00     0.274 HD
ENDBRANCH  17  18
ENDBRANCH  16  17
ENDBRANCH  15  16
ENDBRANCH  14  15
ENDBRANCH   4  14
BRANCH   1  22
HETATM   22  N1  UNL     1     -11.644 -26.661 -25.320  1.00  0.00    -0.384 N
ATOM     23  H12 UNL     1     -11.216 -27.225 -24.585  1.00  0.00     0.157 HD
ATOM     24  H11 UNL     1     -11.095 -25.949 -25.803  1.00  0.00     0.157 HD
ENDBRANCH   1  22
TORSDOF 6
ENDMDL