MODEL 5
REMARK VINA RESULT: -6.160186334      0.651      1.242
REMARK  4 active torsions:
REMARK  status: ('A' for Active; 'I' for Inactive)
REMARK    1  A    between atoms: O1_2  and  C2_3
REMARK    2  A    between atoms: C2_3  and  C3_5
REMARK    3  A    between atoms: C4_6  and  N1_7
REMARK    4  A    between atoms: C8_16  and  N4_17
ROOT
HETATM    1  C3  UNL     1     -15.986 -27.234 -25.313  1.00  0.00     0.125 A
HETATM    2  C4  UNL     1     -14.683 -26.963 -25.076  1.00  0.00     0.144 A
HETATM    3  N3  UNL     1     -14.325 -25.831 -24.361  1.00  0.00    -0.175 N
ATOM      4  H3  UNL     1     -13.340 -25.634 -24.185  1.00  0.00     0.186 HD
HETATM    5  C8  UNL     1     -15.260 -24.996 -23.899  1.00  0.00     0.678 A
HETATM    6  N5  UNL     1     -16.557 -25.257 -24.133  1.00  0.00    -0.178 N
ATOM      7  H5  UNL     1     -17.264 -24.614 -23.778  1.00  0.00     0.185 HD
HETATM    8  C9  UNL     1     -16.948 -26.339 -24.818  1.00  0.00     0.151 A
HETATM    9  N6  UNL     1     -18.351 -26.593 -25.052  1.00  0.00    -0.081 NA
ENDROOT
BRANCH   2  10
HETATM   10  N1  UNL     1     -13.639 -27.773 -25.585  1.00  0.00    -0.321 N
HETATM   11  C5  UNL     1     -13.075 -29.044 -25.243  1.00  0.00     0.139 A
HETATM   12  C6  UNL     1     -12.065 -28.939 -26.340  1.00  0.00     0.096 A
HETATM   13  C7  UNL     1     -12.722 -27.658 -26.647  1.00  0.00     0.080 A
HETATM   14  N2  UNL     1     -12.474 -26.786 -27.594  1.00  0.00    -0.389 N
ATOM     15  H22 UNL     1     -12.929 -25.898 -27.807  1.00  0.00     0.157 HD
ATOM     16  H21 UNL     1     -11.809 -26.703 -28.363  1.00  0.00     0.157 HD
ENDBRANCH   2  10
BRANCH   1  17
HETATM   17  C2  UNL     1     -16.425 -28.405 -26.017  1.00  0.00     0.300 C
HETATM   18  O2  UNL     1     -16.752 -29.493 -25.513  1.00  0.00    -0.259 OA
BRANCH  17  19
HETATM   19  O1  UNL     1     -16.504 -28.343 -27.410  1.00  0.00    -0.322 OA
HETATM   20  C1  UNL     1     -17.687 -28.725 -28.057  1.00  0.00     0.213 C
ENDBRANCH  17  19
ENDBRANCH   1  17
BRANCH   5  21
HETATM   21  N4  UNL     1     -14.925 -23.938 -23.230  1.00  0.00    -0.234 N
ATOM     22  H42 UNL     1     -14.869 -23.976 -22.213  1.00  0.00     0.174 HD
ATOM     23  H41 UNL     1     -14.717 -23.064 -23.714  1.00  0.00     0.174 HD
ENDBRANCH   5  21
TORSDOF 4
ENDMDL