MODEL 4
REMARK VINA RESULT: -7.780887422      1.892      1.922
REMARK  5 active torsions:
REMARK  status: ('A' for Active; 'I' for Inactive)
REMARK    1  A    between atoms: C1_4  and  O1_6
REMARK    2  A    between atoms: O1_6  and  C2_7
REMARK    3  A    between atoms: C5_12  and  C6_13
REMARK    4  A    between atoms: C7_18  and  O2_19
REMARK    5  A    between atoms: N6_21  and  O3_22
ROOT
HETATM    1  C2  UNL     1     -15.521 -26.098 -24.128  1.00  0.00     0.095 A
HETATM    2  C3  UNL     1     -16.754 -26.540 -24.523  1.00  0.00     0.124 A
HETATM    3  N3  UNL     1     -16.902 -27.258 -25.657  1.00  0.00    -0.372 N
ATOM      4  H3  UNL     1     -17.832 -27.576 -25.927  1.00  0.00     0.164 HD
HETATM    5  C4  UNL     1     -15.834 -27.570 -26.451  1.00  0.00     0.103 A
HETATM    6  C5  UNL     1     -14.568 -27.160 -26.121  1.00  0.00     0.030 A
HETATM    7  C8  UNL     1     -14.458 -26.421 -24.942  1.00  0.00     0.055 A
ENDROOT
BRANCH   6   8
HETATM    8  C6  UNL     1     -13.377 -27.452 -26.913  1.00  0.00     0.163 A
HETATM    9  N4  UNL     1     -12.216 -26.771 -26.793  1.00  0.00    -0.280 N
HETATM   10  N5  UNL     1     -11.327 -27.262 -27.639  1.00  0.00    -0.262 N
ATOM     11  H4  UNL     1     -12.051 -25.998 -26.149  1.00  0.00     0.188 HD
HETATM   12  C7  UNL     1     -11.883 -28.268 -28.327  1.00  0.00     0.265 A
ATOM     13  H5  UNL     1     -10.370 -26.929 -27.750  1.00  0.00     0.190 HD
HETATM   14  N6  UNL     1     -13.165 -28.354 -27.843  1.00  0.00    -0.166 N
BRANCH  12  15
HETATM   15  O2  UNL     1     -11.319 -29.076 -29.324  1.00  0.00    -0.330 OA
ATOM     16  H2  UNL     1     -11.347 -30.021 -29.417  1.00  0.00     0.221 HD
ENDBRANCH  12  15
BRANCH  14  17
HETATM   17  O3  UNL     1     -14.049 -29.289 -28.322  1.00  0.00    -0.278 OA
ATOM     18  H3  UNL     1     -14.513 -29.955 -27.829  1.00  0.00     0.245 HD
ENDBRANCH  14  17
ENDBRANCH   6   8
BRANCH   1  19
HETATM   19  O1  UNL     1     -15.281 -25.362 -22.982  1.00  0.00    -0.281 OA
BRANCH  19  20
HETATM   20  C1  UNL     1     -15.416 -25.811 -21.702  1.00  0.00     0.230 C
HETATM   21  N1  UNL     1     -14.406 -25.615 -20.931  1.00  0.00    -0.368 N
ATOM     22  H12 UNL     1     -14.507 -25.951 -19.973  1.00  0.00     0.159 HD
ATOM     23  H11 UNL     1     -13.549 -25.154 -21.237  1.00  0.00     0.159 HD
HETATM   24  N2  UNL     1     -16.599 -26.447 -21.279  1.00  0.00    -0.056 NA
ENDBRANCH  19  20
ENDBRANCH   1  19
TORSDOF 5
ENDMDL