MODEL 4
REMARK VINA RESULT: -7.477033626      2.464      2.718
REMARK  5 active torsions:
REMARK  status: ('A' for Active; 'I' for Inactive)
REMARK       I    between atoms: C2_2  and  N1_4
REMARK    1  A    between atoms: N1_4  and  N2_6
REMARK    2  A    between atoms: C3_8  and  C4_9
REMARK    3  A    between atoms: C7_12  and  N3_13
REMARK    4  A    between atoms: N3_13  and  N4_15
REMARK    5  A    between atoms: C8_18  and  N5_19
ROOT
HETATM    1  C4  UNL     1     -15.076 -27.229 -25.980  1.00  0.00    -0.017 A
HETATM    2  C5  UNL     1     -14.118 -26.514 -25.295  1.00  0.00     0.015 A
HETATM    3  C6  UNL     1     -12.841 -26.532 -25.771  1.00  0.00     0.034 A
HETATM    4  C7  UNL     1     -12.498 -27.253 -26.929  1.00  0.00     0.080 A
HETATM    5  C8  UNL     1     -13.442 -27.971 -27.623  1.00  0.00     0.131 A
HETATM    6  C9  UNL     1     -14.751 -27.931 -27.103  1.00  0.00     0.051 A
ENDROOT
BRANCH   1   7
HETATM    7  C3  UNL     1     -16.465 -27.203 -25.468  1.00  0.00     0.118 C
HETATM    8  N2  UNL     1     -16.712 -26.519 -24.437  1.00  0.00    -0.309 N
ATOM      9  H2  UNL     1     -15.906 -26.034 -24.043  1.00  0.00     0.186 HD
BRANCH   8  10
HETATM   10  N1  UNL     1     -17.883 -26.320 -23.761  1.00  0.00    -0.271 N
HETATM   11  C2  UNL     1     -18.100 -26.621 -22.412  1.00  0.00     0.232 C
HETATM   12  C1  UNL     1     -19.415 -26.366 -21.759  1.00  0.00     0.119 C
HETATM   13  O1  UNL     1     -17.194 -27.118 -21.698  1.00  0.00    -0.272 OA
ATOM     14  H1  UNL     1     -18.663 -25.920 -24.283  1.00  0.00     0.190 HD
ENDBRANCH   8  10
ENDBRANCH   1   7
BRANCH   5  15
HETATM   15  N5  UNL     1     -13.197 -28.725 -28.802  1.00  0.00    -0.113 N
HETATM   16  O2  UNL     1     -14.185 -29.432 -29.209  1.00  0.00    -0.532 OA
HETATM   17  O3  UNL     1     -12.080 -28.794 -29.542  1.00  0.00    -0.532 OA
ENDBRANCH   5  15
BRANCH   4  18
HETATM   18  N3  UNL     1     -11.154 -27.207 -27.368  1.00  0.00    -0.305 N
ATOM     19  H3  UNL     1     -10.905 -26.696 -28.214  1.00  0.00     0.186 HD
BRANCH  18  20
HETATM   20  N4  UNL     1     -10.164 -27.875 -26.622  1.00  0.00    -0.345 N
ATOM     21  H42 UNL     1     -10.187 -28.893 -26.557  1.00  0.00     0.176 HD
ATOM     22  H41 UNL     1      -9.438 -27.330 -26.157  1.00  0.00     0.176 HD
ENDBRANCH  18  20
ENDBRANCH   4  18
TORSDOF 5
ENDMDL