MODEL 2
REMARK VINA RESULT: -6.886414910      1.182      1.225
REMARK  4 active torsions:
REMARK  status: ('A' for Active; 'I' for Inactive)
REMARK    1  A    between atoms: N1_1  and  C1_4
REMARK    2  A    between atoms: N4_13  and  C5_14
REMARK    3  A    between atoms: C5_14  and  C6_15
REMARK    4  A    between atoms: C6_15  and  C7_17
ROOT
HETATM    1  C1  UNL     1     -10.898 -28.063 -25.738  1.00  0.00     0.680 A
HETATM    2  N2  UNL     1     -10.740 -28.240 -27.054  1.00  0.00    -0.154 N
ATOM      3  H2  UNL     1      -9.794 -28.349 -27.421  1.00  0.00     0.187 HD
HETATM    4  C2  UNL     1     -11.784 -28.283 -27.925  1.00  0.00     0.290 A
HETATM    5  O1  UNL     1     -11.573 -28.452 -29.141  1.00  0.00    -0.265 OA
HETATM    6  C3  UNL     1     -13.067 -28.140 -27.467  1.00  0.00     0.147 A
HETATM    7  N3  UNL     1     -14.297 -28.150 -28.005  1.00  0.00    -0.345 N
ATOM      8  H3  UNL     1     -14.504 -28.268 -28.996  1.00  0.00     0.167 HD
HETATM    9  C4  UNL     1     -15.212 -27.981 -27.038  1.00  0.00     0.185 A
HETATM   10  N4  UNL     1     -14.553 -27.859 -25.860  1.00  0.00    -0.320 N
HETATM   11  C8  UNL     1     -13.228 -27.953 -26.087  1.00  0.00     0.157 A
HETATM   12  N5  UNL     1     -12.153 -27.919 -25.262  1.00  0.00    -0.174 N
ATOM     13  H5  UNL     1     -12.295 -27.782 -24.261  1.00  0.00     0.186 HD
ENDROOT
BRANCH  10  14
HETATM   14  C5  UNL     1     -15.166 -27.612 -24.549  1.00  0.00     0.210 C
BRANCH  14  15
HETATM   15  C6  UNL     1     -15.295 -26.133 -24.408  1.00  0.00     0.154 C
HETATM   16  O2  UNL     1     -14.276 -25.467 -24.633  1.00  0.00    -0.295 OA
BRANCH  15  17
HETATM   17  C7  UNL     1     -16.518 -25.393 -24.025  1.00  0.00     0.166 C
HETATM   18  S1  UNL     1     -17.993 -26.383 -24.260  1.00  0.00    -0.090 SA
ENDBRANCH  15  17
ENDBRANCH  14  15
ENDBRANCH  10  14
BRANCH   1  19
HETATM   19  N1  UNL     1      -9.890 -28.032 -24.928  1.00  0.00    -0.234 N
ATOM     20  H12 UNL     1      -8.949 -28.209 -25.277  1.00  0.00     0.174 HD
ATOM     21  H11 UNL     1     -10.005 -27.829 -23.934  1.00  0.00     0.174 HD
ENDBRANCH   1  19
TORSDOF 4
ENDMDL