MODEL 3
REMARK VINA RESULT: -6.714582336      2.250      4.279
REMARK  5 active torsions:
REMARK  status: ('A' for Active; 'I' for Inactive)
REMARK    1  A    between atoms: N1_1  and  N2_4
REMARK    2  A    between atoms: C1_6  and  C2_7
REMARK    3  A    between atoms: C1_6  and  N6_20
REMARK    4  A    between atoms: C4_14  and  C5_15
REMARK    5  A    between atoms: N5_16  and  O2_18
ROOT
HETATM    1  C2  UNL     1     -14.493 -27.772 -26.562  1.00  0.00     0.112 A
HETATM    2  N3  UNL     1     -15.798 -27.730 -26.118  1.00  0.00    -0.303 N
ATOM      3  H3  UNL     1     -16.093 -27.428 -25.189  1.00  0.00     0.171 HD
HETATM    4  C3  UNL     1     -16.623 -28.146 -27.091  1.00  0.00     0.325 A
HETATM    5  O1  UNL     1     -17.880 -28.219 -26.985  1.00  0.00    -0.247 OA
HETATM    6  N4  UNL     1     -15.893 -28.462 -28.169  1.00  0.00    -0.305 N
ATOM      7  H4  UNL     1     -16.251 -28.807 -29.059  1.00  0.00     0.171 HD
HETATM    8  C4  UNL     1     -14.568 -28.235 -27.854  1.00  0.00     0.084 A
ENDROOT
BRANCH   1   9
HETATM    9  C1  UNL     1     -13.391 -27.381 -25.727  1.00  0.00     0.170 C
HETATM   10  N2  UNL     1     -13.428 -26.409 -24.887  1.00  0.00    -0.289 N
ATOM     11  H2  UNL     1     -12.534 -26.313 -24.407  1.00  0.00     0.188 HD
BRANCH  10  12
HETATM   12  N1  UNL     1     -14.287 -25.495 -24.462  1.00  0.00    -0.344 N
ATOM     13  H12 UNL     1     -13.775 -24.736 -24.013  1.00  0.00     0.176 HD
ATOM     14  H11 UNL     1     -15.295 -25.337 -24.456  1.00  0.00     0.176 HD
ENDBRANCH  10  12
BRANCH   9  15
HETATM   15  N6  UNL     1     -12.092 -28.007 -25.703  1.00  0.00    -0.248 N
HETATM   16  C6  UNL     1     -11.877 -29.332 -25.508  1.00  0.00     0.120 A
HETATM   17  C7  UNL     1     -10.519 -29.570 -25.613  1.00  0.00     0.038 A
HETATM   18  C8  UNL     1      -9.940 -28.349 -25.874  1.00  0.00     0.109 A
HETATM   19  N7  UNL     1     -10.945 -27.423 -25.919  1.00  0.00    -0.304 N
ATOM     20  H7  UNL     1     -10.817 -26.427 -26.096  1.00  0.00     0.186 HD
ENDBRANCH   9  15
ENDBRANCH   1   9
BRANCH   8  21
HETATM   21  C5  UNL     1     -13.477 -28.463 -28.775  1.00  0.00     0.145 C
HETATM   22  N5  UNL     1     -13.337 -29.510 -29.469  1.00  0.00    -0.278 N
ATOM     23  H5  UNL     1     -12.506 -29.488 -30.060  1.00  0.00     0.193 HD
BRANCH  22  24
HETATM   24  O2  UNL     1     -14.036 -30.630 -29.596  1.00  0.00    -0.290 OA
ATOM     25  H2  UNL     1     -14.081 -31.438 -29.100  1.00  0.00     0.244 HD
ENDBRANCH  22  24
ENDBRANCH   8  21
TORSDOF 5
ENDMDL