MODEL 2
REMARK VINA RESULT: -6.479970610      2.669      4.002
REMARK  4 active torsions:
REMARK  status: ('A' for Active; 'I' for Inactive)
REMARK    1  A    between atoms: C5_11  and  N3_12
REMARK    2  A    between atoms: N3_12  and  C6_14
REMARK    3  A    between atoms: C6_14  and  C7_15
REMARK       I    between atoms: C7_15  and  N4_17
REMARK    4  A    between atoms: N4_17  and  N5_19
ROOT
HETATM    1  N1  UNL     1     -15.457 -26.021 -22.027  1.00  0.00    -0.191 NA
HETATM    2  C1  UNL     1     -15.869 -26.457 -23.005  1.00  0.00     0.109 C
HETATM    3  C2  UNL     1     -16.402 -26.985 -24.218  1.00  0.00     0.122 A
HETATM    4  S1  UNL     1     -18.066 -27.074 -24.571  1.00  0.00    -0.015 SA
HETATM    5  C3  UNL     1     -18.393 -27.753 -26.099  1.00  0.00     0.292 A
HETATM    6  O1  UNL     1     -19.567 -27.920 -26.577  1.00  0.00    -0.260 OA
HETATM    7  N2  UNL     1     -17.302 -28.116 -26.799  1.00  0.00    -0.282 N
ATOM      8  H2  UNL     1     -17.462 -28.526 -27.719  1.00  0.00     0.172 HD
HETATM    9  C4  UNL     1     -16.040 -27.993 -26.410  1.00  0.00     0.277 A
HETATM   10  O2  UNL     1     -15.144 -28.403 -27.230  1.00  0.00    -0.266 OA
HETATM   11  C5  UNL     1     -15.576 -27.480 -25.234  1.00  0.00     0.125 A
ENDROOT
BRANCH  11  12
HETATM   12  N3  UNL     1     -14.171 -27.427 -24.986  1.00  0.00    -0.375 N
ATOM     13  H3  UNL     1     -13.762 -28.085 -24.322  1.00  0.00     0.160 HD
BRANCH  12  14
HETATM   14  C6  UNL     1     -13.308 -26.471 -25.645  1.00  0.00     0.224 C
BRANCH  14  15
HETATM   15  C7  UNL     1     -11.986 -27.044 -25.966  1.00  0.00     0.253 C
HETATM   16  O3  UNL     1     -11.625 -27.124 -27.159  1.00  0.00    -0.270 OA
HETATM   17  N4  UNL     1     -11.112 -27.507 -24.959  1.00  0.00    -0.275 N
ATOM     18  H4  UNL     1     -11.403 -27.444 -23.983  1.00  0.00     0.189 HD
BRANCH  17  19
HETATM   19  N5  UNL     1      -9.864 -28.050 -25.261  1.00  0.00    -0.343 N
ATOM     20  H52 UNL     1      -9.048 -27.677 -24.776  1.00  0.00     0.176 HD
ATOM     21  H51 UNL     1      -9.754 -28.797 -25.946  1.00  0.00     0.176 HD
ENDBRANCH  17  19
ENDBRANCH  14  15
ENDBRANCH  12  14
ENDBRANCH  11  12
TORSDOF 4
ENDMDL