MODEL 1
REMARK VINA RESULT: -7.357258438      0.000      0.000
REMARK  7 active torsions:
REMARK  status: ('A' for Active; 'I' for Inactive)
REMARK    1  A    between atoms: C2_3  and  C3_4
REMARK    2  A    between atoms: C3_4  and  C4_5
REMARK    3  A    between atoms: C4_5  and  O1_6
REMARK    4  A    between atoms: C4_5  and  N2_8
REMARK    5  A    between atoms: N2_8  and  N3_10
REMARK    6  A    between atoms: C5_12  and  C6_13
REMARK    7  A    between atoms: C10_22  and  N7_23
ROOT
HETATM    1  N1  UNL     1     -13.526 -28.314 -28.780  1.00  0.00    -0.192 NA
HETATM    2  C1  UNL     1     -12.450 -28.294 -28.356  1.00  0.00     0.088 C
HETATM    3  C2  UNL     1     -11.116 -28.247 -27.878  1.00  0.00     0.098 C
ENDROOT
BRANCH   3   4
HETATM    4  C3  UNL     1     -10.599 -28.615 -26.751  1.00  0.00     0.068 C
BRANCH   4   5
HETATM    5  C4  UNL     1     -10.565 -27.932 -25.488  1.00  0.00     0.155 C
BRANCH   5   6
HETATM    6  O1  UNL     1      -9.535 -28.196 -24.731  1.00  0.00    -0.345 OA
ATOM      7  H1  UNL     1      -9.737 -28.509 -23.857  1.00  0.00     0.219 HD
ENDBRANCH   5   6
BRANCH   5   8
HETATM    8  N2  UNL     1     -11.503 -27.026 -24.986  1.00  0.00    -0.281 N
ATOM      9  H2  UNL     1     -11.195 -26.147 -24.570  1.00  0.00     0.189 HD
BRANCH   8  10
HETATM   10  N3  UNL     1     -12.892 -27.335 -25.061  1.00  0.00    -0.308 N
HETATM   11  C5  UNL     1     -13.684 -26.413 -25.491  1.00  0.00     0.140 C
ATOM     12  H3  UNL     1     -13.245 -28.251 -24.783  1.00  0.00     0.186 HD
BRANCH  11  13
HETATM   13  C6  UNL     1     -15.110 -26.757 -25.558  1.00  0.00     0.094 A
HETATM   14  N4  UNL     1     -15.583 -27.534 -26.563  1.00  0.00    -0.342 N
HETATM   15  C7  UNL     1     -16.879 -27.870 -26.660  1.00  0.00     0.130 A
ATOM     16  H4  UNL     1     -14.931 -27.875 -27.270  1.00  0.00     0.167 HD
HETATM   17  C8  UNL     1     -17.384 -28.692 -27.723  1.00  0.00     0.119 C
HETATM   18  C9  UNL     1     -17.700 -27.373 -25.671  1.00  0.00     0.130 A
HETATM   19  N5  UNL     1     -17.774 -29.355 -28.586  1.00  0.00    -0.190 NA
HETATM   20  N6  UNL     1     -17.255 -26.606 -24.670  1.00  0.00    -0.348 N
HETATM   21  C10 UNL     1     -15.933 -26.266 -24.577  1.00  0.00     0.127 A
ATOM     22  H6  UNL     1     -17.912 -26.268 -23.966  1.00  0.00     0.167 HD
BRANCH  21  23
HETATM   23  N7  UNL     1     -15.545 -25.521 -23.592  1.00  0.00    -0.384 N
ATOM     24  H72 UNL     1     -15.454 -25.936 -22.665  1.00  0.00     0.157 HD
ATOM     25  H71 UNL     1     -15.318 -24.529 -23.666  1.00  0.00     0.157 HD
ENDBRANCH  21  23
ENDBRANCH  11  13
ENDBRANCH   8  10
ENDBRANCH   5   8
ENDBRANCH   4   5
ENDBRANCH   3   4
TORSDOF 7
ENDMDL