MODEL 2
REMARK VINA RESULT: -7.948794893      0.019      1.101
REMARK  3 active torsions:
REMARK  status: ('A' for Active; 'I' for Inactive)
REMARK    1  A    between atoms: C3_4  and  N1_5
REMARK    2  A    between atoms: N1_5  and  N2_7
REMARK    3  A    between atoms: N2_7  and  C4_9
ROOT
HETATM    1  O1  UNL     1     -11.655 -27.146 -28.761  1.00  0.00    -0.268 OA
HETATM    2  C1  UNL     1     -11.675 -27.640 -27.615  1.00  0.00     0.251 C
HETATM    3  C2  UNL     1     -12.921 -28.032 -27.126  1.00  0.00     0.124 C
HETATM    4  C3  UNL     1     -13.223 -28.489 -25.843  1.00  0.00     0.128 C
HETATM    5  N4  UNL     1     -12.362 -29.248 -25.103  1.00  0.00    -0.304 N
ATOM      6  H4  UNL     1     -12.789 -29.807 -24.364  1.00  0.00     0.171 HD
HETATM    7  C9  UNL     1     -11.012 -29.358 -25.218  1.00  0.00     0.315 C
HETATM    8  O2  UNL     1     -10.490 -30.321 -24.585  1.00  0.00    -0.262 OA
HETATM    9  C10 UNL     1     -10.177 -28.524 -25.953  1.00  0.00     0.316 C
HETATM   10  O3  UNL     1      -8.992 -28.527 -25.568  1.00  0.00    -0.262 OA
HETATM   11  N5  UNL     1     -10.472 -27.724 -27.013  1.00  0.00    -0.286 N
ATOM     12  H5  UNL     1      -9.722 -27.140 -27.382  1.00  0.00     0.172 HD
ENDROOT
BRANCH   4  13
HETATM   13  N1  UNL     1     -14.472 -28.144 -25.303  1.00  0.00    -0.285 N
ATOM     14  H1  UNL     1     -14.769 -28.676 -24.485  1.00  0.00     0.188 HD
BRANCH  13  15
HETATM   15  N2  UNL     1     -15.344 -27.178 -25.744  1.00  0.00    -0.299 N
ATOM     16  H2  UNL     1     -15.051 -26.203 -25.811  1.00  0.00     0.187 HD
BRANCH  15  17
HETATM   17  C4  UNL     1     -16.679 -27.571 -26.109  1.00  0.00     0.050 A
HETATM   18  C5  UNL     1     -16.898 -28.296 -27.259  1.00  0.00     0.048 A
HETATM   19  C6  UNL     1     -18.177 -28.650 -27.606  1.00  0.00     0.090 A
HETATM   20  N3  UNL     1     -19.256 -28.313 -26.854  1.00  0.00    -0.375 N
HETATM   21  C7  UNL     1     -19.039 -27.605 -25.733  1.00  0.00     0.090 A
ATOM     22  H3  UNL     1     -20.198 -28.587 -27.131  1.00  0.00     0.164 HD
HETATM   23  C8  UNL     1     -17.774 -27.230 -25.348  1.00  0.00     0.048 A
ENDBRANCH  15  17
ENDBRANCH  13  15
ENDBRANCH   4  13
TORSDOF 3
ENDMDL