MODEL 1
REMARK VINA RESULT: -7.918771629      0.000      0.000
REMARK  3 active torsions:
REMARK  status: ('A' for Active; 'I' for Inactive)
REMARK       I    between atoms: C1_2  and  N2_4
REMARK    1  A    between atoms: N2_4  and  N3_6
REMARK    2  A    between atoms: C2_8  and  C3_9
REMARK    3  A    between atoms: C6_15  and  N5_16
ROOT
HETATM    1  C3  UNL     1     -13.715 -27.213 -26.055  1.00  0.00     0.023 A
HETATM    2  C4  UNL     1     -12.378 -26.961 -26.121  1.00  0.00     0.106 A
HETATM    3  N4  UNL     1     -11.602 -27.335 -27.159  1.00  0.00    -0.331 N
ATOM      4  H4  UNL     1     -10.605 -27.123 -27.162  1.00  0.00     0.168 HD
HETATM    5  C5  UNL     1     -12.165 -27.998 -28.199  1.00  0.00     0.280 A
HETATM    6  O2  UNL     1     -11.493 -28.375 -29.198  1.00  0.00    -0.265 OA
HETATM    7  C6  UNL     1     -13.496 -28.276 -28.185  1.00  0.00     0.195 A
HETATM    8  C7  UNL     1     -14.283 -27.894 -27.128  1.00  0.00     0.098 A
HETATM    9  N6  UNL     1     -15.678 -28.163 -27.071  1.00  0.00    -0.099 NA
ENDROOT
BRANCH   1  10
HETATM   10  C2  UNL     1     -14.544 -26.809 -24.937  1.00  0.00     0.122 C
HETATM   11  N3  UNL     1     -14.245 -25.765 -24.250  1.00  0.00    -0.307 N
ATOM     12  H3  UNL     1     -13.418 -25.224 -24.500  1.00  0.00     0.186 HD
BRANCH  11  13
HETATM   13  N2  UNL     1     -15.022 -25.360 -23.179  1.00  0.00    -0.254 N
HETATM   14  C1  UNL     1     -15.318 -23.992 -23.010  1.00  0.00     0.347 C
HETATM   15  N1  UNL     1     -16.119 -23.536 -21.912  1.00  0.00    -0.038 NA
HETATM   16  O1  UNL     1     -14.884 -23.160 -23.819  1.00  0.00    -0.249 OA
ATOM     17  H2  UNL     1     -15.379 -26.048 -22.515  1.00  0.00     0.191 HD
ENDBRANCH  11  13
ENDBRANCH   1  10
BRANCH   7  18
HETATM   18  N5  UNL     1     -14.103 -28.969 -29.266  1.00  0.00    -0.108 N
HETATM   19  O3  UNL     1     -14.652 -28.366 -30.211  1.00  0.00    -0.532 OA
HETATM   20  O4  UNL     1     -14.103 -30.327 -29.298  1.00  0.00    -0.532 OA
ENDBRANCH   7  18
TORSDOF 3
ENDMDL