MODEL 3
REMARK VINA RESULT: -6.138751398      2.366      3.217
REMARK  5 active torsions:
REMARK  status: ('A' for Active; 'I' for Inactive)
REMARK    1  A    between atoms: C3_5  and  N2_6
REMARK    2  A    between atoms: C4_9  and  N3_10
REMARK    3  A    between atoms: N3_10  and  O1_12
REMARK    4  A    between atoms: N4_14  and  N5_15
REMARK    5  A    between atoms: N6_17  and  N7_19
ROOT
HETATM    1  C1  UNL     1     -15.139 -27.153 -24.613  1.00  0.00     0.091 C
HETATM    2  C2  UNL     1     -13.977 -27.640 -25.406  1.00  0.00     0.095 A
HETATM    3  N1  UNL     1     -13.705 -27.065 -26.600  1.00  0.00    -0.328 N
ATOM      4  H1  UNL     1     -14.298 -26.308 -26.939  1.00  0.00     0.169 HD
HETATM    5  C3  UNL     1     -12.664 -27.476 -27.348  1.00  0.00     0.150 A
HETATM    6  C4  UNL     1     -11.899 -28.499 -26.844  1.00  0.00     0.210 A
HETATM    7  N4  UNL     1     -12.155 -29.083 -25.659  1.00  0.00    -0.157 N
HETATM    8  N8  UNL     1     -13.191 -28.644 -24.959  1.00  0.00    -0.265 N
ATOM      9  H8  UNL     1     -13.400 -29.075 -24.059  1.00  0.00     0.190 HD
ENDROOT
BRANCH   7  10
HETATM   10  N5  UNL     1     -11.350 -30.130 -25.171  1.00  0.00    -0.205 N
HETATM   11  N6  UNL     1     -10.243 -29.886 -24.581  1.00  0.00    -0.233 N
ATOM     12  H6  UNL     1      -9.919 -28.928 -24.452  1.00  0.00     0.209 HD
ATOM     13  H5  UNL     1     -11.654 -31.097 -25.290  1.00  0.00     0.212 HD
BRANCH  11  14
HETATM   14  N7  UNL     1      -9.492 -30.960 -24.121  1.00  0.00    -0.330 N
ATOM     15  H72 UNL     1      -9.493 -31.839 -24.637  1.00  0.00     0.178 HD
ATOM     16  H71 UNL     1      -8.950 -30.839 -23.265  1.00  0.00     0.178 HD
ENDBRANCH  11  14
ENDBRANCH   7  10
BRANCH   6  17
HETATM   17  N3  UNL     1     -10.900 -28.916 -27.531  1.00  0.00    -0.247 N
ATOM     18  H3  UNL     1      -9.975 -28.876 -27.104  1.00  0.00     0.196 HD
BRANCH  17  19
HETATM   19  O1  UNL     1     -11.000 -29.408 -28.797  1.00  0.00    -0.288 OA
ATOM     20  H1  UNL     1     -10.386 -29.208 -29.493  1.00  0.00     0.244 HD
ENDBRANCH  17  19
ENDBRANCH   6  17
BRANCH   5  21
HETATM   21  N2  UNL     1     -12.359 -26.965 -28.490  1.00  0.00    -0.382 N
ATOM     22  H22 UNL     1     -12.838 -27.293 -29.329  1.00  0.00     0.157 HD
ATOM     23  H21 UNL     1     -11.655 -26.237 -28.615  1.00  0.00     0.157 HD
ENDBRANCH   5  21
TORSDOF 5
ENDMDL