MODEL 3
REMARK VINA RESULT: -6.422399506      1.643      1.798
REMARK  4 active torsions:
REMARK  status: ('A' for Active; 'I' for Inactive)
REMARK    1  A    between atoms: N1_1  and  C1_4
REMARK    2  A    between atoms: C2_7  and  C3_8
REMARK    3  A    between atoms: N4_10  and  O1_12
REMARK    4  A    between atoms: N6_16  and  O2_17
ROOT
HETATM    1  C1  UNL     1     -13.324 -28.958 -26.343  1.00  0.00     0.695 A
HETATM    2  N2  UNL     1     -12.319 -29.060 -25.455  1.00  0.00    -0.171 N
ATOM      3  H2  UNL     1     -12.534 -29.096 -24.459  1.00  0.00     0.186 HD
HETATM    4  C2  UNL     1     -11.038 -29.114 -25.854  1.00  0.00     0.181 A
HETATM    5  N5  UNL     1     -10.799 -29.063 -27.173  1.00  0.00    -0.239 N
ATOM      6  H5  UNL     1      -9.835 -29.103 -27.507  1.00  0.00     0.193 HD
HETATM    7  N6  UNL     1     -11.798 -28.961 -28.064  1.00  0.00    -0.079 N
HETATM    8  N7  UNL     1     -13.043 -28.909 -27.649  1.00  0.00    -0.090 N
ATOM      9  H7  UNL     1     -13.801 -28.830 -28.329  1.00  0.00     0.210 HD
ENDROOT
BRANCH   4  10
HETATM   10  C3  UNL     1      -9.993 -29.225 -24.854  1.00  0.00     0.182 C
HETATM   11  N3  UNL     1      -9.155 -28.094 -24.669  1.00  0.00    -0.077 NA
HETATM   12  N4  UNL     1      -9.771 -30.246 -24.136  1.00  0.00    -0.252 N
ATOM     13  H4  UNL     1      -8.999 -30.173 -23.474  1.00  0.00     0.195 HD
BRANCH  12  14
HETATM   14  O1  UNL     1     -10.438 -31.419 -24.145  1.00  0.00    -0.288 OA
ATOM     15  H1  UNL     1     -11.361 -31.559 -24.322  1.00  0.00     0.244 HD
ENDBRANCH  12  14
ENDBRANCH   4  10
BRANCH   1  16
HETATM   16  N1  UNL     1     -14.559 -28.906 -25.938  1.00  0.00    -0.233 N
ATOM     17  H12 UNL     1     -14.952 -29.673 -25.393  1.00  0.00     0.174 HD
ATOM     18  H11 UNL     1     -15.143 -28.100 -26.162  1.00  0.00     0.174 HD
ENDBRANCH   1  16
BRANCH   7  19
HETATM   19  O2  UNL     1     -11.547 -28.908 -29.407  1.00  0.00    -0.253 OA
ATOM     20  H2  UNL     1     -11.553 -28.083 -29.877  1.00  0.00     0.248 HD
ENDBRANCH   7  19
TORSDOF 4
ENDMDL