MODEL 4
REMARK VINA RESULT: -6.140339408      0.822      1.818
REMARK  5 active torsions:
REMARK  status: ('A' for Active; 'I' for Inactive)
REMARK    1  A    between atoms: C2_2  and  O1_3
REMARK    2  A    between atoms: C2_2  and  N1_5
REMARK    3  A    between atoms: N1_5  and  C3_7
REMARK    4  A    between atoms: N4_12  and  O2_13
REMARK    5  A    between atoms: C4_15  and  N5_16
ROOT
HETATM    1  C3  UNL     1     -13.109 -27.982 -26.505  1.00  0.00     0.710 A
HETATM    2  N2  UNL     1     -12.534 -28.950 -27.246  1.00  0.00    -0.115 N
ATOM      3  H2  UNL     1     -13.078 -29.395 -27.985  1.00  0.00     0.207 HD
HETATM    4  N3  UNL     1     -11.283 -29.341 -27.045  1.00  0.00    -0.187 N
ATOM      5  H3  UNL     1     -10.899 -30.079 -27.635  1.00  0.00     0.212 HD
HETATM    6  N4  UNL     1     -10.513 -28.812 -26.108  1.00  0.00     0.032 N
HETATM    7  C4  UNL     1     -11.056 -27.843 -25.349  1.00  0.00     0.733 A
HETATM    8  N6  UNL     1     -12.335 -27.437 -25.548  1.00  0.00    -0.018 N
ATOM      9  H6  UNL     1     -12.720 -26.700 -24.958  1.00  0.00     0.203 HD
ENDROOT
BRANCH   1  10
HETATM   10  N1  UNL     1     -14.325 -27.639 -26.739  1.00  0.00    -0.198 N
ATOM     11  H1  UNL     1     -14.477 -26.982 -27.505  1.00  0.00     0.180 HD
BRANCH  10  12
HETATM   12  C2  UNL     1     -15.475 -28.080 -26.041  1.00  0.00     0.231 C
HETATM   13  C1  UNL     1     -16.765 -27.950 -26.789  1.00  0.00     0.063 C
BRANCH  12  14
HETATM   14  O1  UNL     1     -15.248 -29.413 -25.630  1.00  0.00    -0.377 OA
ATOM     15  H1  UNL     1     -15.120 -29.989 -26.376  1.00  0.00     0.212 HD
ENDBRANCH  12  14
ENDBRANCH  10  12
ENDBRANCH   1  10
BRANCH   7  16
HETATM   16  N5  UNL     1     -10.309 -27.322 -24.431  1.00  0.00    -0.231 N
ATOM     17  H52 UNL     1     -10.538 -27.400 -23.440  1.00  0.00     0.174 HD
ATOM     18  H51 UNL     1      -9.473 -26.824 -24.737  1.00  0.00     0.174 HD
ENDBRANCH   7  16
BRANCH   6  19
HETATM   19  O2  UNL     1      -9.213 -29.228 -25.908  1.00  0.00    -0.253 OA
ATOM     20  H2  UNL     1      -8.483 -28.842 -26.379  1.00  0.00     0.247 HD
ENDBRANCH   6  19
TORSDOF 5
ENDMDL