MODEL 5
REMARK VINA RESULT: -5.799468419      2.443      3.793
REMARK  5 active torsions:
REMARK  status: ('A' for Active; 'I' for Inactive)
REMARK    1  A    between atoms: N1_1  and  C1_4
REMARK    2  A    between atoms: N3_7  and  N4_8
REMARK    3  A    between atoms: C3_13  and  N6_14
REMARK    4  A    between atoms: N6_14  and  O1_16
REMARK    5  A    between atoms: N7_18  and  O2_19
ROOT
HETATM    1  C1  UNL     1      -9.954 -29.458 -26.251  1.00  0.00     0.720 A
HETATM    2  N2  UNL     1     -10.470 -29.629 -27.474  1.00  0.00    -0.108 N
ATOM      3  H2  UNL     1     -10.184 -30.431 -28.035  1.00  0.00     0.208 HD
HETATM    4  N3  UNL     1     -11.339 -28.776 -27.957  1.00  0.00    -0.171 N
HETATM    5  C2  UNL     1     -11.708 -27.711 -27.189  1.00  0.00     0.204 A
HETATM    6  N5  UNL     1     -12.642 -26.778 -27.686  1.00  0.00    -0.075 NA
HETATM    7  C3  UNL     1     -11.192 -27.509 -25.925  1.00  0.00     0.216 A
HETATM    8  N7  UNL     1     -10.301 -28.419 -25.479  1.00  0.00    -0.029 N
ENDROOT
BRANCH   7   9
HETATM    9  N6  UNL     1     -11.592 -26.390 -25.144  1.00  0.00    -0.248 N
ATOM     10  H6  UNL     1     -10.924 -25.710 -24.782  1.00  0.00     0.196 HD
BRANCH   9  11
HETATM   11  O1  UNL     1     -12.837 -26.298 -24.928  1.00  0.00    -0.288 OA
ATOM     12  H1  UNL     1     -13.082 -26.141 -24.024  1.00  0.00     0.244 HD
ENDBRANCH   9  11
ENDBRANCH   7   9
BRANCH   8  13
HETATM   13  O2  UNL     1      -9.747 -28.269 -24.215  1.00  0.00    -0.268 OA
ATOM     14  H2  UNL     1      -9.648 -29.021 -23.643  1.00  0.00     0.246 HD
ENDBRANCH   8  13
BRANCH   4  15
HETATM   15  N4  UNL     1     -11.916 -28.894 -29.221  1.00  0.00    -0.322 N
ATOM     16  H42 UNL     1     -11.726 -28.156 -29.900  1.00  0.00     0.179 HD
ATOM     17  H41 UNL     1     -12.511 -29.675 -29.498  1.00  0.00     0.179 HD
ENDBRANCH   4  15
BRANCH   1  18
HETATM   18  N1  UNL     1      -9.097 -30.297 -25.774  1.00  0.00    -0.231 N
ATOM     19  H12 UNL     1      -9.056 -30.408 -24.761  1.00  0.00     0.174 HD
ATOM     20  H11 UNL     1      -8.485 -30.826 -26.396  1.00  0.00     0.174 HD
ENDBRANCH   1  18
TORSDOF 5
ENDMDL