MODEL 5
REMARK VINA RESULT: -6.643939672      2.503      5.394
REMARK  2 active torsions:
REMARK  status: ('A' for Active; 'I' for Inactive)
REMARK    1  A    between atoms: C2_2  and  C5_17
REMARK    2  A    between atoms: N1_3  and  N2_5
ROOT
HETATM    1  N2  UNL     1     -13.689 -26.997 -25.038  1.00  0.00    -0.129 N
ATOM      2  H2  UNL     1     -14.331 -27.648 -24.587  1.00  0.00     0.205 HD
HETATM    3  C3  UNL     1     -12.756 -27.502 -25.763  1.00  0.00     0.726 A
HETATM    4  N3  UNL     1     -12.672 -28.913 -25.895  1.00  0.00    -0.129 N
ATOM      5  H3  UNL     1     -13.339 -29.525 -25.425  1.00  0.00     0.205 HD
HETATM    6  N4  UNL     1     -11.652 -29.435 -26.685  1.00  0.00    -0.281 N
ATOM      7  H4  UNL     1     -11.587 -30.447 -26.784  1.00  0.00     0.188 HD
HETATM    8  C4  UNL     1     -10.779 -28.700 -27.303  1.00  0.00     0.214 A
HETATM    9  N5  UNL     1     -10.812 -27.278 -27.210  1.00  0.00    -0.281 N
ATOM     10  H5  UNL     1     -10.120 -26.712 -27.700  1.00  0.00     0.188 HD
HETATM   11  N6  UNL     1     -11.809 -26.669 -26.432  1.00  0.00    -0.129 N
ATOM     12  H6  UNL     1     -11.856 -25.654 -26.347  1.00  0.00     0.205 HD
ENDROOT
BRANCH   1  13
HETATM   13  N1  UNL     1     -13.897 -25.657 -24.816  1.00  0.00    -0.286 N
HETATM   14  C2  UNL     1     -15.024 -25.248 -24.349  1.00  0.00     0.087 C
HETATM   15  C1  UNL     1     -15.190 -23.784 -24.130  1.00  0.00     0.075 C
ATOM     16  H1  UNL     1     -13.157 -24.986 -25.022  1.00  0.00     0.187 HD
BRANCH  14  17
HETATM   17  C5  UNL     1     -16.138 -26.130 -24.025  1.00  0.00     0.278 C
HETATM   18  N7  UNL     1     -17.375 -26.049 -24.722  1.00  0.00    -0.056 NA
HETATM   19  O1  UNL     1     -15.981 -26.983 -23.096  1.00  0.00    -0.270 OA
ENDBRANCH  14  17
ENDBRANCH   1  13
TORSDOF 2
ENDMDL