MODEL 4
REMARK VINA RESULT: -6.412439980      1.476      1.557
REMARK  3 active torsions:
REMARK  status: ('A' for Active; 'I' for Inactive)
REMARK    1  A    between atoms: N1_1  and  N2_4
REMARK       I    between atoms: N2_4  and  C1_6
REMARK    2  A    between atoms: C1_6  and  C2_8
REMARK       I    between atoms: C2_8  and  N3_10
REMARK    3  A    between atoms: N3_10  and  C3_12
ROOT
HETATM    1  C2  UNL     1     -14.006 -28.158 -26.478  1.00  0.00     0.329 C
HETATM    2  O2  UNL     1     -13.902 -29.412 -26.445  1.00  0.00    -0.261 OA
HETATM    3  N3  UNL     1     -12.906 -27.311 -26.793  1.00  0.00    -0.149 N
ATOM      4  H3  UNL     1     -13.060 -26.498 -27.389  1.00  0.00     0.188 HD
ENDROOT
BRANCH   3   5
HETATM    5  C3  UNL     1     -11.725 -27.546 -26.344  1.00  0.00     0.716 A
HETATM    6  N4  UNL     1     -11.335 -27.715 -25.077  1.00  0.00    -0.115 N
HETATM    7  N5  UNL     1     -10.040 -27.935 -25.041  1.00  0.00    -0.213 N
ATOM      8  H4  UNL     1     -11.949 -27.678 -24.262  1.00  0.00     0.207 HD
HETATM    9  N6  UNL     1      -9.616 -27.904 -26.285  1.00  0.00    -0.213 N
ATOM     10  H5  UNL     1      -9.473 -28.099 -24.209  1.00  0.00     0.210 HD
HETATM   11  N7  UNL     1     -10.634 -27.665 -27.111  1.00  0.00    -0.115 N
ATOM     12  H6  UNL     1      -8.647 -28.041 -26.576  1.00  0.00     0.210 HD
ATOM     13  H7  UNL     1     -10.591 -27.588 -28.127  1.00  0.00     0.207 HD
ENDBRANCH   3   5
BRANCH   1  14
HETATM   14  C1  UNL     1     -15.267 -27.501 -26.192  1.00  0.00     0.328 C
HETATM   15  N2  UNL     1     -15.357 -26.686 -25.036  1.00  0.00    -0.268 N
ATOM     16  H2  UNL     1     -14.541 -26.578 -24.434  1.00  0.00     0.190 HD
HETATM   17  O1  UNL     1     -16.276 -27.623 -26.923  1.00  0.00    -0.261 OA
BRANCH  15  18
HETATM   18  N1  UNL     1     -16.561 -26.016 -24.700  1.00  0.00    -0.342 N
ATOM     19  H12 UNL     1     -17.415 -26.281 -25.189  1.00  0.00     0.176 HD
ATOM     20  H11 UNL     1     -16.580 -25.287 -23.987  1.00  0.00     0.176 HD
ENDBRANCH  15  18
ENDBRANCH   1  14
TORSDOF 3
ENDMDL