MODEL 1
REMARK VINA RESULT: -6.142487456      0.000      0.000
REMARK  0 active torsions:
REMARK  status: ('A' for Active; 'I' for Inactive)
ROOT
HETATM    1  C1  UNL     1     -16.029 -28.019 -26.421  1.00  0.00     0.156 C
HETATM    2  N1  UNL     1     -14.944 -27.259 -25.884  1.00  0.00    -0.357 N
HETATM    3  C2  UNL     1     -15.027 -26.002 -25.373  1.00  0.00     0.093 A
HETATM    4  C3  UNL     1     -13.824 -25.558 -24.946  1.00  0.00     0.050 A
HETATM    5  C4  UNL     1     -12.915 -26.575 -25.194  1.00  0.00     0.079 A
HETATM    6  C5  UNL     1     -13.630 -27.604 -25.768  1.00  0.00     0.104 A
HETATM    7  C6  UNL     1     -13.118 -28.758 -26.149  1.00  0.00     0.148 A
HETATM    8  N2  UNL     1     -14.054 -29.661 -26.712  1.00  0.00    -0.080 NA
HETATM    9  N3  UNL     1     -11.768 -29.255 -26.091  1.00  0.00    -0.316 N
ATOM     10  H3  UNL     1     -11.645 -30.197 -26.463  1.00  0.00     0.169 HD
HETATM   11  C7  UNL     1     -10.702 -28.713 -25.652  1.00  0.00     0.208 A
HETATM   12  N4  UNL     1      -9.484 -29.449 -25.719  1.00  0.00    -0.062 NA
HETATM   13  N5  UNL     1     -10.623 -27.400 -25.085  1.00  0.00    -0.273 N
ATOM     14  H5  UNL     1      -9.697 -27.102 -24.777  1.00  0.00     0.189 HD
HETATM   15  N6  UNL     1     -11.651 -26.479 -24.903  1.00  0.00    -0.296 N
ATOM     16  H6  UNL     1     -11.371 -25.596 -24.477  1.00  0.00     0.187 HD
ENDROOT
TORSDOF 0
ENDMDL