MODEL 1
REMARK VINA RESULT: -6.227854704      0.000      0.000
REMARK  3 active torsions:
REMARK  status: ('A' for Active; 'I' for Inactive)
REMARK    1  A    between atoms: N1_1  and  N2_4
REMARK    2  A    between atoms: C3_10  and  C4_11
REMARK       I    between atoms: C4_11  and  N4_13
REMARK    3  A    between atoms: N4_13  and  N5_15
ROOT
HETATM    1  N2  UNL     1     -10.164 -27.893 -26.557  1.00  0.00    -0.290 N
ATOM      2  H2  UNL     1      -9.761 -27.577 -27.439  1.00  0.00     0.188 HD
HETATM    3  C1  UNL     1     -11.461 -28.017 -26.414  1.00  0.00     0.149 A
HETATM    4  C2  UNL     1     -12.321 -27.722 -27.457  1.00  0.00     0.141 A
HETATM    5  N3  UNL     1     -13.636 -27.865 -27.258  1.00  0.00    -0.343 N
ATOM      6  H3  UNL     1     -14.272 -27.647 -28.027  1.00  0.00     0.167 HD
HETATM    7  C3  UNL     1     -14.156 -28.281 -26.095  1.00  0.00     0.191 A
HETATM    8  N6  UNL     1     -13.292 -28.559 -25.104  1.00  0.00    -0.279 N
ATOM      9  H6  UNL     1     -13.656 -28.878 -24.206  1.00  0.00     0.189 HD
HETATM   10  N7  UNL     1     -11.992 -28.432 -25.257  1.00  0.00    -0.282 N
ATOM     11  H7  UNL     1     -11.375 -28.654 -24.476  1.00  0.00     0.188 HD
ENDROOT
BRANCH   7  12
HETATM   12  C4  UNL     1     -15.605 -28.426 -25.915  1.00  0.00     0.304 C
HETATM   13  O1  UNL     1     -16.012 -29.283 -25.081  1.00  0.00    -0.263 OA
HETATM   14  N4  UNL     1     -16.539 -27.653 -26.632  1.00  0.00    -0.270 N
ATOM     15  H4  UNL     1     -16.204 -26.964 -27.304  1.00  0.00     0.189 HD
BRANCH  14  16
HETATM   16  N5  UNL     1     -17.886 -27.807 -26.447  1.00  0.00    -0.342 N
ATOM     17  H52 UNL     1     -18.217 -28.657 -25.990  1.00  0.00     0.176 HD
ATOM     18  H51 UNL     1     -18.550 -27.095 -26.752  1.00  0.00     0.176 HD
ENDBRANCH  14  16
ENDBRANCH   7  12
BRANCH   1  19
HETATM   19  N1  UNL     1      -9.353 -28.205 -25.468  1.00  0.00    -0.344 N
ATOM     20  H12 UNL     1      -9.703 -28.815 -24.729  1.00  0.00     0.176 HD
ATOM     21  H11 UNL     1      -8.414 -27.808 -25.441  1.00  0.00     0.176 HD
ENDBRANCH   1  19
TORSDOF 3
ENDMDL