MODEL 1
REMARK VINA RESULT: -6.634731432      0.000      0.000
REMARK  2 active torsions:
REMARK  status: ('A' for Active; 'I' for Inactive)
REMARK       I    between atoms: C1_2  and  N2_4
REMARK    1  A    between atoms: N2_4  and  N3_6
REMARK       I    between atoms: N3_6  and  C2_8
REMARK    2  A    between atoms: C2_8  and  C3_10
ROOT
HETATM    1  N3  UNL     1     -13.915 -27.725 -26.144  1.00  0.00    -0.260 N
ATOM      2  H3  UNL     1     -13.880 -27.868 -25.135  1.00  0.00     0.190 HD
HETATM    3  C2  UNL     1     -12.721 -27.737 -26.891  1.00  0.00     0.306 C
HETATM    4  O2  UNL     1     -12.771 -27.571 -28.129  1.00  0.00    -0.262 OA
ENDROOT
BRANCH   3   5
HETATM    5  C3  UNL     1     -11.457 -27.945 -26.208  1.00  0.00     0.205 A
HETATM    6  N4  UNL     1     -11.084 -27.419 -25.006  1.00  0.00    -0.267 N
HETATM    7  N5  UNL     1      -9.876 -27.869 -24.760  1.00  0.00    -0.225 N
ATOM      8  H4  UNL     1     -11.636 -26.797 -24.414  1.00  0.00     0.190 HD
HETATM    9  N6  UNL     1      -9.464 -28.653 -25.741  1.00  0.00    -0.005 NA
ATOM     10  H5  UNL     1      -9.331 -27.645 -23.927  1.00  0.00     0.205 HD
HETATM   11  N7  UNL     1     -10.431 -28.707 -26.641  1.00  0.00    -0.262 N
ATOM     12  H7  UNL     1     -10.405 -29.235 -27.514  1.00  0.00     0.186 HD
ENDBRANCH   3   5
BRANCH   1  13
HETATM   13  N2  UNL     1     -15.153 -27.520 -26.772  1.00  0.00    -0.251 N
HETATM   14  C1  UNL     1     -16.274 -28.291 -26.420  1.00  0.00     0.347 C
HETATM   15  N1  UNL     1     -17.526 -28.089 -27.051  1.00  0.00    -0.038 NA
HETATM   16  O1  UNL     1     -16.192 -29.176 -25.542  1.00  0.00    -0.249 OA
ATOM     17  H2  UNL     1     -15.241 -26.803 -27.492  1.00  0.00     0.191 HD
ENDBRANCH   1  13
TORSDOF 2
ENDMDL