MODEL 1
REMARK VINA RESULT: -6.753472796      0.000      0.000
REMARK  3 active torsions:
REMARK  status: ('A' for Active; 'I' for Inactive)
REMARK    1  A    between atoms: N4_9  and  C3_10
REMARK    2  A    between atoms: C3_10  and  O1_11
REMARK    3  A    between atoms: C3_10  and  C4_13
ROOT
HETATM    1  N1  UNL     1     -11.779 -26.480 -25.038  1.00  0.00    -0.379 N
ATOM      2  H11 UNL     1     -10.923 -26.366 -24.496  1.00  0.00     0.158 HD
ATOM      3  H12 UNL     1     -12.546 -25.859 -24.778  1.00  0.00     0.158 HD
HETATM    4  C1  UNL     1     -11.899 -27.347 -25.947  1.00  0.00     0.161 C
HETATM    5  S1  UNL     1     -13.430 -27.551 -26.916  1.00  0.00     0.032 SA
HETATM    6  N2  UNL     1     -12.778 -27.964 -28.550  1.00  0.00    -0.065 NA
HETATM    7  N3  UNL     1     -11.435 -27.490 -28.476  1.00  0.00    -0.116 NA
HETATM    8  C2  UNL     1     -10.613 -28.419 -27.757  1.00  0.00     0.265 C
HETATM    9  N4  UNL     1     -10.841 -28.202 -26.305  1.00  0.00    -0.288 N
ENDROOT
BRANCH   9  10
HETATM   10  C3  UNL     1     -10.055 -28.853 -25.353  1.00  0.00     0.212 C
BRANCH  10  11
HETATM   11  O1  UNL     1      -9.485 -28.006 -24.521  1.00  0.00    -0.342 OA
ATOM     12  H1  UNL     1      -9.428 -28.357 -23.639  1.00  0.00     0.219 HD
ENDBRANCH  10  11
BRANCH  10  13
HETATM   13  C4  UNL     1      -9.752 -30.216 -25.112  1.00  0.00     0.305 C
HETATM   14  N5  UNL     1      -8.792 -30.905 -25.951  1.00  0.00    -0.054 NA
HETATM   15  O2  UNL     1     -10.249 -30.900 -24.217  1.00  0.00    -0.267 OA
ENDBRANCH  10  13
ENDBRANCH   9  10
TORSDOF 3
ENDMDL