MODEL 3
REMARK VINA RESULT: -8.104225140      1.610      2.711
REMARK  7 active torsions:
REMARK  status: ('A' for Active; 'I' for Inactive)
REMARK    1  A    between atoms: N1_9  and  O2_11
REMARK    2  A    between atoms: C8_13  and  C9_14
REMARK       I    between atoms: C9_14  and  N2_16
REMARK    3  A    between atoms: N2_16  and  C10_18
REMARK    4  A    between atoms: C13_21  and  N3_22
REMARK    5  A    between atoms: C18_27  and  C19_28
REMARK    6  A    between atoms: C19_28  and  C20_29
REMARK    7  A    between atoms: C20_29  and  C21_30
ROOT
HETATM    1  C10 UNL     1       6.061   6.906  14.353  1.00  0.00     0.035 A
HETATM    2  C11 UNL     1       6.145   7.936  13.472  1.00  0.00     0.032 A
HETATM    3  C12 UNL     1       6.350   9.225  13.911  1.00  0.00     0.031 A
HETATM    4  C13 UNL     1       6.478   9.559  15.226  1.00  0.00     0.030 A
HETATM    5  C22 UNL     1       6.395   8.516  16.157  1.00  0.00     0.031 A
HETATM    6  C23 UNL     1       6.193   7.244  15.710  1.00  0.00     0.032 A
ENDROOT
BRANCH   1   7
HETATM    7  N2  UNL     1       5.880   5.559  14.047  1.00  0.00    -0.324 N
HETATM    8  C9  UNL     1       6.896   4.591  14.132  1.00  0.00     0.266 C
HETATM    9  O3  UNL     1       8.076   4.774  14.488  1.00  0.00    -0.269 OA
ATOM     10  H2  UNL     1       4.954   5.257  13.742  1.00  0.00     0.169 HD
BRANCH   8  11
HETATM   11  C8  UNL     1       6.600   3.149  13.769  1.00  0.00     0.214 C
HETATM   12  C5  UNL     1       6.903   3.002  12.318  1.00  0.00     0.066 C
HETATM   13  C4  UNL     1       5.628   2.553  11.689  1.00  0.00     0.048 C
HETATM   14  C6  UNL     1       7.996   1.970  12.294  1.00  0.00     0.185 C
HETATM   15  C2  UNL     1       4.719   2.314  12.860  1.00  0.00     0.056 C
HETATM   16  C1  UNL     1       3.371   3.015  12.670  1.00  0.00     0.045 C
HETATM   17  C3  UNL     1       4.475   0.826  12.987  1.00  0.00     0.045 C
HETATM   18  O4  UNL     1       5.284   2.859  13.984  1.00  0.00    -0.351 OA
HETATM   19  O1  UNL     1       8.062   1.399  13.593  1.00  0.00    -0.335 OA
HETATM   20  C7  UNL     1       7.561   2.322  14.499  1.00  0.00     0.183 C
HETATM   21  N1  UNL     1       7.859   2.455  15.745  1.00  0.00    -0.248 N
ATOM     22  H1  UNL     1       7.406   3.185  16.294  1.00  0.00     0.196 HD
BRANCH  21  23
HETATM   23  O2  UNL     1       8.771   1.633  16.342  1.00  0.00    -0.288 OA
ATOM     24  H2  UNL     1       8.846   0.720  16.091  1.00  0.00     0.244 HD
ENDBRANCH  21  23
ENDBRANCH   8  11
ENDBRANCH   1   7
BRANCH   4  25
HETATM   25  N3  UNL     1       6.674  10.840  15.730  1.00  0.00    -0.373 N
HETATM   26  C14 UNL     1       5.610  11.387  16.594  1.00  0.00     0.123 C
HETATM   27  C15 UNL     1       6.275  11.555  17.941  1.00  0.00     0.020 C
HETATM   28  C16 UNL     1       7.730  11.170  17.953  1.00  0.00     0.004 C
HETATM   29  C17 UNL     1       8.535  11.839  16.838  1.00  0.00     0.029 C
HETATM   30  C18 UNL     1       7.785  11.767  15.525  1.00  0.00     0.107 C
BRANCH  30  31
HETATM   31  C19 UNL     1       8.532  11.510  14.299  1.00  0.00     0.003 C
BRANCH  31  32
HETATM   32  C20 UNL     1       9.698  12.272  13.846  1.00  0.00     0.086 C
BRANCH  32  33
HETATM   33  C21 UNL     1      10.807  12.685  14.708  1.00  0.00     0.407 C
HETATM   34  F1  UNL     1      11.760  13.290  13.800  1.00  0.00    -0.167 F
HETATM   35  F2  UNL     1      11.485  11.712  15.361  1.00  0.00    -0.167 F
HETATM   36  F3  UNL     1      10.546  13.814  15.515  1.00  0.00    -0.167 F
ENDBRANCH  32  33
ENDBRANCH  31  32
ENDBRANCH  30  31
ENDBRANCH   4  25
TORSDOF 7
ENDMDL