MODEL 1
REMARK VINA RESULT: -7.113162759      0.000      0.000
REMARK  10 active torsions:
REMARK  status: ('A' for Active; 'I' for Inactive)
REMARK    1  A    between atoms: C2_2  and  O1_5
REMARK    2  A    between atoms: O1_5  and  C5_6
REMARK       I    between atoms: C5_6  and  N1_8
REMARK    3  A    between atoms: N1_8  and  C6_10
REMARK    4  A    between atoms: C6_10  and  C7_11
REMARK    5  A    between atoms: C7_11  and  N2_13
REMARK    6  A    between atoms: C7_11  and  C14_22
REMARK       I    between atoms: N2_13  and  C9_15
REMARK    7  A    between atoms: C9_15  and  O4_17
REMARK    8  A    between atoms: O4_17  and  C10_18
REMARK    9  A    between atoms: C14_22  and  O6_24
REMARK   10  A    between atoms: O6_24  and  C15_25
ROOT
HETATM    1  C7  UNL     1       6.303  11.119  15.527  1.00  0.00     0.151 C
HETATM    2  C8  UNL     1       5.612  11.438  14.265  1.00  0.00     0.056 C
ENDROOT
BRANCH   1   3
HETATM    3  C6  UNL     1       6.380  12.143  16.549  1.00  0.00     0.107 C
BRANCH   3   4
HETATM    4  N1  UNL     1       6.941  11.915  17.810  1.00  0.00    -0.314 N
HETATM    5  C5  UNL     1       8.191  11.494  18.264  1.00  0.00     0.365 C
HETATM    6  O2  UNL     1       9.142  11.202  17.534  1.00  0.00    -0.238 OA
ATOM      7  H1  UNL     1       6.286  12.099  18.571  1.00  0.00     0.170 HD
BRANCH   5   8
HETATM    8  O1  UNL     1       8.402  11.392  19.640  1.00  0.00    -0.294 OA
BRANCH   8   9
HETATM    9  C2  UNL     1       9.532  11.418  20.408  1.00  0.00     0.061 C
HETATM   10  C1  UNL     1       9.206  11.304  21.898  1.00  0.00     0.046 C
HETATM   11  C3  UNL     1      10.542  10.382  20.026  1.00  0.00     0.046 C
HETATM   12  C4  UNL     1      10.164  12.809  20.210  1.00  0.00     0.046 C
ENDBRANCH   8   9
ENDBRANCH   5   8
ENDBRANCH   3   4
ENDBRANCH   1   3
BRANCH   1  13
HETATM   13  N2  UNL     1       7.793  11.103  14.980  1.00  0.00    -0.314 N
HETATM   14  C9  UNL     1       8.232  12.329  14.510  1.00  0.00     0.362 C
HETATM   15  O3  UNL     1       7.574  13.410  14.479  1.00  0.00    -0.238 OA
ATOM     16  H2  UNL     1       8.376  10.266  14.975  1.00  0.00     0.166 HD
BRANCH  14  17
HETATM   17  O4  UNL     1       9.534  12.426  14.003  1.00  0.00    -0.294 OA
BRANCH  17  18
HETATM   18  C10 UNL     1      10.564  13.141  14.582  1.00  0.00     0.061 C
HETATM   19  C11 UNL     1      10.663  14.473  13.816  1.00  0.00     0.046 C
HETATM   20  C12 UNL     1      10.451  13.449  16.031  1.00  0.00     0.046 C
HETATM   21  C13 UNL     1      11.922  12.449  14.349  1.00  0.00     0.046 C
ENDBRANCH  17  18
ENDBRANCH  14  17
ENDBRANCH   1  13
BRANCH   1  22
HETATM   22  C14 UNL     1       6.209   9.718  15.943  1.00  0.00     0.293 C
HETATM   23  O5  UNL     1       5.716   9.267  16.992  1.00  0.00    -0.262 OA
BRANCH  22  24
HETATM   24  O6  UNL     1       6.729   8.711  15.156  1.00  0.00    -0.304 OA
BRANCH  24  25
HETATM   25  C15 UNL     1       6.300   7.719  14.395  1.00  0.00     0.114 C
HETATM   26  C16 UNL     1       5.613   6.677  15.350  1.00  0.00     0.053 C
HETATM   27  C17 UNL     1       5.805   5.403  14.654  1.00  0.00     0.065 C
HETATM   28  C18 UNL     1       5.143   5.480  13.308  1.00  0.00     0.019 C
HETATM   29  C22 UNL     1       7.285   5.553  14.229  1.00  0.00     0.286 C
HETATM   30  C19 UNL     1       5.893   6.632  12.687  1.00  0.00     0.038 C
HETATM   31  C20 UNL     1       5.370   7.940  13.240  1.00  0.00     0.050 C
HETATM   32  C21 UNL     1       7.137   6.868  13.515  1.00  0.00     0.204 C
HETATM   33  F1  UNL     1       8.200   7.374  12.887  1.00  0.00    -0.233 F
HETATM   34  F2  UNL     1       8.063   5.687  15.371  1.00  0.00    -0.202 F
HETATM   35  F3  UNL     1       7.645   4.508  13.436  1.00  0.00    -0.202 F
ENDBRANCH  24  25
ENDBRANCH  22  24
ENDBRANCH   1  22
TORSDOF 10
ENDMDL