MODEL 2
REMARK VINA RESULT: -7.808198264      7.689     11.480
REMARK  6 active torsions:
REMARK  status: ('A' for Active; 'I' for Inactive)
REMARK    1  A    between atoms: C1_2  and  C2_4
REMARK    2  A    between atoms: C5_7  and  N2_8
REMARK    3  A    between atoms: N2_8  and  C6_10
REMARK    4  A    between atoms: N3_13  and  C9_14
REMARK    5  A    between atoms: C12_17  and  C13_18
REMARK       I    between atoms: C13_18  and  N4_20
REMARK    6  A    between atoms: C20_27  and  C21_28
ROOT
HETATM    1  C9  UNL     1       6.077   8.338  14.630  1.00  0.00     0.103 A
HETATM    2  C10 UNL     1       6.420   7.604  15.772  1.00  0.00     0.049 A
HETATM    3  C11 UNL     1       6.352   6.240  15.750  1.00  0.00     0.023 A
HETATM    4  C12 UNL     1       5.945   5.531  14.611  1.00  0.00     0.063 A
HETATM    5  C20 UNL     1       5.616   6.275  13.507  1.00  0.00     0.134 A
HETATM    6  N5  UNL     1       5.698   7.641  13.569  1.00  0.00    -0.338 N
ATOM      7  H5  UNL     1       5.445   8.164  12.731  1.00  0.00     0.167 HD
ENDROOT
BRANCH   1   8
HETATM    8  N3  UNL     1       6.155   9.750  14.668  1.00  0.00    -0.367 N
HETATM    9  C8  UNL     1       7.020  10.412  15.607  1.00  0.00     0.126 C
HETATM   10  C7  UNL     1       6.562  11.853  15.732  1.00  0.00     0.045 C
HETATM   11  C6  UNL     1       6.715  12.575  14.416  1.00  0.00     0.086 C
HETATM   12  C23 UNL     1       6.090  11.783  13.312  1.00  0.00     0.045 C
HETATM   13  C22 UNL     1       5.372  10.537  13.766  1.00  0.00     0.126 C
BRANCH  11  14
HETATM   14  N2  UNL     1       8.075  12.946  14.111  1.00  0.00    -0.366 N
ATOM     15  H2  UNL     1       8.293  13.284  13.174  1.00  0.00     0.162 HD
BRANCH  14  16
HETATM   16  C5  UNL     1       9.121  12.859  15.067  1.00  0.00     0.144 A
HETATM   17  C4  UNL     1      10.396  12.398  14.844  1.00  0.00     0.059 A
HETATM   18  C3  UNL     1      11.073  12.489  16.033  1.00  0.00     0.047 A
HETATM   19  C2  UNL     1      10.190  13.004  16.954  1.00  0.00     0.142 A
HETATM   20  O3  UNL     1       9.066  13.202  16.342  1.00  0.00    -0.289 OA
BRANCH  19  21
HETATM   21  C1  UNL     1      10.485  13.273  18.372  1.00  0.00     0.288 C
HETATM   22  N1  UNL     1      10.031  12.346  19.348  1.00  0.00    -0.055 NA
HETATM   23  O1  UNL     1      11.126  14.304  18.685  1.00  0.00    -0.269 OA
ENDBRANCH  19  21
ENDBRANCH  14  16
ENDBRANCH  11  14
ENDBRANCH   1   8
BRANCH   5  24
HETATM   24  C21 UNL     1       5.218   5.683  12.238  1.00  0.00     0.433 C
HETATM   25  F1  UNL     1       5.166   6.702  11.270  1.00  0.00    -0.165 F
HETATM   26  F2  UNL     1       6.095   4.722  11.775  1.00  0.00    -0.165 F
HETATM   27  F3  UNL     1       3.964   5.130  12.304  1.00  0.00    -0.165 F
ENDBRANCH   5  24
BRANCH   4  28
HETATM   28  C13 UNL     1       5.841   4.102  14.613  1.00  0.00     0.256 C
HETATM   29  O2  UNL     1       4.728   3.557  14.754  1.00  0.00    -0.267 OA
HETATM   30  N4  UNL     1       6.982   3.290  14.452  1.00  0.00    -0.348 N
HETATM   31  C14 UNL     1       6.772   1.830  14.491  1.00  0.00     0.126 C
HETATM   32  C19 UNL     1       8.288   3.861  14.222  1.00  0.00     0.126 C
HETATM   33  C15 UNL     1       7.485   1.315  15.716  1.00  0.00     0.020 C
HETATM   34  C16 UNL     1       8.842   0.784  15.310  1.00  0.00     0.002 C
HETATM   35  C17 UNL     1       9.690   1.824  14.644  1.00  0.00     0.002 C
HETATM   36  C18 UNL     1       9.367   3.234  15.070  1.00  0.00     0.020 C
ENDBRANCH   4  28
TORSDOF 6
ENDMDL