MODEL 3
REMARK VINA RESULT: -5.253558464      2.806      4.059
REMARK  6 active torsions:
REMARK  status: ('A' for Active; 'I' for Inactive)
REMARK    1  A    between atoms: C2_2  and  O1_4
REMARK    2  A    between atoms: O1_4  and  C4_5
REMARK    3  A    between atoms: C12_13  and  C13_14
REMARK    4  A    between atoms: C13_14  and  C14_15
REMARK    5  A    between atoms: C14_15  and  C15_16
REMARK    6  A    between atoms: C15_16  and  N1_17
ROOT
HETATM    1  C4  UNL     1       6.614   1.606   9.409  1.00  0.00     0.194 C
HETATM    2  C5  UNL     1       6.780   0.783  10.668  1.00  0.00     0.039 C
HETATM    3  C6  UNL     1       5.887   1.241  11.799  1.00  0.00     0.018 C
HETATM    4  C7  UNL     1       5.972   2.731  12.013  1.00  0.00     0.026 C
HETATM    5  C8  UNL     1       7.310   2.966  12.731  1.00  0.00     0.054 C
HETATM    6  C9  UNL     1       6.958   4.099  13.647  1.00  0.00    -0.046 A
HETATM    7  C10 UNL     1       7.852   4.972  14.276  1.00  0.00     0.008 A
HETATM    8  C11 UNL     1       7.346   5.964  15.082  1.00  0.00     0.007 A
HETATM    9  C12 UNL     1       5.981   6.100  15.270  1.00  0.00    -0.057 A
HETATM   10  C19 UNL     1       5.153   5.214  14.626  1.00  0.00     0.020 A
HETATM   11  C20 UNL     1       5.603   4.190  13.800  1.00  0.00     0.007 A
HETATM   12  C21 UNL     1       4.957   3.132  13.020  1.00  0.00     0.200 C
HETATM   13  N2  UNL     1       3.687   3.523  12.460  1.00  0.00    -0.325 N
ATOM     14  H2  UNL     1       3.528   4.089  11.627  1.00  0.00     0.165 HD
HETATM   15  C22 UNL     1       2.788   3.003  13.241  1.00  0.00     0.212 C
HETATM   16  N3  UNL     1       1.384   3.118  13.093  1.00  0.00    -0.062 NA
HETATM   17  N4  UNL     1       3.421   2.284  14.295  1.00  0.00    -0.231 N
HETATM   18  C23 UNL     1       2.920   1.886  15.574  1.00  0.00     0.188 C
HETATM   19  O2  UNL     1       4.677   2.029  13.825  1.00  0.00    -0.237 OA
HETATM   20  C24 UNL     1       5.932   3.517  10.750  1.00  0.00     0.097 C
HETATM   21  C25 UNL     1       5.563   2.682   9.540  1.00  0.00     0.270 C
HETATM   22  F2  UNL     1       5.691   3.509   8.444  1.00  0.00    -0.203 F
HETATM   23  F3  UNL     1       4.304   2.214   9.724  1.00  0.00    -0.203 F
ENDROOT
BRANCH   1  24
HETATM   24  O1  UNL     1       6.499   0.842   8.277  1.00  0.00    -0.375 OA
BRANCH  24  25
HETATM   25  C2  UNL     1       7.475   0.934   7.349  1.00  0.00     0.114 C
HETATM   26  C1  UNL     1       6.860   1.590   6.101  1.00  0.00     0.039 C
HETATM   27  C3  UNL     1       8.611   1.882   7.758  1.00  0.00     0.039 C
ENDBRANCH  24  25
ENDBRANCH   1  24
BRANCH   9  28
HETATM   28  C13 UNL     1       5.388   7.136  16.130  1.00  0.00     0.049 C
BRANCH  28  29
HETATM   29  C14 UNL     1       5.717   8.545  15.790  1.00  0.00    -0.008 C
HETATM   30  C16 UNL     1       7.141   8.967  16.072  1.00  0.00     0.049 C
HETATM   31  C17 UNL     1       6.576  10.342  16.461  1.00  0.00     0.171 C
HETATM   32  F1  UNL     1       7.197  10.875  17.577  1.00  0.00    -0.249 F
HETATM   33  C18 UNL     1       5.284   9.608  16.787  1.00  0.00     0.049 C
BRANCH  29  34
HETATM   34  C15 UNL     1       5.371   8.966  14.379  1.00  0.00     0.239 C
BRANCH  34  35
HETATM   35  N1  UNL     1       6.441   8.827  13.451  1.00  0.00    -0.079 N
ATOM     36  H13 UNL     1       7.176   8.236  13.839  1.00  0.00     0.274 HD
ATOM     37  H12 UNL     1       6.154   8.251  12.659  1.00  0.00     0.274 HD
ATOM     38  H11 UNL     1       6.829   9.713  13.126  1.00  0.00     0.274 HD
ENDBRANCH  34  35
ENDBRANCH  29  34
ENDBRANCH  28  29
ENDBRANCH   9  28
TORSDOF 6
ENDMDL