MODEL 2
REMARK VINA RESULT: -8.070813037      1.159      1.644
REMARK  6 active torsions:
REMARK  status: ('A' for Active; 'I' for Inactive)
REMARK    1  A    between atoms: C2_2  and  C3_4
REMARK    2  A    between atoms: C8_10  and  N1_11
REMARK    3  A    between atoms: C10_13  and  O2_14
REMARK    4  A    between atoms: O2_14  and  C11_15
REMARK    5  A    between atoms: C15_19  and  C16_20
REMARK    6  A    between atoms: C19_23  and  C20_24
ROOT
HETATM    1  C11 UNL     1       6.133   8.100  14.933  1.00  0.00     0.072 A
HETATM    2  C12 UNL     1       5.688   8.571  13.721  1.00  0.00     0.037 A
HETATM    3  C13 UNL     1       5.777   9.911  13.334  1.00  0.00     0.003 A
HETATM    4  C14 UNL     1       6.333  10.818  14.194  1.00  0.00     0.010 A
HETATM    5  C15 UNL     1       6.797  10.382  15.432  1.00  0.00    -0.028 A
HETATM    6  C22 UNL     1       6.700   9.063  15.789  1.00  0.00     0.046 A
ENDROOT
BRANCH   5   7
HETATM    7  C16 UNL     1       7.382  11.444  16.286  1.00  0.00     0.060 C
HETATM    8  C17 UNL     1       6.439  12.505  16.727  1.00  0.00     0.044 C
HETATM    9  C18 UNL     1       8.015  10.787  17.526  1.00  0.00     0.077 C
HETATM   10  C19 UNL     1       8.720  11.881  18.326  1.00  0.00     0.242 C
HETATM   11  O3  UNL     1       9.843  12.286  17.538  1.00  0.00    -0.308 OA
HETATM   12  C21 UNL     1       9.553  12.641  16.213  1.00  0.00     0.214 C
HETATM   13  N2  UNL     1      10.296  13.535  15.602  1.00  0.00    -0.365 N
HETATM   14  N3  UNL     1       8.468  12.041  15.536  1.00  0.00    -0.344 N
ATOM     15  H22 UNL     1      11.080  13.968  16.091  1.00  0.00     0.159 HD
ATOM     16  H21 UNL     1      10.085  13.793  14.638  1.00  0.00     0.159 HD
ATOM     17  H3  UNL     1       8.449  12.028  14.517  1.00  0.00     0.164 HD
BRANCH  10  18
HETATM   18  C20 UNL     1       9.179  11.245  19.621  1.00  0.00     0.413 C
HETATM   19  F1  UNL     1       9.858  12.194  20.332  1.00  0.00    -0.168 F
HETATM   20  F2  UNL     1       8.048  10.909  20.331  1.00  0.00    -0.168 F
HETATM   21  F3  UNL     1       9.955  10.118  19.385  1.00  0.00    -0.168 F
ENDBRANCH  10  18
ENDBRANCH   5   7
BRANCH   1  22
HETATM   22  O2  UNL     1       6.039   6.791  15.305  1.00  0.00    -0.314 OA
BRANCH  22  23
HETATM   23  C10 UNL     1       6.966   5.825  14.903  1.00  0.00     0.394 A
HETATM   24  N1  UNL     1       6.638   4.620  14.226  1.00  0.00     0.129 N
HETATM   25  C9  UNL     1       7.038   5.687  13.388  1.00  0.00     0.341 A
BRANCH  24  26
HETATM   26  C8  UNL     1       5.420   3.969  14.157  1.00  0.00     0.243 C
HETATM   27  C3  UNL     1       5.508   2.492  14.521  1.00  0.00     0.056 C
HETATM   28  C4  UNL     1       6.564   2.357  15.633  1.00  0.00     0.026 C
HETATM   29  C5  UNL     1       5.936   1.583  13.433  1.00  0.00     0.092 C
HETATM   30  S1  UNL     1       6.432   2.480  11.937  1.00  0.00    -0.168 SA
HETATM   31  C6  UNL     1       5.108   3.693  11.636  1.00  0.00     0.076 C
HETATM   32  C7  UNL     1       4.570   4.159  12.939  1.00  0.00     0.047 C
BRANCH  27  33
HETATM   33  C2  UNL     1       4.232   2.075  15.147  1.00  0.00     0.134 C
HETATM   34  C1  UNL     1       3.635   0.788  14.636  1.00  0.00     0.091 C
HETATM   35  O1  UNL     1       3.629   2.654  16.014  1.00  0.00    -0.297 OA
ENDBRANCH  27  33
ENDBRANCH  24  26
ENDBRANCH  22  23
ENDBRANCH   1  22
TORSDOF 6
ENDMDL