MODEL 3
REMARK VINA RESULT: -7.249256710      2.403      2.778
REMARK  8 active torsions:
REMARK  status: ('A' for Active; 'I' for Inactive)
REMARK    1  A    between atoms: C2_2  and  O1_5
REMARK    2  A    between atoms: O1_5  and  C5_6
REMARK       I    between atoms: C5_6  and  N1_8
REMARK    3  A    between atoms: C8_11  and  N2_12
REMARK    4  A    between atoms: N2_12  and  C9_15
REMARK    5  A    between atoms: C9_15  and  C10_16
REMARK       I    between atoms: C10_16  and  N3_18
REMARK    6  A    between atoms: N3_18  and  C11_20
REMARK    7  A    between atoms: C15_24  and  O4_25
REMARK    8  A    between atoms: O4_25  and  C16_26
ROOT
HETATM    1  N2  UNL     1       7.822  12.648  15.000  1.00  0.00    -0.058 N
ATOM      2  H21 UNL     1       7.455  12.635  15.951  1.00  0.00     0.278 HD
ATOM      3  H22 UNL     1       7.159  13.309  14.595  1.00  0.00     0.278 HD
ENDROOT
BRANCH   1   4
HETATM    4  C8  UNL     1       7.748  11.366  14.378  1.00  0.00     0.243 C
HETATM    5  C7  UNL     1       7.444  11.554  12.905  1.00  0.00     0.058 C
HETATM    6  C6  UNL     1       6.124  10.820  12.726  1.00  0.00     0.133 C
HETATM    7  N1  UNL     1       6.136   9.828  13.780  1.00  0.00    -0.293 N
HETATM    8  C5  UNL     1       5.665   8.498  13.619  1.00  0.00     0.366 C
HETATM    9  C18 UNL     1       6.698  10.467  14.949  1.00  0.00     0.168 C
HETATM   10  O2  UNL     1       5.200   8.102  12.523  1.00  0.00    -0.238 OA
HETATM   11  C19 UNL     1       5.655  11.220  15.734  1.00  0.00     0.064 C
HETATM   12  O5  UNL     1       7.259   9.450  15.724  1.00  0.00    -0.358 OA
HETATM   13  C20 UNL     1       5.136  10.389  16.915  1.00  0.00     0.007 C
HETATM   14  C21 UNL     1       6.341  10.174  17.824  1.00  0.00     0.026 C
HETATM   15  C22 UNL     1       7.569   9.861  16.997  1.00  0.00     0.171 C
BRANCH   8  16
HETATM   16  O1  UNL     1       5.691   7.569  14.658  1.00  0.00    -0.294 OA
BRANCH  16  17
HETATM   17  C2  UNL     1       6.434   6.369  14.582  1.00  0.00     0.061 C
HETATM   18  C1  UNL     1       7.284   6.285  15.826  1.00  0.00     0.046 C
HETATM   19  C3  UNL     1       7.285   6.270  13.354  1.00  0.00     0.046 C
HETATM   20  C4  UNL     1       5.505   5.153  14.590  1.00  0.00     0.046 C
ENDBRANCH  16  17
ENDBRANCH   8  16
ENDBRANCH   1   4
BRANCH   1  21
HETATM   21  C9  UNL     1       9.176  13.139  14.950  1.00  0.00     0.335 C
BRANCH  21  22
HETATM   22  C10 UNL     1       9.782  13.174  16.336  1.00  0.00     0.247 C
HETATM   23  O3  UNL     1      10.988  13.500  16.365  1.00  0.00    -0.271 OA
HETATM   24  N3  UNL     1       8.943  12.845  17.408  1.00  0.00    -0.326 N
ATOM     25  H3  UNL     1       7.976  12.597  17.197  1.00  0.00     0.169 HD
BRANCH  24  26
HETATM   26  C11 UNL     1       9.346  12.834  18.758  1.00  0.00     0.037 A
HETATM   27  C12 UNL     1       9.276  11.584  19.407  1.00  0.00     0.029 A
HETATM   28  C13 UNL     1       9.643  11.532  20.722  1.00  0.00     0.005 A
HETATM   29  C14 UNL     1      10.071  12.647  21.418  1.00  0.00     0.037 A
HETATM   30  C15 UNL     1      10.129  13.851  20.760  1.00  0.00     0.080 A
HETATM   31  C17 UNL     1       9.760  13.953  19.405  1.00  0.00     0.066 A
BRANCH  30  32
HETATM   32  O4  UNL     1      10.548  14.965  21.423  1.00  0.00    -0.255 OA
BRANCH  32  33
HETATM   33  C16 UNL     1      11.180  16.083  20.884  1.00  0.00     0.530 C
HETATM   34  F1  UNL     1      10.314  17.111  20.586  1.00  0.00    -0.144 F
HETATM   35  F2  UNL     1      12.166  16.582  21.714  1.00  0.00    -0.144 F
HETATM   36  F3  UNL     1      11.802  15.736  19.685  1.00  0.00    -0.144 F
ENDBRANCH  32  33
ENDBRANCH  30  32
ENDBRANCH  24  26
ENDBRANCH  21  22
ENDBRANCH   1  21
TORSDOF 8
ENDMDL