MODEL 2
REMARK VINA RESULT: -7.784253091      7.326     10.568
REMARK  6 active torsions:
REMARK  status: ('A' for Active; 'I' for Inactive)
REMARK    1  A    between atoms: C3_5  and  C4_6
REMARK       I    between atoms: C4_6  and  N2_8
REMARK    2  A    between atoms: N2_8  and  C5_10
REMARK    3  A    between atoms: C7_16  and  C8_17
REMARK    4  A    between atoms: C8_17  and  N5_18
REMARK    5  A    between atoms: N6_25  and  C14_26
REMARK    6  A    between atoms: C18_30  and  C19_31
ROOT
HETATM    1  C1  UNL     1       6.088  12.062  13.304  1.00  0.00     0.089 C
HETATM    2  C2  UNL     1       6.334  10.821  14.039  1.00  0.00     0.080 A
HETATM    3  N1  UNL     1       5.789   9.626  13.738  1.00  0.00    -0.341 N
ATOM      4  H1  UNL     1       5.144   9.452  12.967  1.00  0.00     0.167 HD
HETATM    5  C3  UNL     1       6.216   8.713  14.595  1.00  0.00     0.118 A
HETATM    6  C13 UNL     1       7.057   9.378  15.456  1.00  0.00     0.128 A
HETATM    7  N6  UNL     1       7.126  10.696  15.102  1.00  0.00    -0.334 N
ENDROOT
BRANCH   5   8
HETATM    8  C4  UNL     1       5.882   7.269  14.656  1.00  0.00     0.274 C
HETATM    9  O1  UNL     1       5.412   6.761  15.688  1.00  0.00    -0.266 OA
HETATM   10  N2  UNL     1       6.109   6.470  13.505  1.00  0.00    -0.319 N
ATOM     11  H2  UNL     1       6.496   6.934  12.683  1.00  0.00     0.169 HD
BRANCH  10  12
HETATM   12  C5  UNL     1       5.848   5.104  13.404  1.00  0.00     0.078 A
HETATM   13  C6  UNL     1       4.861   4.440  12.712  1.00  0.00     0.138 A
HETATM   14  N3  UNL     1       5.001   3.107  12.909  1.00  0.00    -0.309 N
HETATM   15  N4  UNL     1       6.028   2.912  13.692  1.00  0.00    -0.301 N
ATOM     16  H3  UNL     1       4.405   2.379  12.513  1.00  0.00     0.186 HD
HETATM   17  C7  UNL     1       6.587   4.097  14.028  1.00  0.00     0.082 A
ATOM     18  H4  UNL     1       6.360   2.000  14.004  1.00  0.00     0.186 HD
BRANCH  17  19
HETATM   19  C8  UNL     1       7.776   4.321  14.874  1.00  0.00     0.333 C
BRANCH  19  20
HETATM   20  N5  UNL     1       8.354   3.088  15.311  1.00  0.00     0.098 N
HETATM   21  C9  UNL     1       9.558   2.791  14.521  1.00  0.00     0.299 C
HETATM   22  C10 UNL     1      10.200   1.593  15.176  1.00  0.00     0.198 C
HETATM   23  O2  UNL     1       9.453   1.026  16.183  1.00  0.00    -0.388 OA
HETATM   24  C11 UNL     1       9.132   1.914  17.216  1.00  0.00     0.198 C
HETATM   25  C12 UNL     1       8.854   3.291  16.682  1.00  0.00     0.299 C
ENDBRANCH  19  20
ENDBRANCH  17  19
ENDBRANCH  10  12
ENDBRANCH   5   8
BRANCH   7  26
HETATM   26  C14 UNL     1       7.932  11.585  15.849  1.00  0.00     0.041 C
HETATM   27  C15 UNL     1       8.188  12.799  14.952  1.00  0.00     0.039 C
HETATM   28  C16 UNL     1       9.289  11.096  16.224  1.00  0.00     0.032 C
HETATM   29  C17 UNL     1      10.111  12.267  16.804  1.00  0.00     0.016 C
HETATM   30  C18 UNL     1       9.385  13.057  17.826  1.00  0.00     0.094 C
HETATM   31  C20 UNL     1       8.141  12.350  18.235  1.00  0.00     0.024 C
HETATM   32  C21 UNL     1       7.228  11.931  17.115  1.00  0.00    -0.022 C
HETATM   33  C22 UNL     1       6.539  10.664  17.650  1.00  0.00     0.017 C
HETATM   34  C23 UNL     1       6.114  12.914  17.013  1.00  0.00     0.017 C
BRANCH  30  35
HETATM   35  C19 UNL     1      10.213  13.216  19.116  1.00  0.00     0.391 C
HETATM   36  F1  UNL     1      10.522  12.006  19.660  1.00  0.00    -0.171 F
HETATM   37  F2  UNL     1       9.511  13.961  20.043  1.00  0.00    -0.171 F
HETATM   38  F3  UNL     1      11.389  13.882  18.865  1.00  0.00    -0.171 F
ENDBRANCH  30  35
ENDBRANCH   7  26
TORSDOF 6
ENDMDL