MODEL 2
REMARK VINA RESULT: -10.726477112      0.638      1.093
REMARK  8 active torsions:
REMARK  status: ('A' for Active; 'I' for Inactive)
REMARK    1  A    between atoms: C2_2  and  C4_4
REMARK    2  A    between atoms: C10_11  and  C11_12
REMARK    3  A    between atoms: C11_12  and  O2_14
REMARK    4  A    between atoms: C11_12  and  C13_16
REMARK    5  A    between atoms: C13_16  and  N1_17
REMARK    6  A    between atoms: C13_16  and  C14_21
REMARK       I    between atoms: C14_21  and  N2_23
REMARK    7  A    between atoms: N3_26  and  C17_27
REMARK    8  A    between atoms: C20_30  and  C21_31
ROOT
HETATM    1  C13 UNL     1       5.961  10.971  15.843  1.00  0.00     0.309 C
ENDROOT
BRANCH   1   2
HETATM    2  C11 UNL     1       6.924  12.106  15.887  1.00  0.00     0.099 C
HETATM    3  C12 UNL     1       6.628  13.165  14.917  1.00  0.00     0.049 C
BRANCH   2   4
HETATM    4  C10 UNL     1       8.312  11.607  15.980  1.00  0.00     0.058 C
HETATM    5  C6  UNL     1       8.921  11.926  17.331  1.00  0.00    -0.019 A
HETATM    6  C5  UNL     1       8.912  11.587  18.675  1.00  0.00     0.043 A
HETATM    7  C7  UNL     1       9.861  12.919  17.205  1.00  0.00     0.060 A
HETATM    8  C4  UNL     1       9.846  12.390  19.295  1.00  0.00     0.057 A
HETATM    9  O1  UNL     1      10.374  13.157  18.370  1.00  0.00    -0.319 OA
HETATM   10  C8  UNL     1       9.918  13.334  15.754  1.00  0.00     0.066 C
HETATM   11  C9  UNL     1       9.352  12.098  15.078  1.00  0.00     0.019 C
BRANCH   8  12
HETATM   12  C2  UNL     1      10.192  12.383  20.732  1.00  0.00     0.035 C
HETATM   13  C1  UNL     1       9.562  11.203  21.451  1.00  0.00     0.016 C
HETATM   14  C3  UNL     1       9.829  13.658  21.453  1.00  0.00     0.016 C
ENDBRANCH   8  12
ENDBRANCH   2   4
BRANCH   2  15
HETATM   15  O2  UNL     1       6.696  12.720  17.185  1.00  0.00    -0.387 OA
ATOM     16  H2  UNL     1       5.847  13.137  17.088  1.00  0.00     0.210 HD
ENDBRANCH   2  15
ENDBRANCH   1   2
BRANCH   1  17
HETATM   17  N1  UNL     1       6.160  10.075  16.935  1.00  0.00    -0.064 N
ATOM     18  H13 UNL     1       7.127   9.755  16.983  1.00  0.00     0.275 HD
ATOM     19  H12 UNL     1       6.109  10.561  17.830  1.00  0.00     0.275 HD
ATOM     20  H11 UNL     1       5.508   9.292  16.898  1.00  0.00     0.275 HD
ENDBRANCH   1  17
BRANCH   1  21
HETATM   21  C14 UNL     1       5.773  10.310  14.554  1.00  0.00     0.253 C
HETATM   22  O3  UNL     1       5.354  10.961  13.572  1.00  0.00    -0.271 OA
HETATM   23  N2  UNL     1       6.060   8.936  14.391  1.00  0.00    -0.347 N
HETATM   24  C15 UNL     1       6.408   8.133  15.549  1.00  0.00     0.145 C
HETATM   25  C24 UNL     1       6.038   8.371  13.069  1.00  0.00     0.145 C
HETATM   26  C16 UNL     1       5.597   6.816  15.407  1.00  0.00     0.144 C
HETATM   27  N3  UNL     1       6.199   6.218  14.202  1.00  0.00    -0.364 N
HETATM   28  C23 UNL     1       5.945   6.889  12.966  1.00  0.00     0.144 C
BRANCH  27  29
HETATM   29  C17 UNL     1       6.944   5.029  14.379  1.00  0.00     0.103 A
HETATM   30  C18 UNL     1       7.029   4.075  13.408  1.00  0.00     0.049 A
HETATM   31  C19 UNL     1       7.782   2.914  13.620  1.00  0.00     0.021 A
HETATM   32  C20 UNL     1       8.422   2.784  14.831  1.00  0.00     0.063 A
HETATM   33  C22 UNL     1       8.310   3.785  15.798  1.00  0.00     0.106 A
HETATM   34  N4  UNL     1       7.583   4.887  15.576  1.00  0.00    -0.352 N
ATOM     35  H4  UNL     1       7.508   5.609  16.291  1.00  0.00     0.166 HD
BRANCH  32  36
HETATM   36  C21 UNL     1       9.236   1.596  15.117  1.00  0.00     0.418 C
HETATM   37  F1  UNL     1       9.406   0.784  14.000  1.00  0.00    -0.166 F
HETATM   38  F2  UNL     1      10.506   1.983  15.563  1.00  0.00    -0.166 F
HETATM   39  F3  UNL     1       8.603   0.874  16.112  1.00  0.00    -0.166 F
ENDBRANCH  32  36
ENDBRANCH  27  29
ENDBRANCH   1  21
TORSDOF 8
ENDMDL