MODEL 4
REMARK VINA RESULT: -7.072897284      9.619     13.301
REMARK  6 active torsions:
REMARK  status: ('A' for Active; 'I' for Inactive)
REMARK    1  A    between atoms: C2_2  and  C3_3
REMARK    2  A    between atoms: C3_3  and  C4_4
REMARK    3  A    between atoms: N1_8  and  N2_10
REMARK    4  A    between atoms: N2_10  and  C7_12
REMARK    5  A    between atoms: S1_24  and  C17_25
REMARK    6  A    between atoms: C18_27  and  O2_28
ROOT
HETATM    1  C4  UNL     1       3.444   2.989  12.952  1.00  0.00     0.146 C
HETATM    2  C5  UNL     1       4.913   3.163  13.256  1.00  0.00     0.209 C
HETATM    3  O1  UNL     1       5.391   4.436  12.882  1.00  0.00    -0.335 OA
HETATM    4  C6  UNL     1       5.057   5.309  11.870  1.00  0.00     0.142 C
HETATM    5  N1  UNL     1       5.663   6.442  11.927  1.00  0.00    -0.283 N
ATOM      6  H1  UNL     1       5.470   7.143  11.213  1.00  0.00     0.188 HD
HETATM    7  C13 UNL     1       4.105   5.091  10.758  1.00  0.00     0.129 C
HETATM    8  C14 UNL     1       2.861   4.494  11.289  1.00  0.00     0.139 C
HETATM    9  C15 UNL     1       1.686   4.480  10.380  1.00  0.00     0.058 C
HETATM   10  C16 UNL     1       2.044   4.124   8.984  1.00  0.00     0.115 C
HETATM   11 BR1  UNL     1       0.597   3.752   7.830  1.00  0.00    -0.080 Br
HETATM   12  S1  UNL     1       2.896   5.971   8.339  1.00  0.00    -0.162 SA
HETATM   13  C18 UNL     1       3.915   6.356   9.959  1.00  0.00     0.186 C
HETATM   14  O3  UNL     1       3.148   3.147  11.619  1.00  0.00    -0.377 OA
ENDROOT
BRANCH   5  15
HETATM   15  N2  UNL     1       6.574   6.736  12.937  1.00  0.00    -0.299 N
ATOM     16  H2  UNL     1       7.458   6.232  13.000  1.00  0.00     0.187 HD
BRANCH  15  17
HETATM   17  C7  UNL     1       6.252   7.747  13.872  1.00  0.00     0.048 A
HETATM   18  C8  UNL     1       6.194   7.443  15.207  1.00  0.00     0.034 A
HETATM   19  C9  UNL     1       5.882   8.403  16.164  1.00  0.00     0.044 A
HETATM   20  C10 UNL     1       5.624   9.691  15.769  1.00  0.00     0.116 A
HETATM   21  F1  UNL     1       5.324  10.596  16.723  1.00  0.00    -0.206 F
HETATM   22  C11 UNL     1       5.673  10.026  14.437  1.00  0.00     0.044 A
HETATM   23  C12 UNL     1       5.990   9.043  13.496  1.00  0.00     0.034 A
ENDBRANCH  15  17
ENDBRANCH   5  15
BRANCH  13  24
HETATM   24  O2  UNL     1       3.386   7.368  10.726  1.00  0.00    -0.385 OA
ATOM     25  H2  UNL     1       4.060   7.957  11.044  1.00  0.00     0.211 HD
ENDBRANCH  13  24
BRANCH   1  26
HETATM   26  C3  UNL     1       3.079   1.560  13.341  1.00  0.00     0.034 C
BRANCH  26  27
HETATM   27  C2  UNL     1       2.195   1.567  14.586  1.00  0.00    -0.002 C
HETATM   28  C1  UNL     1       0.925   2.298  14.249  1.00  0.00     0.005 C
ENDBRANCH  26  27
ENDBRANCH   1  26
BRANCH  12  29
HETATM   29  C17 UNL     1       3.794   5.788   6.574  1.00  0.00     0.181 C
HETATM   30 CL1  UNL     1       4.565   7.325   6.220  1.00  0.00    -0.120 Cl
ENDBRANCH  12  29
TORSDOF 6
ENDMDL