MODEL 3
REMARK VINA RESULT: -4.952508429      5.485      7.815
REMARK  7 active torsions:
REMARK  status: ('A' for Active; 'I' for Inactive)
REMARK    1  A    between atoms: C2_2  and  O1_3
REMARK    2  A    between atoms: O1_3  and  C3_4
REMARK       I    between atoms: C3_4  and  N1_6
REMARK    3  A    between atoms: N1_6  and  C4_8
REMARK    4  A    between atoms: N2_12  and  C8_13
REMARK    5  A    between atoms: C13_19  and  C14_20
REMARK    6  A    between atoms: N3_24  and  C16_25
REMARK    7  A    between atoms: C20_29  and  C21_30
ROOT
HETATM    1  C8  UNL     1       8.773  11.355  18.780  1.00  0.00     0.047 A
HETATM    2  C9  UNL     1       7.467  10.777  18.832  1.00  0.00     0.031 A
HETATM    3  C10 UNL     1       6.731  10.792  17.714  1.00  0.00     0.020 A
HETATM    4  C11 UNL     1       7.185  11.331  16.540  1.00  0.00     0.043 A
HETATM    5  C12 UNL     1       6.375  11.308  15.427  1.00  0.00     0.202 A
HETATM    6  O3  UNL     1       5.231  10.801  15.534  1.00  0.00    -0.286 OA
HETATM    7  C13 UNL     1       6.838  11.833  14.256  1.00  0.00     0.107 A
HETATM    8  C15 UNL     1       8.094  12.362  14.208  1.00  0.00     0.114 A
HETATM    9  N3  UNL     1       8.909  12.382  15.324  1.00  0.00    -0.349 N
HETATM   10  C19 UNL     1       8.478  11.897  16.481  1.00  0.00     0.066 A
HETATM   11  C20 UNL     1       9.297  11.922  17.642  1.00  0.00     0.102 A
ENDROOT
BRANCH   1  12
HETATM   12  N2  UNL     1       9.487  11.211  19.996  1.00  0.00    -0.380 N
HETATM   13  C7  UNL     1      10.364  10.071  20.014  1.00  0.00     0.123 C
HETATM   14  C6  UNL     1      11.253   9.977  21.241  1.00  0.00     0.022 C
HETATM   15  C5  UNL     1      10.388   9.634  22.415  1.00  0.00     0.027 C
HETATM   16  C4  UNL     1       9.672  10.804  23.016  1.00  0.00     0.088 C
HETATM   17  C23 UNL     1       9.872  12.095  22.312  1.00  0.00     0.045 C
HETATM   18  C22 UNL     1       9.372  12.272  20.942  1.00  0.00     0.125 C
BRANCH  16  19
HETATM   19  N1  UNL     1       9.955  10.934  24.431  1.00  0.00    -0.332 N
HETATM   20  C3  UNL     1       9.672   9.891  25.322  1.00  0.00     0.360 C
HETATM   21  O2  UNL     1       9.157   8.799  24.892  1.00  0.00    -0.239 OA
ATOM     22  H1  UNL     1      10.365  11.799  24.785  1.00  0.00     0.165 HD
BRANCH  20  23
HETATM   23  O1  UNL     1       9.914   9.947  26.685  1.00  0.00    -0.304 OA
BRANCH  23  24
HETATM   24  C2  UNL     1      11.081   9.461  27.272  1.00  0.00     0.176 C
HETATM   25  C1  UNL     1      11.298  10.150  28.613  1.00  0.00     0.034 C
ENDBRANCH  23  24
ENDBRANCH  20  23
ENDBRANCH  16  19
ENDBRANCH   1  12
BRANCH  11  26
HETATM   26  C21 UNL     1      10.475  12.755  17.556  1.00  0.00     0.421 C
HETATM   27  F1  UNL     1      11.758  12.308  17.538  1.00  0.00    -0.166 F
HETATM   28  F2  UNL     1      10.680  12.849  19.023  1.00  0.00    -0.166 F
HETATM   29  F3  UNL     1      10.289  14.150  17.668  1.00  0.00    -0.166 F
ENDBRANCH  11  26
BRANCH   9  30
HETATM   30  C16 UNL     1      10.326  12.698  15.059  1.00  0.00     0.090 A
HETATM   31  C17 UNL     1      10.822  12.961  13.656  1.00  0.00     0.028 A
HETATM   32  C18 UNL     1      10.376  14.107  14.344  1.00  0.00     0.028 A
ENDBRANCH   9  30
BRANCH   7  33
HETATM   33  C14 UNL     1       5.996  11.838  13.039  1.00  0.00     0.214 C
HETATM   34  O4  UNL     1       5.498  12.894  12.634  1.00  0.00    -0.644 OA
HETATM   35  O5  UNL     1       5.763  10.662  12.353  1.00  0.00    -0.644 OA
ENDBRANCH   7  33
TORSDOF 7
ENDMDL