MODEL 2
REMARK VINA RESULT: -6.392554130      0.882      1.061
REMARK  8 active torsions:
REMARK  status: ('A' for Active; 'I' for Inactive)
REMARK    1  A    between atoms: C2_2  and  C3_3
REMARK    2  A    between atoms: C3_3  and  N1_4
REMARK    3  A    between atoms: C6_8  and  C7_9
REMARK    4  A    between atoms: C10_14  and  N3_15
REMARK    5  A    between atoms: C11_20  and  C12_21
REMARK    6  A    between atoms: C12_21  and  N5_22
REMARK       I    between atoms: N6_25  and  C15_26
REMARK    7  A    between atoms: C15_26  and  O3_28
REMARK    8  A    between atoms: O3_28  and  C16_29
ROOT
HETATM    1  C7  UNL     1      16.458  -9.190   0.310  1.00  0.00     0.017 A
HETATM    2  C8  UNL     1      16.418  -9.710   1.588  1.00  0.00     0.100 A
HETATM    3  N2  UNL     1      15.180  -9.512   2.079  1.00  0.00    -0.360 N
ATOM      4  H2  UNL     1      14.852  -9.792   3.004  1.00  0.00     0.165 HD
HETATM    5  C9  UNL     1      14.445  -8.882   1.140  1.00  0.00     0.104 A
HETATM    6  C10 UNL     1      13.138  -8.455   1.123  1.00  0.00     0.129 A
HETATM    7  N4  UNL     1      12.671  -7.850   0.026  1.00  0.00    -0.329 N
ATOM      8  H4  UNL     1      11.700  -7.538   0.027  1.00  0.00     0.168 HD
HETATM    9  C11 UNL     1      13.402  -7.630  -1.073  1.00  0.00     0.112 A
HETATM   10  N7  UNL     1      14.687  -8.045  -1.065  1.00  0.00    -0.342 N
ATOM     11  H7  UNL     1      15.272  -7.892  -1.886  1.00  0.00     0.167 HD
HETATM   12  C20 UNL     1      15.199  -8.655   0.010  1.00  0.00     0.074 A
ENDROOT
BRANCH   9  13
HETATM   13  C12 UNL     1      12.847  -6.951  -2.290  1.00  0.00     0.348 C
BRANCH  13  14
HETATM   14  N5  UNL     1      12.576  -5.567  -1.951  1.00  0.00     0.098 N
HETATM   15  C13 UNL     1      11.195  -5.219  -2.239  1.00  0.00     0.293 C
HETATM   16  C14 UNL     1      11.061  -4.065  -3.177  1.00  0.00     0.158 C
HETATM   17  N6  UNL     1      11.918  -4.182  -4.325  1.00  0.00    -0.325 N
HETATM   18  C15 UNL     1      11.436  -3.905  -5.626  1.00  0.00     0.362 C
HETATM   19  C18 UNL     1      13.287  -4.597  -4.096  1.00  0.00     0.158 C
HETATM   20  O2  UNL     1      12.215  -4.017  -6.599  1.00  0.00    -0.238 OA
HETATM   21  C19 UNL     1      13.465  -4.634  -2.583  1.00  0.00     0.293 C
BRANCH  18  22
HETATM   22  O3  UNL     1      10.131  -3.514  -5.864  1.00  0.00    -0.304 OA
BRANCH  22  23
HETATM   23  C16 UNL     1       9.696  -2.204  -6.096  1.00  0.00     0.176 C
HETATM   24  C17 UNL     1      10.719  -1.156  -5.757  1.00  0.00     0.034 C
ENDBRANCH  22  23
ENDBRANCH  18  22
ENDBRANCH  13  14
ENDBRANCH   9  13
BRANCH   6  25
HETATM   25  N3  UNL     1      12.371  -8.643   2.172  1.00  0.00    -0.384 N
ATOM     26  H32 UNL     1      12.642  -8.294   3.092  1.00  0.00     0.157 HD
ATOM     27  H31 UNL     1      11.488  -9.144   2.076  1.00  0.00     0.157 HD
ENDBRANCH   6  25
BRANCH   1  28
HETATM   28  C6  UNL     1      17.623  -9.176  -0.598  1.00  0.00     0.186 C
HETATM   29  O1  UNL     1      18.601 -10.009  -0.117  1.00  0.00    -0.378 OA
HETATM   30  C5  UNL     1      19.805  -9.883  -0.813  1.00  0.00     0.199 C
HETATM   31  C4  UNL     1      19.674  -8.983  -2.009  1.00  0.00     0.298 C
HETATM   32  N1  UNL     1      19.214  -7.646  -1.665  1.00  0.00     0.093 N
HETATM   33  C21 UNL     1      18.101  -7.751  -0.774  1.00  0.00     0.309 C
BRANCH  32  34
HETATM   34  C3  UNL     1      20.310  -6.855  -1.152  1.00  0.00     0.272 C
BRANCH  34  35
HETATM   35  C2  UNL     1      19.749  -5.712  -0.346  1.00  0.00     0.026 C
HETATM   36  C1  UNL     1      20.756  -5.297   0.710  1.00  0.00     0.007 C
ENDBRANCH  34  35
ENDBRANCH  32  34
ENDBRANCH   1  28
TORSDOF 8
ENDMDL