MODEL 5
REMARK VINA RESULT: -5.310894321      1.886      3.699
REMARK  8 active torsions:
REMARK  status: ('A' for Active; 'I' for Inactive)
REMARK    1  A    between atoms: C2_2  and  C3_3
REMARK    2  A    between atoms: C3_3  and  O1_5
REMARK    3  A    between atoms: O1_5  and  C5_6
REMARK       I    between atoms: C5_6  and  N1_8
REMARK    4  A    between atoms: N1_8  and  C6_10
REMARK    5  A    between atoms: C6_10  and  C7_11
REMARK    6  A    between atoms: C6_10  and  C18_31
REMARK       I    between atoms: C7_11  and  N2_13
REMARK    7  A    between atoms: C12_19  and  C13_20
REMARK    8  A    between atoms: C13_20  and  N4_24
ROOT
HETATM    1  C7  UNL     1      10.540  -5.169  -3.624  1.00  0.00     0.244 C
HETATM    2  O3  UNL     1      10.476  -5.977  -4.604  1.00  0.00    -0.271 OA
HETATM    3  N2  UNL     1       9.501  -4.194  -3.500  1.00  0.00    -0.328 N
HETATM    4  C8  UNL     1       9.391  -3.194  -2.466  1.00  0.00     0.201 C
HETATM    5  S1  UNL     1       7.562  -3.113  -2.244  1.00  0.00    -0.137 SA
HETATM    6  C9  UNL     1       7.199  -4.369  -3.528  1.00  0.00     0.030 C
HETATM    7  C10 UNL     1       5.853  -4.318  -4.084  1.00  0.00     0.029 C
HETATM    8  C11 UNL     1       7.410  -5.770  -2.934  1.00  0.00     0.029 C
HETATM    9  C12 UNL     1       8.369  -4.117  -4.413  1.00  0.00     0.173 C
ENDROOT
BRANCH   1  10
HETATM   10  C6  UNL     1      11.678  -5.324  -2.708  1.00  0.00     0.182 C
BRANCH  10  11
HETATM   11  N1  UNL     1      11.551  -6.601  -2.042  1.00  0.00    -0.323 N
HETATM   12  C5  UNL     1      10.923  -6.819  -0.816  1.00  0.00     0.361 C
HETATM   13  O2  UNL     1      10.411  -5.849  -0.210  1.00  0.00    -0.238 OA
ATOM     14  H1  UNL     1      11.956  -7.412  -2.508  1.00  0.00     0.165 HD
BRANCH  12  15
HETATM   15  O1  UNL     1      10.823  -8.054  -0.214  1.00  0.00    -0.299 OA
BRANCH  15  16
HETATM   16  C3  UNL     1      11.273  -8.221   1.094  1.00  0.00     0.129 C
HETATM   17  C4  UNL     1      12.691  -8.738   1.176  1.00  0.00     0.040 C
BRANCH  16  18
HETATM   18  C2  UNL     1      10.385  -9.178   1.871  1.00  0.00     0.028 C
HETATM   19  C1  UNL     1       9.254  -9.696   1.017  1.00  0.00     0.007 C
ENDBRANCH  16  18
ENDBRANCH  15  16
ENDBRANCH  12  15
ENDBRANCH  10  11
BRANCH  10  20
HETATM   20  C18 UNL     1      12.967  -5.201  -3.455  1.00  0.00     0.009 C
HETATM   21  C19 UNL     1      13.507  -3.762  -3.395  1.00  0.00     0.012 C
HETATM   22  C20 UNL     1      14.051  -6.116  -2.939  1.00  0.00     0.012 C
ENDBRANCH  10  20
ENDBRANCH   1  10
BRANCH   9  23
HETATM   23  C13 UNL     1       8.430  -2.899  -5.179  1.00  0.00     0.098 C
HETATM   24  N3  UNL     1       7.420  -2.071  -5.109  1.00  0.00    -0.387 N
ATOM     25  H32 UNL     1       6.671  -2.428  -4.516  1.00  0.00     0.157 HD
ATOM     26  H31 UNL     1       7.464  -1.209  -5.651  1.00  0.00     0.157 HD
BRANCH  23  27
HETATM   27  N4  UNL     1       9.466  -2.406  -5.999  1.00  0.00    -0.366 N
HETATM   28  C14 UNL     1       9.430  -2.643  -7.411  1.00  0.00     0.143 C
HETATM   29  C15 UNL     1       9.781  -1.395  -8.202  1.00  0.00     0.133 C
HETATM   30  N5  UNL     1      10.982  -0.811  -7.686  1.00  0.00    -0.418 N
HETATM   31  C16 UNL     1      10.956  -0.484  -6.294  1.00  0.00     0.133 C
ATOM     32  H5  UNL     1      11.800  -0.639  -8.272  1.00  0.00     0.153 HD
HETATM   33  C17 UNL     1      10.542  -1.656  -5.427  1.00  0.00     0.143 C
ENDBRANCH  23  27
ENDBRANCH   9  23
TORSDOF 8
ENDMDL