MODEL 3
REMARK VINA RESULT: -6.349681003      9.558     14.316
REMARK  7 active torsions:
REMARK  status: ('A' for Active; 'I' for Inactive)
REMARK    1  A    between atoms: C3_3  and  S1_4
REMARK    2  A    between atoms: S1_4  and  N1_7
REMARK    3  A    between atoms: N1_7  and  C4_9
REMARK    4  A    between atoms: C7_12  and  N2_13
REMARK    5  A    between atoms: N2_13  and  C8_14
REMARK    6  A    between atoms: C9_17  and  C10_18
REMARK    7  A    between atoms: C10_18  and  N4_19
ROOT
HETATM    1  C1  UNL     1      20.154  -5.452   0.043  1.00  0.00     0.013 C
HETATM    2  C2  UNL     1      20.834  -6.098  -0.725  1.00  0.00    -0.101 C
HETATM    3  C3  UNL     1      21.656  -6.903  -1.656  1.00  0.00     0.255 C
ENDROOT
BRANCH   3   4
HETATM    4  S1  UNL     1      20.639  -8.313  -2.122  1.00  0.00     0.237 S
HETATM    5  O1  UNL     1      21.177  -8.834  -3.427  1.00  0.00    -0.205 OA
HETATM    6  O2  UNL     1      19.216  -7.915  -2.310  1.00  0.00    -0.205 OA
BRANCH   4   7
HETATM    7  N1  UNL     1      20.834  -9.457  -0.825  1.00  0.00    -0.314 N
ATOM      8  H1  UNL     1      21.192  -9.226   0.102  1.00  0.00     0.172 HD
BRANCH   7   9
HETATM    9  C4  UNL     1      20.422 -10.772  -1.236  1.00  0.00     0.093 C
HETATM   10  C5  UNL     1      21.389 -11.796  -0.788  1.00  0.00     0.029 C
HETATM   11  C6  UNL     1      21.201 -12.103   0.700  1.00  0.00     0.041 C
HETATM   12  C7  UNL     1      19.787 -12.675   0.837  1.00  0.00     0.165 C
HETATM   13  C19 UNL     1      18.895 -11.404   0.653  1.00  0.00     0.041 C
HETATM   14  C20 UNL     1      18.991 -11.064  -0.796  1.00  0.00     0.029 C
BRANCH  12  15
HETATM   15  N2  UNL     1      19.537 -13.345   1.964  1.00  0.00    -0.424 NA
BRANCH  15  16
HETATM   16  C8  UNL     1      19.512 -14.015   2.948  1.00  0.00     0.190 A
HETATM   17  N3  UNL     1      20.408 -15.028   3.189  1.00  0.00    -0.318 N
HETATM   18  C9  UNL     1      20.461 -15.787   4.250  1.00  0.00     0.113 A
ATOM     19  H3  UNL     1      21.103 -15.205   2.464  1.00  0.00     0.170 HD
HETATM   20  N5  UNL     1      19.561 -15.582   5.215  1.00  0.00    -0.329 N
HETATM   21  C15 UNL     1      18.636 -14.621   5.086  1.00  0.00     0.124 A
ATOM     22  H5  UNL     1      19.577 -16.160   6.056  1.00  0.00     0.168 HD
HETATM   23  N6  UNL     1      17.721 -14.396   6.051  1.00  0.00    -0.338 N
HETATM   24  C18 UNL     1      18.566 -13.800   3.966  1.00  0.00     0.081 A
HETATM   25  C16 UNL     1      16.775 -13.451   5.989  1.00  0.00     0.181 A
ATOM     26  H6  UNL     1      17.751 -14.986   6.882  1.00  0.00     0.168 HD
HETATM   27  N7  UNL     1      16.727 -12.672   4.897  1.00  0.00    -0.361 N
HETATM   28  C17 UNL     1      17.601 -12.829   3.889  1.00  0.00     0.109 A
ATOM     29  H7  UNL     1      16.015 -11.945   4.832  1.00  0.00     0.166 HD
BRANCH  18  30
HETATM   30  C10 UNL     1      21.451 -16.871   4.485  1.00  0.00     0.084 C
HETATM   31  C12 UNL     1      21.040 -17.997   5.389  1.00  0.00     0.039 C
HETATM   32  C13 UNL     1      21.859 -18.907   4.457  1.00  0.00     0.006 C
HETATM   33  C14 UNL     1      21.467 -17.915   3.352  1.00  0.00     0.039 C
BRANCH  30  34
HETATM   34  N4  UNL     1      22.795 -16.472   4.756  1.00  0.00    -0.411 N
HETATM   35  C11 UNL     1      23.524 -15.899   3.670  1.00  0.00     0.141 C
ATOM     36  H4  UNL     1      23.213 -16.590   5.679  1.00  0.00     0.153 HD
ENDBRANCH  30  34
ENDBRANCH  18  30
ENDBRANCH  15  16
ENDBRANCH  12  15
ENDBRANCH   7   9
ENDBRANCH   4   7
ENDBRANCH   3   4
TORSDOF 7
ENDMDL