MODEL 1
REMARK VINA RESULT: -6.693400457      0.000      0.000
REMARK  8 active torsions:
REMARK  status: ('A' for Active; 'I' for Inactive)
REMARK    1  A    between atoms: C2_2  and  N1_3
REMARK    2  A    between atoms: N1_3  and  C3_4
REMARK    3  A    between atoms: N1_3  and  C5_6
REMARK    4  A    between atoms: C5_6  and  C6_7
REMARK    5  A    between atoms: C6_7  and  N2_8
REMARK    6  A    between atoms: N2_8  and  C7_9
REMARK    7  A    between atoms: C8_12  and  N4_13
REMARK       I    between atoms: N8_26  and  C14_27
REMARK    8  A    between atoms: C14_27  and  C15_29
ROOT
HETATM    1  C7  UNL     1      10.868  -7.030  -0.548  1.00  0.00     0.223 A
HETATM    2  N3  UNL     1       9.941  -6.067  -0.938  1.00  0.00    -0.162 N
ATOM      3  H3  UNL     1       9.000  -6.144  -0.553  1.00  0.00     0.187 HD
HETATM    4  C8  UNL     1      10.173  -5.059  -1.765  1.00  0.00     0.679 A
HETATM    5  N5  UNL     1      11.387  -4.940  -2.276  1.00  0.00    -0.174 N
ATOM      6  H5  UNL     1      11.580  -4.169  -2.915  1.00  0.00     0.186 HD
HETATM    7  C9  UNL     1      12.364  -5.793  -1.983  1.00  0.00     0.154 A
HETATM    8  N6  UNL     1      13.648  -5.894  -2.374  1.00  0.00    -0.328 N
ATOM      9  H6  UNL     1      14.116  -5.254  -3.017  1.00  0.00     0.169 HD
HETATM   10  C10 UNL     1      14.217  -6.946  -1.802  1.00  0.00     0.104 A
HETATM   11  N7  UNL     1      13.275  -7.567  -0.998  1.00  0.00    -0.327 N
HETATM   12  C11 UNL     1      12.141  -6.862  -1.113  1.00  0.00     0.140 A
HETATM   13  C12 UNL     1      13.757  -8.708  -0.274  1.00  0.00     0.151 C
HETATM   14  C13 UNL     1      15.091  -8.340   0.423  1.00  0.00     0.146 C
HETATM   15  N8  UNL     1      16.039  -7.871  -0.564  1.00  0.00    -0.343 N
HETATM   16  C14 UNL     1      17.401  -7.735  -0.232  1.00  0.00     0.228 C
HETATM   17  O1  UNL     1      17.771  -8.046   0.936  1.00  0.00    -0.273 OA
HETATM   18  C21 UNL     1      15.550  -7.587  -1.874  1.00  0.00     0.202 C
ENDROOT
BRANCH  16  19
HETATM   19  C15 UNL     1      18.392  -7.251  -1.175  1.00  0.00     0.112 C
HETATM   20  C16 UNL     1      19.232  -6.108  -0.521  1.00  0.00     0.100 C
HETATM   21  C17 UNL     1      20.586  -6.363  -0.850  1.00  0.00    -0.156 C
HETATM   22  C18 UNL     1      21.836  -6.797  -1.314  1.00  0.00     0.254 C
HETATM   23  O2  UNL     1      21.690  -8.030  -2.032  1.00  0.00    -0.353 OA
HETATM   24  C19 UNL     1      20.401  -8.284  -2.473  1.00  0.00     0.132 C
HETATM   25  C20 UNL     1      19.263  -8.425  -1.597  1.00  0.00     0.012 C
ENDBRANCH  16  19
BRANCH   1  26
HETATM   26  N2  UNL     1      10.541  -7.909   0.187  1.00  0.00    -0.396 NA
BRANCH  26  27
HETATM   27  C6  UNL     1      10.152  -9.025   0.768  1.00  0.00     0.202 C
BRANCH  27  28
HETATM   28  C5  UNL     1       8.900  -9.784   0.425  1.00  0.00     0.121 C
BRANCH  28  29
HETATM   29  N1  UNL     1       8.090 -10.260   1.469  1.00  0.00    -0.369 N
BRANCH  29  30
HETATM   30  C2  UNL     1       8.330 -11.509   2.062  1.00  0.00     0.059 C
HETATM   31  C1  UNL     1       7.136 -12.034   2.811  1.00  0.00     0.055 C
ENDBRANCH  29  30
BRANCH  29  32
HETATM   32  C3  UNL     1       6.663 -10.053   1.175  1.00  0.00     0.123 C
HETATM   33  C4  UNL     1       6.543  -9.409  -0.189  1.00  0.00     0.027 C
ENDBRANCH  29  32
ENDBRANCH  28  29
ENDBRANCH  27  28
ENDBRANCH  26  27
ENDBRANCH   1  26
BRANCH   4  34
HETATM   34  N4  UNL     1       9.209  -4.219  -2.053  1.00  0.00    -0.234 N
ATOM     35  H42 UNL     1       8.368  -4.508  -2.553  1.00  0.00     0.174 HD
ATOM     36  H41 UNL     1       9.288  -3.242  -1.772  1.00  0.00     0.174 HD
ENDBRANCH   4  34
TORSDOF 8
ENDMDL