MODEL 4
REMARK VINA RESULT: -7.173748997      2.479      9.060
REMARK  7 active torsions:
REMARK  status: ('A' for Active; 'I' for Inactive)
REMARK    1  A    between atoms: C1_4  and  N2_5
REMARK    2  A    between atoms: C1_4  and  C16_33
REMARK       I    between atoms: N2_5  and  C2_7
REMARK    3  A    between atoms: C2_7  and  C3_9
REMARK    4  A    between atoms: C3_9  and  N3_10
REMARK    5  A    between atoms: N3_10  and  C4_12
REMARK    6  A    between atoms: C5_15  and  N5_16
REMARK    7  A    between atoms: C11_24  and  N7_25
ROOT
HETATM    1  C4  UNL     1      16.029  -8.740   0.854  1.00  0.00     0.707 A
HETATM    2  N4  UNL     1      17.256  -8.334   0.471  1.00  0.00    -0.021 N
ATOM      3  H4  UNL     1      18.073  -8.637   1.001  1.00  0.00     0.203 HD
HETATM    4  C5  UNL     1      17.421  -7.532  -0.600  1.00  0.00     0.709 A
HETATM    5  N6  UNL     1      16.330  -7.156  -1.268  1.00  0.00    -0.021 N
ATOM      6  H6  UNL     1      16.439  -6.550  -2.081  1.00  0.00     0.203 HD
HETATM    7  C11 UNL     1      15.079  -7.547  -0.911  1.00  0.00     0.709 A
HETATM    8  N8  UNL     1      14.943  -8.343   0.158  1.00  0.00    -0.021 N
ATOM      9  H8  UNL     1      14.015  -8.650   0.447  1.00  0.00     0.203 HD
ENDROOT
BRANCH   1  10
HETATM   10  N3  UNL     1      15.910  -9.516   1.888  1.00  0.00    -0.216 N
ATOM     11  H3  UNL     1      15.387  -9.184   2.699  1.00  0.00     0.178 HD
BRANCH  10  12
HETATM   12  C3  UNL     1      16.492 -10.825   1.921  1.00  0.00     0.241 C
BRANCH  12  13
HETATM   13  C2  UNL     1      16.581 -11.326   3.366  1.00  0.00     0.241 C
HETATM   14  N2  UNL     1      17.072 -12.607   3.562  1.00  0.00    -0.315 N
ATOM     15  H2  UNL     1      17.334 -13.103   2.710  1.00  0.00     0.170 HD
HETATM   16  O1  UNL     1      16.210 -10.555   4.258  1.00  0.00    -0.271 OA
BRANCH  14  17
HETATM   17  C1  UNL     1      17.262 -13.316   4.728  1.00  0.00     0.081 C
HETATM   18  N1  UNL     1      16.452 -12.996   5.765  1.00  0.00    -0.389 N
ATOM     19  H12 UNL     1      15.798 -12.257   5.506  1.00  0.00     0.157 HD
ATOM     20  H11 UNL     1      16.593 -13.521   6.627  1.00  0.00     0.157 HD
BRANCH  17  21
HETATM   21  C16 UNL     1      18.208 -14.384   5.102  1.00  0.00     0.053 C
HETATM   22  C17 UNL     1      19.579 -14.019   4.673  1.00  0.00     0.012 C
HETATM   23  C18 UNL     1      20.480 -15.130   4.257  1.00  0.00     0.001 C
HETATM   24  C19 UNL     1      20.030 -16.406   4.916  1.00  0.00     0.000 C
HETATM   25  C20 UNL     1      18.686 -16.744   4.316  1.00  0.00     0.001 C
HETATM   26  C21 UNL     1      17.665 -15.703   4.697  1.00  0.00     0.012 C
ENDBRANCH  17  21
ENDBRANCH  14  17
ENDBRANCH  12  13
ENDBRANCH  10  12
ENDBRANCH   1  10
BRANCH   4  27
HETATM   27  N5  UNL     1      18.746  -7.144  -0.937  1.00  0.00    -0.217 N
HETATM   28  C6  UNL     1      19.551  -8.001  -1.744  1.00  0.00     0.141 C
HETATM   29  C7  UNL     1      21.029  -7.872  -1.469  1.00  0.00     0.020 C
HETATM   30  C8  UNL     1      21.441  -6.456  -1.171  1.00  0.00     0.003 C
HETATM   31  C9  UNL     1      20.640  -6.023   0.064  1.00  0.00     0.020 C
HETATM   32  C10 UNL     1      19.208  -5.856  -0.425  1.00  0.00     0.141 C
ENDBRANCH   4  27
BRANCH   7  33
HETATM   33  N7  UNL     1      13.946  -7.129  -1.646  1.00  0.00    -0.213 N
HETATM   34  C12 UNL     1      12.728  -6.627  -1.046  1.00  0.00     0.167 C
HETATM   35  C13 UNL     1      12.098  -5.705  -2.095  1.00  0.00     0.188 C
HETATM   36  O2  UNL     1      11.760  -6.370  -3.247  1.00  0.00    -0.388 OA
HETATM   37  C14 UNL     1      12.566  -7.426  -3.590  1.00  0.00     0.188 C
HETATM   38  C15 UNL     1      13.993  -7.201  -3.090  1.00  0.00     0.167 C
ENDBRANCH   7  33
TORSDOF 7
ENDMDL