MODEL 2
REMARK VINA RESULT: -6.650477901      2.467      8.238
REMARK  8 active torsions:
REMARK  status: ('A' for Active; 'I' for Inactive)
REMARK    1  A    between atoms: C2_2  and  N1_3
REMARK    2  A    between atoms: N1_3  and  C3_4
REMARK    3  A    between atoms: N1_3  and  C5_6
REMARK    4  A    between atoms: C5_6  and  C6_7
REMARK    5  A    between atoms: C6_7  and  N2_8
REMARK    6  A    between atoms: C12_21  and  N6_22
REMARK    7  A    between atoms: N6_22  and  C13_24
REMARK    8  A    between atoms: C13_24  and  C15_26
ROOT
HETATM    1  N2  UNL     1      12.087  -8.009  -0.614  1.00  0.00    -0.308 N
HETATM    2  C7  UNL     1      11.399  -8.169   0.534  1.00  0.00     0.270 A
HETATM    3  O1  UNL     1      10.160  -7.934   0.497  1.00  0.00    -0.266 OA
HETATM    4  C8  UNL     1      11.971  -8.566   1.719  1.00  0.00     0.075 A
HETATM    5  C9  UNL     1      11.136  -8.723   2.959  1.00  0.00     0.074 C
HETATM    6  N3  UNL     1      13.294  -8.806   1.713  1.00  0.00    -0.340 N
ATOM      7  H3  UNL     1      13.746  -9.103   2.578  1.00  0.00     0.167 HD
HETATM    8  C10 UNL     1      14.040  -8.668   0.603  1.00  0.00     0.134 A
HETATM    9  N4  UNL     1      15.384  -8.920   0.619  1.00  0.00    -0.326 N
ATOM     10  H4  UNL     1      15.819  -9.216   1.492  1.00  0.00     0.169 HD
HETATM   11  C11 UNL     1      16.150  -8.791  -0.476  1.00  0.00     0.136 A
HETATM   12  N5  UNL     1      17.488  -9.050  -0.443  1.00  0.00    -0.176 N
ATOM     13  H5  UNL     1      17.916  -9.346   0.435  1.00  0.00     0.186 HD
HETATM   14  C12 UNL     1      18.253  -8.927  -1.527  1.00  0.00     0.681 A
HETATM   15  N7  UNL     1      17.670  -8.532  -2.690  1.00  0.00    -0.176 N
ATOM     16  H7  UNL     1      18.250  -8.437  -3.523  1.00  0.00     0.186 HD
HETATM   17  C19 UNL     1      16.343  -8.259  -2.781  1.00  0.00     0.128 A
HETATM   18  N8  UNL     1      15.831  -7.886  -3.903  1.00  0.00    -0.384 N
ATOM     19  H81 UNL     1      14.833  -7.681  -3.972  1.00  0.00     0.157 HD
ATOM     20  H82 UNL     1      16.411  -7.788  -4.736  1.00  0.00     0.157 HD
HETATM   21  C20 UNL     1      15.558  -8.390  -1.655  1.00  0.00     0.055 A
HETATM   22  C21 UNL     1      14.183  -8.129  -1.684  1.00  0.00     0.052 A
HETATM   23  C22 UNL     1      13.405  -8.263  -0.561  1.00  0.00     0.083 A
ENDROOT
BRANCH  14  24
HETATM   24  N6  UNL     1      19.504  -9.191  -1.457  1.00  0.00    -0.221 N
ATOM     25  H6  UNL     1      19.820 -10.084  -1.835  1.00  0.00     0.178 HD
BRANCH  24  26
HETATM   26  C13 UNL     1      20.491  -8.326  -0.889  1.00  0.00     0.099 C
HETATM   27  C14 UNL     1      21.881  -8.646  -1.445  1.00  0.00     0.033 C
BRANCH  26  28
HETATM   28  C15 UNL     1      20.245  -6.870  -1.220  1.00  0.00     0.008 C
HETATM   29  C16 UNL     1      19.450  -6.078  -0.241  1.00  0.00     0.007 C
HETATM   30  C17 UNL     1      20.699  -5.336   0.161  1.00  0.00     0.001 C
HETATM   31  C18 UNL     1      21.446  -6.005  -0.951  1.00  0.00     0.007 C
ENDBRANCH  26  28
ENDBRANCH  24  26
ENDBRANCH  14  24
BRANCH   1  32
HETATM   32  C6  UNL     1      11.418  -7.592  -1.851  1.00  0.00     0.163 C
BRANCH  32  33
HETATM   33  C5  UNL     1      11.228  -6.121  -1.851  1.00  0.00     0.292 C
BRANCH  33  34
HETATM   34  N1  UNL     1      11.801  -5.368  -2.905  1.00  0.00     0.089 N
BRANCH  34  35
HETATM   35  C2  UNL     1      11.134  -4.203  -3.354  1.00  0.00     0.268 C
HETATM   36  C1  UNL     1       9.772  -3.932  -2.833  1.00  0.00     0.037 C
ENDBRANCH  34  35
BRANCH  34  37
HETATM   37  C3  UNL     1      13.111  -4.891  -2.379  1.00  0.00     0.268 C
HETATM   38  C4  UNL     1      13.566  -3.772  -3.272  1.00  0.00     0.037 C
ENDBRANCH  34  37
ENDBRANCH  33  34
ENDBRANCH  32  33
ENDBRANCH   1  32
TORSDOF 8
ENDMDL