MODEL 4
REMARK VINA RESULT: -5.996053025      3.951      7.037
REMARK  7 active torsions:
REMARK  status: ('A' for Active; 'I' for Inactive)
REMARK    1  A    between atoms: C2_2  and  C3_3
REMARK    2  A    between atoms: C3_3  and  N1_4
REMARK    3  A    between atoms: N2_6  and  C5_8
REMARK    4  A    between atoms: C7_12  and  N4_13
REMARK    5  A    between atoms: N5_16  and  C10_17
REMARK    6  A    between atoms: C15_24  and  C16_25
REMARK    7  A    between atoms: C22_34  and  N9_35
ROOT
HETATM    1  N1  UNL     1      15.568  -8.179  -0.691  1.00  0.00    -0.165 N
HETATM    2  C4  UNL     1      15.211  -8.910   0.429  1.00  0.00     0.141 A
HETATM    3  N2  UNL     1      16.090  -9.585   0.945  1.00  0.00    -0.176 N
ATOM      4  H2  UNL     1      16.952  -9.460   0.413  1.00  0.00     0.186 HD
HETATM    5  C14 UNL     1      13.892  -8.810   0.875  1.00  0.00     0.075 A
HETATM    6  C15 UNL     1      12.996  -8.014   0.216  1.00  0.00     0.034 A
HETATM    7  N8  UNL     1      13.411  -7.334  -0.864  1.00  0.00    -0.195 N
ATOM      8  H8  UNL     1      12.750  -6.737  -1.362  1.00  0.00     0.184 HD
HETATM    9  C22 UNL     1      14.680  -7.421  -1.305  1.00  0.00     0.680 A
ENDROOT
BRANCH   1  10
HETATM   10  C3  UNL     1      16.952  -8.324  -1.171  1.00  0.00     0.176 C
BRANCH  10  11
HETATM   11  C2  UNL     1      17.757  -7.176  -0.695  1.00  0.00    -0.016 C
HETATM   12  C1  UNL     1      19.042  -7.079  -0.969  1.00  0.00     0.008 C
ENDBRANCH  10  11
ENDBRANCH   1  10
BRANCH   3  13
HETATM   13  C5  UNL     1      16.331 -10.440   1.970  1.00  0.00     0.685 A
HETATM   14  N3  UNL     1      15.952 -10.287   3.261  1.00  0.00    -0.198 N
HETATM   15  C6  UNL     1      16.324 -11.375   3.924  1.00  0.00     0.155 A
ATOM     16  H3  UNL     1      15.468  -9.480   3.654  1.00  0.00     0.183 HD
HETATM   17  C7  UNL     1      16.954 -12.239   3.046  1.00  0.00     0.136 A
HETATM   18  N6  UNL     1      16.952 -11.646   1.845  1.00  0.00    -0.175 N
ATOM     19  H6  UNL     1      17.346 -12.031   0.986  1.00  0.00     0.186 HD
BRANCH  17  20
HETATM   20  N4  UNL     1      17.455 -13.544   3.349  1.00  0.00    -0.338 N
HETATM   21  C8  UNL     1      17.441 -14.182   4.629  1.00  0.00     0.156 C
HETATM   22  C9  UNL     1      18.141 -15.507   4.421  1.00  0.00     0.294 C
HETATM   23  N5  UNL     1      19.023 -15.244   3.277  1.00  0.00     0.112 N
HETATM   24  C13 UNL     1      18.113 -14.457   2.452  1.00  0.00     0.399 C
BRANCH  23  25
HETATM   25  C10 UNL     1      20.123 -14.468   3.798  1.00  0.00     0.225 A
HETATM   26  C11 UNL     1      21.013 -13.662   2.956  1.00  0.00     0.038 A
HETATM   27  C12 UNL     1      21.498 -15.024   3.361  1.00  0.00     0.038 A
ENDBRANCH  23  25
ENDBRANCH  17  20
ENDBRANCH   3  13
BRANCH   9  28
HETATM   28  N9  UNL     1      15.081  -6.765  -2.363  1.00  0.00    -0.234 N
ATOM     29  H92 UNL     1      15.576  -7.233  -3.122  1.00  0.00     0.174 HD
ATOM     30  H91 UNL     1      14.884  -5.766  -2.395  1.00  0.00     0.174 HD
ENDBRANCH   9  28
BRANCH   6  31
HETATM   31  C16 UNL     1      11.584  -7.869   0.652  1.00  0.00     0.039 C
HETATM   32  C17 UNL     1      10.663  -8.206  -0.478  1.00  0.00     0.030 C
HETATM   33  C18 UNL     1      10.002  -9.526  -0.393  1.00  0.00     0.117 C
HETATM   34  N7  UNL     1       9.433  -9.718   0.885  1.00  0.00    -0.417 N
HETATM   35  C19 UNL     1       8.043  -9.463   1.035  1.00  0.00     0.143 C
HETATM   36  C20 UNL     1      10.253  -9.547   2.021  1.00  0.00     0.117 C
HETATM   37  C21 UNL     1      11.428  -8.651   1.899  1.00  0.00     0.030 C
ENDBRANCH   6  31
TORSDOF 7
ENDMDL