MODEL 2
REMARK VINA RESULT: -6.923006860      3.518      4.810
REMARK  6 active torsions:
REMARK  status: ('A' for Active; 'I' for Inactive)
REMARK    1  A    between atoms: C5_14  and  C6_15
REMARK    2  A    between atoms: C6_15  and  C7_16
REMARK    3  A    between atoms: C9_18  and  N5_19
REMARK    4  A    between atoms: N5_19  and  S1_21
REMARK    5  A    between atoms: S1_21  and  C10_24
REMARK    6  A    between atoms: C10_24  and  C11_25
ROOT
HETATM    1  C7  UNL     1      12.430  -8.220  -0.416  1.00  0.00     0.017 A
HETATM    2  C8  UNL     1      13.760  -8.163  -0.279  1.00  0.00     0.055 A
HETATM    3  C9  UNL     1      14.430  -8.352   0.934  1.00  0.00     0.045 A
HETATM    4  C17 UNL     1      13.657  -8.611   2.036  1.00  0.00     0.047 A
HETATM    5  C18 UNL     1      12.268  -8.671   1.894  1.00  0.00     0.090 A
HETATM    6  N6  UNL     1      11.699  -8.481   0.708  1.00  0.00    -0.369 N
ATOM      7  H6  UNL     1      10.683  -8.531   0.635  1.00  0.00     0.165 HD
ENDROOT
BRANCH   1   8
HETATM    8  C6  UNL     1      11.625  -8.035  -1.673  1.00  0.00     0.118 C
BRANCH   8   9
HETATM    9  C5  UNL     1      10.725  -6.900  -1.659  1.00  0.00     0.060 A
HETATM   10  N4  UNL     1       9.459  -7.009  -1.102  1.00  0.00    -0.302 N
HETATM   11  N3  UNL     1       8.777  -5.914  -1.277  1.00  0.00    -0.293 N
ATOM     12  H4  UNL     1       9.110  -7.836  -0.618  1.00  0.00     0.186 HD
HETATM   13  C4  UNL     1       9.534  -5.031  -1.947  1.00  0.00     0.145 A
ATOM     14  H3  UNL     1       7.821  -5.754  -0.957  1.00  0.00     0.187 HD
HETATM   15  C3  UNL     1       9.309  -3.733  -2.376  1.00  0.00     0.280 A
HETATM   16  C19 UNL     1      10.764  -5.650  -2.187  1.00  0.00     0.096 A
HETATM   17  N2  UNL     1      10.313  -3.114  -3.018  1.00  0.00    -0.273 N
HETATM   18  O2  UNL     1       8.184  -3.195  -2.148  1.00  0.00    -0.265 OA
HETATM   19  C2  UNL     1      11.490  -3.726  -3.237  1.00  0.00     0.329 A
ATOM     20  H2  UNL     1      10.180  -2.158  -3.346  1.00  0.00     0.173 HD
HETATM   21  N1  UNL     1      11.745  -5.003  -2.828  1.00  0.00    -0.300 N
HETATM   22  O1  UNL     1      12.399  -3.097  -3.846  1.00  0.00    -0.246 OA
HETATM   23  C1  UNL     1      13.034  -5.605  -3.027  1.00  0.00     0.161 C
ENDBRANCH   8   9
ENDBRANCH   1   8
BRANCH   3  24
HETATM   24  N5  UNL     1      15.853  -8.263   0.984  1.00  0.00    -0.284 N
ATOM     25  H5  UNL     1      16.296  -7.409   1.326  1.00  0.00     0.178 HD
BRANCH  24  26
HETATM   26  S1  UNL     1      16.829  -9.586   0.472  1.00  0.00     0.231 S
HETATM   27  O3  UNL     1      15.888 -10.741   0.197  1.00  0.00    -0.206 OA
HETATM   28  O4  UNL     1      17.771  -9.921   1.585  1.00  0.00    -0.206 OA
BRANCH  26  29
HETATM   29  C10 UNL     1      17.639  -9.076  -1.012  1.00  0.00     0.168 C
BRANCH  29  30
HETATM   30  C11 UNL     1      18.827  -8.205  -0.820  1.00  0.00     0.001 C
HETATM   31  C12 UNL     1      18.490  -6.724  -0.942  1.00  0.00     0.005 C
HETATM   32  C13 UNL     1      19.539  -5.975  -0.140  1.00  0.00     0.000 C
HETATM   33  C14 UNL     1      20.918  -6.492  -0.463  1.00  0.00     0.000 C
HETATM   34  C15 UNL     1      20.942  -7.305  -1.737  1.00  0.00     0.000 C
HETATM   35  C16 UNL     1      20.026  -8.519  -1.635  1.00  0.00     0.005 C
ENDBRANCH  29  30
ENDBRANCH  26  29
ENDBRANCH  24  26
ENDBRANCH   3  24
TORSDOF 6
ENDMDL