MODEL 4
REMARK VINA RESULT: -6.672218211      1.480      2.583
REMARK  6 active torsions:
REMARK  status: ('A' for Active; 'I' for Inactive)
REMARK    1  A    between atoms: C2_2  and  N1_3
REMARK    2  A    between atoms: C5_9  and  C6_10
REMARK    3  A    between atoms: C6_10  and  C7_11
REMARK    4  A    between atoms: C9_13  and  C10_14
REMARK    5  A    between atoms: C12_18  and  C13_19
REMARK    6  A    between atoms: C19_33  and  N7_34
ROOT
HETATM    1  C7  UNL     1      11.490  -8.487  -0.301  1.00  0.00     0.018 A
HETATM    2  C8  UNL     1      12.879  -8.431  -0.556  1.00  0.00     0.046 A
HETATM    3  C9  UNL     1      13.816  -8.492   0.439  1.00  0.00     0.076 A
HETATM    4  N5  UNL     1      13.343  -8.613   1.694  1.00  0.00    -0.296 N
ATOM      5  H5  UNL     1      14.009  -8.665   2.465  1.00  0.00     0.187 HD
HETATM    6  N6  UNL     1      12.057  -8.668   1.966  1.00  0.00    -0.266 N
ATOM      7  H6  UNL     1      11.766  -8.759   2.939  1.00  0.00     0.190 HD
HETATM    8  C18 UNL     1      11.098  -8.608   0.997  1.00  0.00     0.266 A
HETATM    9  O2  UNL     1       9.902  -8.665   1.292  1.00  0.00    -0.266 OA
ENDROOT
BRANCH   1  10
HETATM   10  C6  UNL     1      10.611  -8.315  -1.473  1.00  0.00     0.088 C
BRANCH  10  11
HETATM   11  C5  UNL     1      10.022  -7.015  -1.708  1.00  0.00     0.007 A
HETATM   12  C4  UNL     1       8.692  -6.781  -1.373  1.00  0.00     0.117 A
HETATM   13  N2  UNL     1       8.164  -5.554  -1.462  1.00  0.00    -0.201 N
HETATM   14  C3  UNL     1       8.839  -4.474  -1.867  1.00  0.00     0.683 A
ATOM     15  H2  UNL     1       7.184  -5.436  -1.204  1.00  0.00     0.183 HD
HETATM   16  N1  UNL     1       8.386  -3.287  -1.983  1.00  0.00    -0.206 N
HETATM   17  N8  UNL     1      10.153  -4.691  -2.202  1.00  0.00    -0.176 N
ATOM     18  H1  UNL     1       9.073  -2.607  -2.309  1.00  0.00     0.183 HD
HETATM   19  C19 UNL     1      10.722  -5.918  -2.128  1.00  0.00     0.126 A
ATOM     20  H8  UNL     1      10.719  -3.902  -2.517  1.00  0.00     0.186 HD
BRANCH  16  21
HETATM   21  C2  UNL     1       7.122  -2.752  -1.743  1.00  0.00     0.074 C
HETATM   22  C1  UNL     1       6.083  -2.841  -2.824  1.00  0.00     0.055 C
ENDBRANCH  16  21
BRANCH  19  23
HETATM   23  N7  UNL     1      12.059  -5.991  -2.652  1.00  0.00    -0.375 N
HETATM   24  C20 UNL     1      13.107  -5.285  -1.967  1.00  0.00     0.150 C
HETATM   25  C21 UNL     1      12.359  -6.699  -3.867  1.00  0.00     0.150 C
ENDBRANCH  19  23
ENDBRANCH  10  11
ENDBRANCH   1  10
BRANCH   3  26
HETATM   26  C10 UNL     1      15.270  -8.388   0.222  1.00  0.00     0.077 A
HETATM   27  C11 UNL     1      16.221  -8.859   1.096  1.00  0.00     0.121 A
HETATM   28  N3  UNL     1      17.424  -8.570   0.593  1.00  0.00    -0.353 N
HETATM   29  C12 UNL     1      17.283  -7.930  -0.569  1.00  0.00     0.086 A
ATOM     30  H3  UNL     1      18.315  -8.802   1.032  1.00  0.00     0.166 HD
HETATM   31  N4  UNL     1      15.926  -7.829  -0.788  1.00  0.00    -0.343 N
ATOM     32  H4  UNL     1      15.492  -7.391  -1.601  1.00  0.00     0.167 HD
BRANCH  29  33
HETATM   33  C13 UNL     1      18.366  -7.389  -1.424  1.00  0.00     0.057 C
HETATM   34  C14 UNL     1      19.352  -6.585  -0.584  1.00  0.00     0.038 C
HETATM   35  C15 UNL     1      20.725  -7.182  -0.578  1.00  0.00     0.168 C
HETATM   36  O1  UNL     1      20.704  -8.548  -0.282  1.00  0.00    -0.391 OA
HETATM   37  C16 UNL     1      19.995  -9.279  -1.203  1.00  0.00     0.168 C
HETATM   38  C17 UNL     1      19.118  -8.470  -2.115  1.00  0.00     0.038 C
ENDBRANCH  29  33
ENDBRANCH   3  26
TORSDOF 6
ENDMDL