MODEL 3
REMARK VINA RESULT: -5.528817528      2.459      6.131
REMARK  7 active torsions:
REMARK  status: ('A' for Active; 'I' for Inactive)
REMARK    1  A    between atoms: C2_2  and  C3_3
REMARK    2  A    between atoms: C3_3  and  N1_4
REMARK    3  A    between atoms: C8_12  and  N3_13
REMARK    4  A    between atoms: N4_16  and  C11_17
REMARK    5  A    between atoms: C14_21  and  C15_22
REMARK    6  A    between atoms: C16_23  and  C17_24
REMARK    7  A    between atoms: C20_31  and  N7_32
ROOT
HETATM    1  N1  UNL     1       8.185  -4.976  -2.021  1.00  0.00    -0.297 N
HETATM    2  C4  UNL     1       8.440  -3.796  -2.600  1.00  0.00     0.264 A
HETATM    3  O1  UNL     1       7.551  -2.953  -2.921  1.00  0.00    -0.266 OA
HETATM    4  C5  UNL     1       9.779  -3.490  -2.863  1.00  0.00     0.163 A
HETATM    5  N2  UNL     1      10.756  -4.363  -2.537  1.00  0.00    -0.358 N
ATOM      6  H2  UNL     1      11.728  -4.127  -2.734  1.00  0.00     0.165 HD
HETATM    7  C6  UNL     1      10.463  -5.542  -1.957  1.00  0.00     0.079 A
HETATM    8  C7  UNL     1      11.432  -6.458  -1.612  1.00  0.00     0.065 A
HETATM    9  C8  UNL     1      11.146  -7.689  -1.007  1.00  0.00     0.060 A
HETATM   10  C14 UNL     1       9.809  -7.933  -0.773  1.00  0.00     0.076 A
HETATM   11  N8  UNL     1       8.839  -7.028  -1.112  1.00  0.00    -0.338 N
ATOM     12  H8  UNL     1       7.861  -7.245  -0.923  1.00  0.00     0.167 HD
HETATM   13  C21 UNL     1       9.161  -5.855  -1.694  1.00  0.00     0.138 A
ENDROOT
BRANCH  10  14
HETATM   14  C15 UNL     1       9.344  -9.166  -0.176  1.00  0.00     0.062 A
HETATM   15  C16 UNL     1       8.780 -10.259  -0.795  1.00  0.00     0.046 A
HETATM   16  N5  UNL     1       8.509 -11.151   0.168  1.00  0.00    -0.302 N
HETATM   17  N6  UNL     1       8.869 -10.687   1.353  1.00  0.00    -0.285 N
ATOM     18  H5  UNL     1       8.083 -12.065   0.009  1.00  0.00     0.186 HD
HETATM   19  C20 UNL     1       9.390  -9.461   1.189  1.00  0.00     0.128 A
ATOM     20  H6  UNL     1       8.767 -11.177   2.242  1.00  0.00     0.188 HD
BRANCH  15  21
HETATM   21  C17 UNL     1       8.515 -10.436  -2.263  1.00  0.00     0.038 A
HETATM   22  C18 UNL     1       7.395 -11.332  -2.674  1.00  0.00     0.011 A
HETATM   23  C19 UNL     1       7.156  -9.888  -2.771  1.00  0.00     0.011 A
ENDBRANCH  15  21
BRANCH  19  24
HETATM   24  N7  UNL     1       9.850  -8.695   2.128  1.00  0.00    -0.384 N
ATOM     25  H72 UNL     1       9.494  -7.774   2.380  1.00  0.00     0.157 HD
ATOM     26  H71 UNL     1      10.634  -8.901   2.747  1.00  0.00     0.157 HD
ENDBRANCH  19  24
ENDBRANCH  10  14
BRANCH   9  27
HETATM   27  N3  UNL     1      12.188  -8.587  -0.685  1.00  0.00    -0.376 N
HETATM   28  C9  UNL     1      12.798  -8.580   0.602  1.00  0.00     0.143 C
HETATM   29  C10 UNL     1      14.320  -8.665   0.549  1.00  0.00     0.145 C
HETATM   30  N4  UNL     1      14.711  -8.596  -0.839  1.00  0.00    -0.356 N
HETATM   31  C12 UNL     1      14.142  -9.617  -1.732  1.00  0.00     0.145 C
HETATM   32  C13 UNL     1      12.628  -9.525  -1.698  1.00  0.00     0.143 C
BRANCH  30  33
HETATM   33  C11 UNL     1      15.577  -7.648  -1.392  1.00  0.00     0.350 C
HETATM   34  O2  UNL     1      16.565  -7.169  -0.789  1.00  0.00    -0.284 OA
ENDBRANCH  30  33
ENDBRANCH   9  27
BRANCH   1  35
HETATM   35  C3  UNL     1       6.835  -5.352  -1.703  1.00  0.00     0.133 C
BRANCH  35  36
HETATM   36  C2  UNL     1       6.237  -6.094  -2.855  1.00  0.00     0.016 C
HETATM   37  C1  UNL     1       5.092  -5.406  -3.529  1.00  0.00     0.006 C
ENDBRANCH  35  36
ENDBRANCH   1  35
TORSDOF 7
ENDMDL