MODEL 4
REMARK VINA RESULT: -6.098977658      3.145      5.760
REMARK  1 active torsions:
REMARK  status: ('A' for Active; 'I' for Inactive)
REMARK       I    between atoms: C1_2  and  N2_4
REMARK    1  A    between atoms: N2_4  and  N3_5
ROOT
HETATM    1  N3  UNL     1     -15.136 -27.070 -24.422  1.00  0.00    -0.059 N
ATOM      2  H3  UNL     1     -15.940 -27.499 -24.882  1.00  0.00     0.221 HD
HETATM    3  C2  UNL     1     -14.281 -27.198 -25.275  1.00  0.00     0.721 A
HETATM    4  N4  UNL     1     -14.605 -27.801 -26.463  1.00  0.00    -0.195 N
ATOM      5  H4  UNL     1     -15.557 -28.130 -26.620  1.00  0.00     0.183 HD
HETATM    6  C3  UNL     1     -13.682 -27.961 -27.417  1.00  0.00     0.152 A
HETATM    7  C4  UNL     1     -12.390 -27.510 -27.190  1.00  0.00     0.147 A
HETATM    8  N5  UNL     1     -11.427 -27.688 -28.216  1.00  0.00    -0.080 NA
HETATM    9  N6  UNL     1     -12.058 -26.911 -26.016  1.00  0.00    -0.272 N
ATOM     10  H6  UNL     1     -11.109 -26.577 -25.845  1.00  0.00     0.189 HD
HETATM   11  N7  UNL     1     -13.006 -26.774 -25.101  1.00  0.00    -0.129 N
ATOM     12  H7  UNL     1     -12.762 -26.326 -24.218  1.00  0.00     0.205 HD
ENDROOT
BRANCH   1  13
HETATM   13  N2  UNL     1     -15.637 -26.731 -23.316  1.00  0.00    -0.253 NA
HETATM   14  C1  UNL     1     -16.174 -26.368 -22.134  1.00  0.00     0.424 C
HETATM   15  N1  UNL     1     -17.258 -25.385 -22.223  1.00  0.00    -0.024 NA
HETATM   16  O1  UNL     1     -15.894 -26.742 -20.950  1.00  0.00    -0.232 OA
ENDBRANCH   1  13
TORSDOF 1
ENDMDL