MODEL 4
REMARK VINA RESULT: -6.593622281      3.404      5.029
REMARK  4 active torsions:
REMARK  status: ('A' for Active; 'I' for Inactive)
REMARK    1  A    between atoms: N1_1  and  C1_4
REMARK    2  A    between atoms: C3_13  and  N6_14
REMARK    3  A    between atoms: N6_14  and  O1_16
REMARK    4  A    between atoms: O1_16  and  C4_17
ROOT
HETATM    1  C1  UNL     1     -12.410 -29.095 -26.527  1.00  0.00     0.149 A
HETATM    2  N2  UNL     1     -11.333 -29.869 -26.347  1.00  0.00    -0.313 N
ATOM      3  H2  UNL     1     -11.293 -30.779 -26.806  1.00  0.00     0.170 HD
HETATM    4  C2  UNL     1     -10.299 -29.477 -25.576  1.00  0.00     0.208 A
HETATM    5  N3  UNL     1      -9.154 -30.303 -25.388  1.00  0.00    -0.062 NA
HETATM    6  N4  UNL     1     -10.408 -28.266 -24.998  1.00  0.00    -0.272 N
ATOM      7  H4  UNL     1      -9.643 -27.937 -24.408  1.00  0.00     0.189 HD
HETATM    8  N5  UNL     1     -11.462 -27.484 -25.160  1.00  0.00    -0.279 N
ATOM      9  H5  UNL     1     -11.486 -26.577 -24.695  1.00  0.00     0.189 HD
HETATM   10  C3  UNL     1     -12.505 -27.857 -25.926  1.00  0.00     0.185 A
ENDROOT
BRANCH  10  11
HETATM   11  N6  UNL     1     -13.550 -27.128 -26.111  1.00  0.00    -0.234 N
ATOM     12  H6  UNL     1     -13.539 -26.385 -26.810  1.00  0.00     0.197 HD
BRANCH  11  13
HETATM   13  O1  UNL     1     -14.684 -27.354 -25.362  1.00  0.00    -0.171 OA
BRANCH  13  14
HETATM   14  C4  UNL     1     -15.960 -27.361 -25.948  1.00  0.00     0.355 C
HETATM   15  O2  UNL     1     -16.009 -27.922 -27.092  1.00  0.00    -0.622 OA
HETATM   16  O3  UNL     1     -17.067 -26.810 -25.342  1.00  0.00    -0.622 OA
ENDBRANCH  13  14
ENDBRANCH  11  13
ENDBRANCH  10  11
BRANCH   1  17
HETATM   17  N1  UNL     1     -13.387 -29.493 -27.269  1.00  0.00    -0.382 N
ATOM     18  H12 UNL     1     -13.294 -30.384 -27.756  1.00  0.00     0.157 HD
ATOM     19  H11 UNL     1     -14.230 -28.927 -27.365  1.00  0.00     0.157 HD
ENDBRANCH   1  17
TORSDOF 4
ENDMDL