MODEL 2
REMARK VINA RESULT: -6.508062241      1.193      1.262
REMARK  3 active torsions:
REMARK  status: ('A' for Active; 'I' for Inactive)
REMARK    1  A    between atoms: N2_4  and  N3_6
REMARK    2  A    between atoms: N3_6  and  C1_8
REMARK    3  A    between atoms: C4_17  and  N7_18
ROOT
HETATM    1  C1  UNL     1     -13.515 -26.962 -25.163  1.00  0.00     0.721 C
HETATM    2  N4  UNL     1     -14.024 -26.121 -24.316  1.00  0.00    -0.221 N
ATOM      3  H4  UNL     1     -13.363 -25.415 -23.994  1.00  0.00     0.177 HD
HETATM    4  C2  UNL     1     -15.333 -25.986 -23.741  1.00  0.00     0.159 C
HETATM    5  C3  UNL     1     -16.440 -26.091 -24.758  1.00  0.00     0.163 C
HETATM    6  N5  UNL     1     -16.562 -27.390 -25.345  1.00  0.00    -0.292 N
ATOM      7  H5  UNL     1     -17.508 -27.765 -25.417  1.00  0.00     0.184 HD
HETATM    8  N6  UNL     1     -15.531 -28.211 -25.835  1.00  0.00    -0.064 N
HETATM    9  O1  UNL     1     -15.304 -29.321 -26.473  1.00  0.00    -0.160 OA
HETATM   10  C4  UNL     1     -13.999 -29.199 -26.430  1.00  0.00     0.286 A
HETATM   11  N8  UNL     1     -14.219 -28.048 -25.770  1.00  0.00    -0.002 N
ENDROOT
BRANCH   1  12
HETATM   12  N3  UNL     1     -12.153 -26.802 -25.525  1.00  0.00    -0.116 N
ATOM     13  H3  UNL     1     -11.936 -26.363 -26.419  1.00  0.00     0.207 HD
BRANCH  12  14
HETATM   14  N2  UNL     1     -11.089 -27.222 -24.707  1.00  0.00    -0.235 N
HETATM   15  N1  UNL     1     -10.282 -28.142 -25.061  1.00  0.00    -0.330 N
ATOM     16  H12 UNL     1     -10.427 -28.578 -25.971  1.00  0.00     0.178 HD
ATOM     17  H11 UNL     1      -9.511 -28.446 -24.467  1.00  0.00     0.178 HD
ATOM     18  H2  UNL     1     -10.959 -26.775 -23.798  1.00  0.00     0.208 HD
ENDBRANCH  12  14
ENDBRANCH   1  12
BRANCH  10  19
HETATM   19  N7  UNL     1     -12.945 -29.865 -26.832  1.00  0.00    -0.361 N
ATOM     20  H72 UNL     1     -12.564 -30.158 -27.731  1.00  0.00     0.159 HD
ATOM     21  H71 UNL     1     -12.137 -30.327 -26.416  1.00  0.00     0.159 HD
ENDBRANCH  10  19
TORSDOF 3
ENDMDL