MODEL 3
REMARK VINA RESULT: -6.341984559      1.274      1.274
REMARK  2 active torsions:
REMARK  status: ('A' for Active; 'I' for Inactive)
REMARK    1  A    between atoms: C3_11  and  S1_12
REMARK    2  A    between atoms: S1_12  and  N5_13
ROOT
HETATM    1  N1  UNL     1     -10.269 -28.325 -25.094  1.00  0.00    -0.234 N
ATOM      2  H11 UNL     1     -10.384 -28.149 -24.096  1.00  0.00     0.174 HD
ATOM      3  H12 UNL     1      -9.323 -28.482 -25.442  1.00  0.00     0.174 HD
HETATM    4  C1  UNL     1     -11.314 -28.343 -25.879  1.00  0.00     0.680 A
HETATM    5  N2  UNL     1     -11.163 -28.574 -27.194  1.00  0.00    -0.163 N
ATOM      6  H2  UNL     1     -10.224 -28.733 -27.558  1.00  0.00     0.187 HD
HETATM    7  C2  UNL     1     -12.209 -28.605 -28.057  1.00  0.00     0.208 A
HETATM    8  N3  UNL     1     -11.993 -28.853 -29.440  1.00  0.00    -0.063 NA
HETATM    9  N4  UNL     1     -13.428 -28.392 -27.545  1.00  0.00    -0.307 N
ATOM     10  H4  UNL     1     -14.232 -28.409 -28.173  1.00  0.00     0.170 HD
HETATM   11  C3  UNL     1     -13.637 -28.156 -26.227  1.00  0.00     0.212 A
HETATM   12  N6  UNL     1     -12.551 -28.138 -25.424  1.00  0.00    -0.166 N
ATOM     13  H6  UNL     1     -12.682 -27.961 -24.429  1.00  0.00     0.186 HD
ENDROOT
BRANCH  11  14
HETATM   14  S1  UNL     1     -15.237 -27.896 -25.669  1.00  0.00     0.179 S
HETATM   15  O1  UNL     1     -15.423 -27.116 -24.423  1.00  0.00    -0.227 OA
BRANCH  14  16
HETATM   16  N5  UNL     1     -16.490 -27.905 -26.798  1.00  0.00    -0.343 N
ATOM     17  H52 UNL     1     -16.774 -27.017 -27.212  1.00  0.00     0.167 HD
ATOM     18  H51 UNL     1     -16.651 -28.758 -27.334  1.00  0.00     0.167 HD
ENDBRANCH  14  16
ENDBRANCH  11  14
TORSDOF 2
ENDMDL