MODEL 1
REMARK VINA RESULT: -6.994775632      0.000      0.000
REMARK  1 active torsions:
REMARK  status: ('A' for Active; 'I' for Inactive)
REMARK       I    between atoms: C1_4  and  N3_6
REMARK    1  A    between atoms: N3_6  and  C2_8
REMARK       I    between atoms: N7_15  and  C3_16
ROOT
HETATM    1  C2  UNL     1     -12.305 -29.740 -25.951  1.00  0.00     0.727 A
HETATM    2  N4  UNL     1     -13.186 -30.009 -24.982  1.00  0.00    -0.114 N
ATOM      3  H4  UNL     1     -12.989 -30.541 -24.134  1.00  0.00     0.207 HD
HETATM    4  N5  UNL     1     -14.343 -29.478 -25.297  1.00  0.00    -0.213 N
ATOM      5  H5  UNL     1     -15.195 -29.527 -24.738  1.00  0.00     0.210 HD
HETATM    6  N6  UNL     1     -14.218 -28.871 -26.461  1.00  0.00    -0.203 N
ATOM      7  H6  UNL     1     -14.957 -28.372 -26.954  1.00  0.00     0.211 HD
HETATM    8  N7  UNL     1     -12.954 -29.021 -26.886  1.00  0.00    -0.017 N
HETATM    9  C3  UNL     1     -12.450 -28.496 -28.108  1.00  0.00     0.370 C
HETATM   10  N8  UNL     1     -13.274 -27.759 -28.980  1.00  0.00    -0.037 NA
HETATM   11  O1  UNL     1     -11.240 -28.713 -28.383  1.00  0.00    -0.248 OA
ENDROOT
BRANCH   1  12
HETATM   12  N3  UNL     1     -11.070 -30.061 -26.053  1.00  0.00    -0.160 N
HETATM   13  C1  UNL     1     -10.022 -29.651 -25.226  1.00  0.00     0.200 C
HETATM   14  N1  UNL     1      -9.735 -28.420 -24.952  1.00  0.00    -0.373 N
HETATM   15  N2  UNL     1      -9.186 -30.638 -24.620  1.00  0.00    -0.063 NA
ATOM     16  H12 UNL     1      -8.969 -28.120 -24.348  1.00  0.00     0.158 HD
ATOM     17  H11 UNL     1     -10.332 -27.715 -25.384  1.00  0.00     0.158 HD
ATOM     18  H3  UNL     1     -10.825 -30.684 -26.822  1.00  0.00     0.187 HD
ENDBRANCH   1  12
TORSDOF 1
ENDMDL