MODEL 4
REMARK VINA RESULT: -7.161706039      1.154      1.392
REMARK  3 active torsions:
REMARK  status: ('A' for Active; 'I' for Inactive)
REMARK       I    between atoms: C1_2  and  N1_3
REMARK    1  A    between atoms: C1_2  and  C3_15
REMARK    2  A    between atoms: N1_3  and  N2_5
REMARK    3  A    between atoms: N2_5  and  C2_7
ROOT
HETATM    1  O1  UNL     1     -13.859 -29.294 -26.761  1.00  0.00    -0.263 OA
HETATM    2  C1  UNL     1     -14.014 -28.076 -26.506  1.00  0.00     0.305 C
HETATM    3  N1  UNL     1     -12.890 -27.197 -26.631  1.00  0.00    -0.249 N
ATOM      4  H1  UNL     1     -13.026 -26.208 -26.422  1.00  0.00     0.191 HD
ENDROOT
BRANCH   3   5
HETATM    5  N2  UNL     1     -11.640 -27.614 -27.019  1.00  0.00    -0.127 N
ATOM      6  H2  UNL     1     -11.306 -27.295 -27.928  1.00  0.00     0.206 HD
BRANCH   5   7
HETATM    7  C2  UNL     1     -10.859 -28.363 -26.346  1.00  0.00     0.725 A
HETATM    8  N3  UNL     1     -10.626 -29.660 -26.663  1.00  0.00    -0.117 N
HETATM    9  N4  UNL     1      -9.789 -30.173 -25.801  1.00  0.00    -0.211 N
ATOM     10  H3  UNL     1     -11.040 -30.159 -27.451  1.00  0.00     0.207 HD
HETATM   11  N5  UNL     1      -9.470 -29.237 -24.925  1.00  0.00     0.009 NA
ATOM     12  H4  UNL     1      -9.441 -31.131 -25.805  1.00  0.00     0.206 HD
HETATM   13  N6  UNL     1     -10.120 -28.131 -25.252  1.00  0.00    -0.112 N
ATOM     14  H6  UNL     1     -10.067 -27.244 -24.751  1.00  0.00     0.203 HD
ENDBRANCH   5   7
ENDBRANCH   3   5
BRANCH   2  15
HETATM   15  C3  UNL     1     -15.321 -27.606 -26.095  1.00  0.00     0.192 A
HETATM   16  N7  UNL     1     -16.523 -27.831 -26.675  1.00  0.00    -0.280 N
HETATM   17  N8  UNL     1     -17.466 -27.221 -25.987  1.00  0.00    -0.294 N
ATOM     18  H7  UNL     1     -16.675 -28.386 -27.517  1.00  0.00     0.188 HD
HETATM   19  C4  UNL     1     -16.896 -26.587 -24.942  1.00  0.00     0.199 A
ATOM     20  H8  UNL     1     -18.462 -27.228 -26.207  1.00  0.00     0.187 HD
HETATM   21  N9  UNL     1     -15.592 -26.835 -25.028  1.00  0.00    -0.332 N
ATOM     22  H9  UNL     1     -14.891 -26.487 -24.373  1.00  0.00     0.168 HD
ENDBRANCH   2  15
TORSDOF 3
ENDMDL