MODEL 2
REMARK VINA RESULT: -5.825770592      2.131      2.354
REMARK  2 active torsions:
REMARK  status: ('A' for Active; 'I' for Inactive)
REMARK    1  A    between atoms: C5_10  and  C6_11
REMARK       I    between atoms: C6_11  and  N5_13
REMARK    2  A    between atoms: N5_13  and  N6_15
ROOT
HETATM    1  C1  UNL     1     -15.384 -25.055 -23.473  1.00  0.00     0.178 C
HETATM    2  N1  UNL     1     -14.915 -26.070 -24.414  1.00  0.00    -0.289 N
HETATM    3  N2  UNL     1     -13.816 -25.929 -25.183  1.00  0.00    -0.287 N
ATOM      4  H2  UNL     1     -13.207 -25.110 -25.187  1.00  0.00     0.188 HD
HETATM    5  C2  UNL     1     -13.640 -27.010 -25.935  1.00  0.00     0.155 A
HETATM    6  C3  UNL     1     -12.577 -27.263 -26.900  1.00  0.00     0.121 C
HETATM    7  N3  UNL     1     -11.737 -27.479 -27.659  1.00  0.00    -0.190 NA
HETATM    8  C4  UNL     1     -14.672 -27.854 -25.619  1.00  0.00     0.119 A
HETATM    9  N4  UNL     1     -14.891 -29.138 -26.182  1.00  0.00    -0.097 NA
HETATM   10  C5  UNL     1     -15.488 -27.254 -24.647  1.00  0.00     0.147 A
ENDROOT
BRANCH  10  11
HETATM   11  C6  UNL     1     -16.685 -27.863 -24.070  1.00  0.00     0.289 C
HETATM   12  O1  UNL     1     -16.860 -27.638 -22.802  1.00  0.00    -0.264 OA
HETATM   13  N5  UNL     1     -17.637 -28.644 -24.723  1.00  0.00    -0.271 N
ATOM     14  H5  UNL     1     -17.551 -28.854 -25.718  1.00  0.00     0.189 HD
BRANCH  13  15
HETATM   15  N6  UNL     1     -18.726 -29.138 -23.967  1.00  0.00    -0.342 N
ATOM     16  H62 UNL     1     -18.562 -29.801 -23.210  1.00  0.00     0.176 HD
ATOM     17  H61 UNL     1     -19.663 -28.811 -24.205  1.00  0.00     0.176 HD
ENDBRANCH  13  15
ENDBRANCH  10  11
TORSDOF 2
ENDMDL