MODEL 5
REMARK VINA RESULT: -5.513762265      1.888      3.251
REMARK  3 active torsions:
REMARK  status: ('A' for Active; 'I' for Inactive)
REMARK    1  A    between atoms: N1_2  and  C3_4
REMARK    2  A    between atoms: C4_7  and  N3_8
REMARK    3  A    between atoms: N5_14  and  N6_16
ROOT
HETATM    1  C3  UNL     1     -15.023 -26.074 -24.559  1.00  0.00     0.708 A
HETATM    2  N2  UNL     1     -15.979 -26.628 -25.309  1.00  0.00    -0.022 N
ATOM      3  H2  UNL     1     -16.937 -26.296 -25.197  1.00  0.00     0.203 HD
HETATM    4  C4  UNL     1     -15.741 -27.603 -26.203  1.00  0.00     0.705 A
HETATM    5  N4  UNL     1     -14.489 -28.062 -26.373  1.00  0.00    -0.020 N
ATOM      6  H4  UNL     1     -14.294 -28.801 -27.048  1.00  0.00     0.203 HD
HETATM    7  C5  UNL     1     -13.497 -27.530 -25.634  1.00  0.00     0.725 A
HETATM    8  N5  UNL     1     -12.294 -27.961 -25.781  1.00  0.00    -0.138 N
ATOM      9  H5  UNL     1     -12.079 -28.701 -26.448  1.00  0.00     0.205 HD
HETATM   10  N7  UNL     1     -13.774 -26.536 -24.732  1.00  0.00    -0.020 N
ATOM     11  H7  UNL     1     -13.014 -26.138 -24.179  1.00  0.00     0.203 HD
ENDROOT
BRANCH   8  12
HETATM   12  N6  UNL     1     -11.297 -27.386 -25.002  1.00  0.00    -0.331 N
ATOM     13  H62 UNL     1     -11.465 -27.199 -24.014  1.00  0.00     0.177 HD
ATOM     14  H61 UNL     1     -10.409 -27.165 -25.450  1.00  0.00     0.177 HD
ENDBRANCH   8  12
BRANCH   4  15
HETATM   15  N3  UNL     1     -16.665 -28.128 -26.926  1.00  0.00    -0.234 N
ATOM     16  H32 UNL     1     -17.621 -27.813 -26.764  1.00  0.00     0.174 HD
ATOM     17  H31 UNL     1     -16.477 -28.836 -27.636  1.00  0.00     0.174 HD
ENDBRANCH   4  15
BRANCH   1  18
HETATM   18  N1  UNL     1     -15.205 -25.054 -23.593  1.00  0.00    -0.225 N
HETATM   19  C1  UNL     1     -15.434 -25.414 -22.213  1.00  0.00     0.168 C
HETATM   20  C2  UNL     1     -15.173 -23.659 -23.976  1.00  0.00     0.168 C
ENDBRANCH   1  18
TORSDOF 3
ENDMDL