MODEL 4
REMARK VINA RESULT: -5.815945605      1.101      1.759
REMARK  4 active torsions:
REMARK  status: ('A' for Active; 'I' for Inactive)
REMARK    1  A    between atoms: N1_1  and  C1_4
REMARK    2  A    between atoms: C2_9  and  S1_10
REMARK    3  A    between atoms: S1_10  and  N4_11
REMARK    4  A    between atoms: N5_16  and  N6_17
ROOT
HETATM    1  C1  UNL     1     -11.564 -28.105 -25.804  1.00  0.00     0.713 A
HETATM    2  N2  UNL     1     -11.815 -26.950 -25.183  1.00  0.00    -0.128 N
ATOM      3  H2  UNL     1     -11.123 -26.268 -24.875  1.00  0.00     0.205 HD
HETATM    4  N3  UNL     1     -13.115 -26.856 -25.043  1.00  0.00    -0.258 N
ATOM      5  H3  UNL     1     -13.590 -26.070 -24.598  1.00  0.00     0.190 HD
HETATM    6  C2  UNL     1     -13.740 -27.926 -25.559  1.00  0.00     0.276 A
HETATM    7  N5  UNL     1     -12.747 -28.693 -26.029  1.00  0.00    -0.061 N
ENDROOT
BRANCH   6   8
HETATM    8  S1  UNL     1     -15.469 -28.210 -25.587  1.00  0.00     0.292 S
HETATM    9  O1  UNL     1     -16.052 -27.800 -26.920  1.00  0.00    -0.198 OA
HETATM   10  O2  UNL     1     -15.782 -29.669 -25.329  1.00  0.00    -0.198 OA
BRANCH   8  11
HETATM   11  N4  UNL     1     -16.167 -27.273 -24.338  1.00  0.00    -0.322 N
ATOM     12  H42 UNL     1     -15.653 -26.681 -23.685  1.00  0.00     0.169 HD
ATOM     13  H41 UNL     1     -17.176 -27.416 -24.373  1.00  0.00     0.169 HD
ENDBRANCH   8  11
ENDBRANCH   6   8
BRANCH   7  14
HETATM   14  N6  UNL     1     -12.935 -29.925 -26.660  1.00  0.00    -0.322 N
ATOM     15  H62 UNL     1     -12.275 -30.701 -26.615  1.00  0.00     0.178 HD
ATOM     16  H61 UNL     1     -13.741 -30.184 -27.228  1.00  0.00     0.178 HD
ENDBRANCH   7  14
BRANCH   1  17
HETATM   17  N1  UNL     1     -10.377 -28.580 -26.136  1.00  0.00    -0.231 N
ATOM     18  H12 UNL     1      -9.884 -28.417 -27.013  1.00  0.00     0.174 HD
ATOM     19  H11 UNL     1      -9.780 -29.180 -25.565  1.00  0.00     0.174 HD
ENDBRANCH   1  17
TORSDOF 4
ENDMDL