MODEL 1
REMARK VINA RESULT: -7.488507009      0.000      0.000
REMARK  2 active torsions:
REMARK  status: ('A' for Active; 'I' for Inactive)
REMARK    1  A    between atoms: C3_4  and  C4_5
REMARK       I    between atoms: C4_5  and  N2_7
REMARK    2  A    between atoms: N2_7  and  N3_9
ROOT
HETATM    1  C4  UNL     1     -14.621 -27.380 -26.042  1.00  0.00     0.290 C
HETATM    2  O1  UNL     1     -14.530 -28.037 -27.106  1.00  0.00    -0.264 OA
HETATM    3  N2  UNL     1     -13.440 -27.015 -25.360  1.00  0.00    -0.225 N
ATOM      4  H2  UNL     1     -13.489 -26.480 -24.493  1.00  0.00     0.194 HD
ENDROOT
BRANCH   3   5
HETATM    5  N3  UNL     1     -12.208 -27.393 -25.887  1.00  0.00    -0.096 N
HETATM    6  N4  UNL     1     -11.777 -27.225 -27.133  1.00  0.00    -0.189 N
HETATM    7  N5  UNL     1     -10.560 -27.735 -27.174  1.00  0.00    -0.209 N
ATOM      8  H4  UNL     1     -12.285 -26.790 -27.902  1.00  0.00     0.213 HD
HETATM    9  N6  UNL     1     -10.220 -28.216 -25.991  1.00  0.00    -0.209 N
ATOM     10  H5  UNL     1      -9.966 -27.755 -28.002  1.00  0.00     0.211 HD
HETATM   11  N7  UNL     1     -11.254 -27.998 -25.201  1.00  0.00    -0.189 N
ATOM     12  H6  UNL     1      -9.339 -28.665 -25.740  1.00  0.00     0.211 HD
ATOM     13  H7  UNL     1     -11.308 -28.254 -24.216  1.00  0.00     0.213 HD
ENDBRANCH   3   5
BRANCH   1  14
HETATM   14  C3  UNL     1     -15.949 -27.005 -25.529  1.00  0.00     0.120 A
HETATM   15  C2  UNL     1     -16.167 -26.106 -24.508  1.00  0.00     0.083 A
HETATM   16  C1  UNL     1     -17.538 -26.027 -24.322  1.00  0.00     0.133 A
HETATM   17  N1  UNL     1     -18.127 -25.195 -23.348  1.00  0.00    -0.081 NA
HETATM   18  N9  UNL     1     -18.078 -26.851 -25.207  1.00  0.00    -0.287 N
HETATM   19  N8  UNL     1     -17.142 -27.440 -25.932  1.00  0.00    -0.294 N
ATOM     20  H9  UNL     1     -19.080 -27.010 -25.315  1.00  0.00     0.188 HD
ATOM     21  H8  UNL     1     -17.306 -28.117 -26.678  1.00  0.00     0.187 HD
ENDBRANCH   1  14
TORSDOF 2
ENDMDL