MODEL 2
REMARK VINA RESULT: -6.923520754      0.031      1.118
REMARK  6 active torsions:
REMARK  status: ('A' for Active; 'I' for Inactive)
REMARK    1  A    between atoms: C4_4  and  N1_5
REMARK    2  A    between atoms: N1_5  and  C5_7
REMARK    3  A    between atoms: C5_7  and  C6_8
REMARK    4  A    between atoms: C6_8  and  O1_9
REMARK    5  A    between atoms: O1_9  and  C7_10
REMARK    6  A    between atoms: C13_18  and  N3_19
ROOT
HETATM    1  C1  UNL     1     -10.369 -29.730   1.089  1.00  0.00     0.069 C
HETATM    2  C2  UNL     1     -10.584 -29.280   2.490  1.00  0.00     0.026 A
HETATM    3  C3  UNL     1      -9.918 -28.191   3.022  1.00  0.00     0.073 A
HETATM    4  C4  UNL     1     -10.106 -27.764   4.315  1.00  0.00     0.118 A
HETATM    5  N2  UNL     1     -10.975 -28.444   5.075  1.00  0.00    -0.177 N
ATOM      6  H2  UNL     1     -11.134 -28.149   6.038  1.00  0.00     0.185 HD
HETATM    7  C13 UNL     1     -11.652 -29.525   4.586  1.00  0.00     0.677 A
HETATM    8  N4  UNL     1     -11.444 -29.915   3.317  1.00  0.00    -0.196 N
ATOM      9  H4  UNL     1     -11.955 -30.724   2.963  1.00  0.00     0.184 HD
ENDROOT
BRANCH   4  10
HETATM   10  N1  UNL     1      -9.497 -26.762   4.814  1.00  0.00    -0.374 N
ATOM     11  H1  UNL     1     -10.078 -26.082   5.305  1.00  0.00     0.161 HD
BRANCH  10  12
HETATM   12  C5  UNL     1      -8.105 -26.477   4.768  1.00  0.00     0.148 C
BRANCH  12  13
HETATM   13  C6  UNL     1      -7.864 -25.093   4.247  1.00  0.00     0.195 C
BRANCH  13  14
HETATM   14  O1  UNL     1      -7.360 -25.099   2.930  1.00  0.00    -0.350 OA
BRANCH  14  15
HETATM   15  C7  UNL     1      -8.109 -25.315   1.809  1.00  0.00     0.068 A
HETATM   16  C8  UNL     1      -9.372 -24.791   1.687  1.00  0.00     0.037 A
HETATM   17  C9  UNL     1     -10.099 -25.028   0.544  1.00  0.00     0.003 A
HETATM   18  C10 UNL     1      -9.589 -25.782  -0.489  1.00  0.00     0.000 A
HETATM   19  C11 UNL     1      -8.322 -26.315  -0.379  1.00  0.00     0.003 A
HETATM   20  C12 UNL     1      -7.609 -26.066   0.775  1.00  0.00     0.037 A
ENDBRANCH  14  15
ENDBRANCH  13  14
ENDBRANCH  12  13
ENDBRANCH  10  12
ENDBRANCH   4  10
BRANCH   7  21
HETATM   21  N3  UNL     1     -12.465 -30.136   5.349  1.00  0.00    -0.234 N
ATOM     22  H32 UNL     1     -12.237 -30.341   6.322  1.00  0.00     0.174 HD
ATOM     23  H31 UNL     1     -13.368 -30.426   4.974  1.00  0.00     0.174 HD
ENDBRANCH   7  21
TORSDOF 6
ENDMDL