MODEL 5
REMARK VINA RESULT: -7.173653349      2.365      6.433
REMARK  7 active torsions:
REMARK  status: ('A' for Active; 'I' for Inactive)
REMARK    1  A    between atoms: N1_2  and  C2_5
REMARK    2  A    between atoms: C2_5  and  C3_6
REMARK    3  A    between atoms: C7_12  and  N3_13
REMARK    4  A    between atoms: N3_13  and  C8_14
REMARK    5  A    between atoms: C8_14  and  N4_15
REMARK    6  A    between atoms: C8_14  and  C9_19
REMARK    7  A    between atoms: C9_19  and  C10_20
ROOT
HETATM    1  N3  UNL     1      -7.492 -27.959  -0.550  1.00  0.00    -0.396 NA
ENDROOT
BRANCH   1   2
HETATM    2  C7  UNL     1      -6.921 -27.206  -1.326  1.00  0.00     0.183 A
HETATM    3  C3  UNL     1      -7.517 -26.800  -2.528  1.00  0.00     0.025 A
HETATM    4  C4  UNL     1      -6.855 -25.950  -3.362  1.00  0.00     0.015 A
HETATM    5  C5  UNL     1      -5.598 -25.458  -3.078  1.00  0.00     0.018 A
HETATM    6  C6  UNL     1      -5.046 -25.881  -1.889  1.00  0.00     0.090 A
HETATM    7  N2  UNL     1      -5.678 -26.703  -1.074  1.00  0.00    -0.341 N
ATOM      8  H2  UNL     1      -5.212 -26.978  -0.210  1.00  0.00     0.167 HD
BRANCH   3   9
HETATM    9  C2  UNL     1      -8.873 -27.318  -2.888  1.00  0.00     0.275 C
BRANCH   9  10
HETATM   10  N1  UNL     1      -8.747 -28.657  -3.480  1.00  0.00    -0.075 N
HETATM   11  C1  UNL     1      -9.305 -28.666  -4.807  1.00  0.00     0.267 C
ATOM     12  H12 UNL     1      -9.161 -29.377  -2.888  1.00  0.00     0.277 HD
ATOM     13  H11 UNL     1      -7.783 -28.989  -3.469  1.00  0.00     0.277 HD
ENDBRANCH   9  10
ENDBRANCH   3   9
ENDBRANCH   1   2
BRANCH   1  14
HETATM   14  C8  UNL     1      -8.157 -28.724   0.290  1.00  0.00     0.364 C
BRANCH  14  15
HETATM   15  N4  UNL     1      -8.303 -30.098  -0.267  1.00  0.00    -0.046 N
ATOM     16  H43 UNL     1      -9.033 -30.627   0.209  1.00  0.00     0.278 HD
ATOM     17  H42 UNL     1      -8.710 -30.088  -1.201  1.00  0.00     0.278 HD
ATOM     18  H41 UNL     1      -7.407 -30.584  -0.248  1.00  0.00     0.278 HD
ENDBRANCH  14  15
BRANCH  14  19
HETATM   19  C9  UNL     1      -9.629 -28.343   0.569  1.00  0.00     0.107 C
BRANCH  19  20
HETATM   20  C10 UNL     1      -9.760 -27.096   1.311  1.00  0.00    -0.053 A
HETATM   21  C11 UNL     1      -9.709 -27.099   2.697  1.00  0.00     0.007 A
HETATM   22  C12 UNL     1      -9.834 -25.922   3.422  1.00  0.00     0.001 A
HETATM   23  C13 UNL     1     -10.012 -24.703   2.808  1.00  0.00     0.000 A
HETATM   24  C14 UNL     1     -10.063 -24.703   1.416  1.00  0.00     0.001 A
HETATM   25  C15 UNL     1      -9.937 -25.881   0.707  1.00  0.00     0.007 A
ENDBRANCH  19  20
ENDBRANCH  14  19
ENDBRANCH   1  14
TORSDOF 7
ENDMDL