MODEL 4
REMARK VINA RESULT: -6.764771052      1.588      1.938
REMARK  7 active torsions:
REMARK  status: ('A' for Active; 'I' for Inactive)
REMARK    1  A    between atoms: N1_2  and  C2_5
REMARK    2  A    between atoms: C2_5  and  C3_6
REMARK    3  A    between atoms: C3_6  and  N2_7
REMARK    4  A    between atoms: N2_7  and  C4_9
REMARK    5  A    between atoms: C4_9  and  N3_11
REMARK    6  A    between atoms: N3_11  and  N4_13
REMARK    7  A    between atoms: C5_15  and  C6_16
ROOT
HETATM    1  N3  UNL     1     -10.029 -24.648   1.932  1.00  0.00    -0.277 N
ATOM      2  H3  UNL     1     -10.921 -24.162   2.023  1.00  0.00     0.189 HD
ENDROOT
BRANCH   1   3
HETATM    3  C4  UNL     1      -9.417 -25.216   3.079  1.00  0.00     0.186 C
HETATM    4  S1  UNL     1      -7.831 -24.947   3.375  1.00  0.00    -0.040 SA
BRANCH   3   5
HETATM    5  N2  UNL     1     -10.130 -26.028   4.003  1.00  0.00    -0.364 N
ATOM      6  H2  UNL     1     -11.057 -25.724   4.302  1.00  0.00     0.162 HD
BRANCH   5   7
HETATM    7  C3  UNL     1      -9.608 -27.253   4.536  1.00  0.00     0.149 C
BRANCH   7   8
HETATM    8  C2  UNL     1     -10.511 -28.419   4.310  1.00  0.00     0.251 C
BRANCH   8   9
HETATM    9  N1  UNL     1     -11.463 -28.511   5.397  1.00  0.00    -0.077 N
HETATM   10  C1  UNL     1     -12.600 -29.320   5.066  1.00  0.00     0.267 C
ATOM     11  H12 UNL     1     -11.751 -27.584   5.712  1.00  0.00     0.276 HD
ATOM     12  H11 UNL     1     -11.014 -28.841   6.252  1.00  0.00     0.276 HD
ENDBRANCH   8   9
ENDBRANCH   7   8
ENDBRANCH   5   7
ENDBRANCH   3   5
ENDBRANCH   1   3
BRANCH   1  13
HETATM   13  N4  UNL     1      -9.424 -24.746   0.689  1.00  0.00    -0.309 N
HETATM   14  C5  UNL     1      -9.267 -25.896   0.136  1.00  0.00     0.119 C
ATOM     15  H4  UNL     1      -9.103 -23.904   0.213  1.00  0.00     0.186 HD
BRANCH  14  16
HETATM   16  C6  UNL     1      -8.658 -26.146  -1.146  1.00  0.00    -0.013 A
HETATM   17  C7  UNL     1      -7.514 -25.429  -1.528  1.00  0.00     0.013 A
HETATM   18  C8  UNL     1      -6.898 -25.632  -2.740  1.00  0.00     0.001 A
HETATM   19  C9  UNL     1      -7.417 -26.565  -3.600  1.00  0.00     0.001 A
HETATM   20  C10 UNL     1      -8.536 -27.277  -3.245  1.00  0.00     0.007 A
HETATM   21  C11 UNL     1      -9.161 -27.064  -2.009  1.00  0.00    -0.050 A
HETATM   22  C12 UNL     1     -10.354 -27.858  -1.693  1.00  0.00     0.049 C
ENDBRANCH  14  16
ENDBRANCH   1  13
TORSDOF 7
ENDMDL