MODEL 2
REMARK VINA RESULT: -7.685449145      1.957      3.998
REMARK  7 active torsions:
REMARK  status: ('A' for Active; 'I' for Inactive)
REMARK    1  A    between atoms: C7_7  and  C8_8
REMARK    2  A    between atoms: C8_8  and  C9_9
REMARK    3  A    between atoms: C9_9  and  N1_10
REMARK    4  A    between atoms: C9_9  and  C10_14
REMARK    5  A    between atoms: C10_14  and  N2_15
REMARK    6  A    between atoms: C10_14  and  C11_19
REMARK    7  A    between atoms: C11_19  and  C12_20
ROOT
HETATM    1  C9  UNL     1      -7.793 -26.383   3.583  1.00  0.00     0.218 C
ENDROOT
BRANCH   1   2
HETATM    2  C8  UNL     1      -7.694 -25.264   2.636  1.00  0.00     0.074 C
BRANCH   2   3
HETATM    3  C7  UNL     1      -7.757 -25.487   1.198  1.00  0.00    -0.050 A
HETATM    4  C2  UNL     1      -8.934 -25.269   0.513  1.00  0.00    -0.056 A
HETATM    5  C1  UNL     1     -10.139 -24.800   1.235  1.00  0.00     0.049 C
HETATM    6  C3  UNL     1      -9.068 -25.498  -0.855  1.00  0.00     0.007 A
HETATM    7  C4  UNL     1      -7.985 -25.965  -1.568  1.00  0.00     0.001 A
HETATM    8  C5  UNL     1      -6.799 -26.192  -0.904  1.00  0.00     0.001 A
HETATM    9  C6  UNL     1      -6.698 -25.954   0.450  1.00  0.00     0.007 A
ENDBRANCH   2   3
ENDBRANCH   1   2
BRANCH   1  10
HETATM   10  N1  UNL     1      -7.358 -25.834   4.952  1.00  0.00    -0.073 N
ATOM     11  H13 UNL     1      -6.354 -25.665   5.018  1.00  0.00     0.274 HD
ATOM     12  H12 UNL     1      -7.660 -24.875   5.118  1.00  0.00     0.274 HD
ATOM     13  H11 UNL     1      -7.705 -26.493   5.650  1.00  0.00     0.274 HD
ENDBRANCH   1  10
BRANCH   1  14
HETATM   14  C10 UNL     1      -9.087 -26.992   3.927  1.00  0.00     0.219 C
BRANCH  14  15
HETATM   15  N2  UNL     1      -9.303 -26.927   5.400  1.00  0.00    -0.073 N
ATOM     16  H23 UNL     1      -8.818 -27.677   5.892  1.00  0.00     0.274 HD
ATOM     17  H22 UNL     1      -8.819 -26.136   5.822  1.00  0.00     0.274 HD
ATOM     18  H21 UNL     1     -10.302 -26.918   5.604  1.00  0.00     0.274 HD
ENDBRANCH  14  15
BRANCH  14  19
HETATM   19  C11 UNL     1      -9.469 -28.348   3.523  1.00  0.00     0.093 C
BRANCH  19  20
HETATM   20  C12 UNL     1      -9.277 -28.706   2.108  1.00  0.00     0.027 A
HETATM   21  C13 UNL     1      -8.223 -29.213   1.421  1.00  0.00     0.114 A
HETATM   22  N3  UNL     1      -8.562 -29.347   0.137  1.00  0.00    -0.360 N
HETATM   23  C14 UNL     1      -9.832 -28.928   0.004  1.00  0.00     0.180 A
ATOM     24  H3  UNL     1      -7.965 -29.703  -0.610  1.00  0.00     0.166 HD
HETATM   25  N4  UNL     1     -10.272 -28.539   1.189  1.00  0.00    -0.355 N
ATOM     26  H4  UNL     1     -11.204 -28.174   1.385  1.00  0.00     0.166 HD
ENDBRANCH  19  20
ENDBRANCH  14  19
ENDBRANCH   1  14
TORSDOF 7
ENDMDL