MODEL 1
REMARK VINA RESULT: -6.892696610      0.000      0.000
REMARK  4 active torsions:
REMARK  status: ('A' for Active; 'I' for Inactive)
REMARK    1  A    between atoms: O1_2  and  C2_3
REMARK    2  A    between atoms: C5_6  and  C6_7
REMARK    3  A    between atoms: C6_7  and  N1_8
REMARK       I    between atoms: N1_8  and  C9_11
REMARK    4  A    between atoms: C11_17  and  O2_18
ROOT
HETATM    1  C2  UNL     1      -8.493 -26.757  -2.421  1.00  0.00     0.101 A
HETATM    2  C3  UNL     1      -9.532 -27.266  -1.672  1.00  0.00     0.040 A
HETATM    3  C4  UNL     1      -9.776 -26.801  -0.378  1.00  0.00     0.012 A
HETATM    4  C5  UNL     1      -8.988 -25.824   0.193  1.00  0.00    -0.029 A
HETATM    5  C10 UNL     1      -7.952 -25.324  -0.568  1.00  0.00     0.048 A
HETATM    6  C11 UNL     1      -7.705 -25.783  -1.857  1.00  0.00     0.102 A
ENDROOT
BRANCH   4   7
HETATM    7  C6  UNL     1      -9.283 -25.362   1.568  1.00  0.00     0.284 C
BRANCH   7   8
HETATM    8  N1  UNL     1      -8.404 -25.900   2.554  1.00  0.00    -0.013 N
HETATM    9  C7  UNL     1      -7.948 -27.242   2.258  1.00  0.00     0.282 C
HETATM   10  C8  UNL     1      -7.209 -25.059   2.605  1.00  0.00     0.282 C
HETATM   11  C9  UNL     1      -8.951 -25.905   3.868  1.00  0.00     0.286 C
HETATM   12  N2  UNL     1      -8.751 -24.905   4.650  1.00  0.00    -0.367 N
HETATM   13  N3  UNL     1      -9.725 -26.992   4.358  1.00  0.00    -0.057 NA
ATOM     14  H22 UNL     1      -8.195 -24.125   4.298  1.00  0.00     0.158 HD
ATOM     15  H21 UNL     1      -9.143 -24.909   5.592  1.00  0.00     0.158 HD
ENDBRANCH   7   8
ENDBRANCH   4   7
BRANCH   6  16
HETATM   16  O2  UNL     1      -6.652 -25.253  -2.587  1.00  0.00    -0.353 OA
HETATM   17  C12 UNL     1      -5.330 -25.691  -2.342  1.00  0.00     0.210 C
ENDBRANCH   6  16
BRANCH   1  18
HETATM   18  O1  UNL     1      -8.249 -27.227  -3.727  1.00  0.00    -0.353 OA
HETATM   19  C1  UNL     1      -7.549 -28.456  -3.898  1.00  0.00     0.210 C
ENDBRANCH   1  18
TORSDOF 4
ENDMDL