MODEL 5
REMARK VINA RESULT: -7.207944838      2.104      6.478
REMARK  5 active torsions:
REMARK  status: ('A' for Active; 'I' for Inactive)
REMARK    1  A    between atoms: N1_2  and  C2_5
REMARK    2  A    between atoms: C2_5  and  C3_6
REMARK    3  A    between atoms: C3_6  and  C4_7
REMARK    4  A    between atoms: C7_10  and  C8_11
REMARK    5  A    between atoms: C8_11  and  N2_12
ROOT
HETATM    1  C4  UNL     1      -8.840 -26.882  -1.638  1.00  0.00    -0.057 A
HETATM    2  C5  UNL     1      -9.619 -27.626  -0.788  1.00  0.00     0.007 A
HETATM    3  C6  UNL     1      -9.956 -27.145   0.463  1.00  0.00     0.009 A
HETATM    4  C7  UNL     1      -9.534 -25.909   0.918  1.00  0.00    -0.039 A
HETATM    5  C13 UNL     1      -8.755 -25.184   0.049  1.00  0.00     0.009 A
HETATM    6  C14 UNL     1      -8.405 -25.652  -1.215  1.00  0.00     0.007 A
ENDROOT
BRANCH   4   7
HETATM    7  C8  UNL     1      -9.879 -25.385   2.254  1.00  0.00     0.186 C
BRANCH   7   8
HETATM    8  N2  UNL     1      -9.007 -25.809   3.320  1.00  0.00    -0.182 N
HETATM    9  C9  UNL     1      -9.196 -26.807   4.198  1.00  0.00     0.041 A
HETATM   10  C10 UNL     1     -10.388 -27.709   4.257  1.00  0.00     0.070 C
HETATM   11  C11 UNL     1      -8.116 -26.898   5.081  1.00  0.00     0.131 A
HETATM   12  N3  UNL     1      -7.271 -25.927   4.713  1.00  0.00    -0.200 N
HETATM   13  C12 UNL     1      -7.799 -25.274   3.660  1.00  0.00     0.678 A
ATOM     14  H3  UNL     1      -6.376 -25.717   5.156  1.00  0.00     0.183 HD
HETATM   15  N4  UNL     1      -7.277 -24.271   3.037  1.00  0.00    -0.234 N
ATOM     16  H42 UNL     1      -7.677 -23.777   2.239  1.00  0.00     0.174 HD
ATOM     17  H41 UNL     1      -6.374 -23.871   3.291  1.00  0.00     0.174 HD
ENDBRANCH   7   8
ENDBRANCH   4   7
BRANCH   1  18
HETATM   18  C3  UNL     1      -8.485 -27.419  -2.994  1.00  0.00     0.066 C
BRANCH  18  19
HETATM   19  C2  UNL     1      -7.194 -26.809  -3.485  1.00  0.00     0.236 C
BRANCH  19  20
HETATM   20  N1  UNL     1      -7.436 -26.153  -4.749  1.00  0.00    -0.079 N
HETATM   21  C1  UNL     1      -6.897 -26.940  -5.839  1.00  0.00     0.267 C
ATOM     22  H12 UNL     1      -7.076 -25.198  -4.756  1.00  0.00     0.276 HD
ATOM     23  H11 UNL     1      -8.425 -25.943  -4.885  1.00  0.00     0.276 HD
ENDBRANCH  19  20
ENDBRANCH  18  19
ENDBRANCH   1  18
TORSDOF 5
ENDMDL