MODEL 4
REMARK VINA RESULT: -6.817440508      1.686      1.860
REMARK  8 active torsions:
REMARK  status: ('A' for Active; 'I' for Inactive)
REMARK    1  A    between atoms: C2_2  and  C3_3
REMARK    2  A    between atoms: C3_3  and  N1_4
REMARK    3  A    between atoms: C3_3  and  C4_8
REMARK    4  A    between atoms: C4_8  and  O1_9
REMARK    5  A    between atoms: C4_8  and  C5_11
REMARK    6  A    between atoms: C5_11  and  O2_12
REMARK    7  A    between atoms: C5_11  and  C6_14
REMARK    8  A    between atoms: C6_14  and  C7_15
ROOT
HETATM    1  C5  UNL     1      -8.919 -26.920  -2.304  1.00  0.00     0.162 C
ENDROOT
BRANCH   1   2
HETATM    2  C4  UNL     1      -7.679 -26.213  -1.948  1.00  0.00     0.178 C
BRANCH   2   3
HETATM    3  C3  UNL     1      -6.401 -26.819  -2.502  1.00  0.00     0.214 C
BRANCH   3   4
HETATM    4  C2  UNL     1      -5.334 -25.753  -2.697  1.00  0.00     0.031 C
HETATM    5  C1  UNL     1      -4.533 -25.701  -1.413  1.00  0.00     0.007 C
ENDBRANCH   3   4
BRANCH   3   6
HETATM    6  N1  UNL     1      -5.803 -27.831  -1.705  1.00  0.00    -0.072 N
ATOM      7  H13 UNL     1      -6.147 -27.849  -0.745  1.00  0.00     0.274 HD
ATOM      8  H12 UNL     1      -6.096 -28.774  -1.959  1.00  0.00     0.274 HD
ATOM      9  H11 UNL     1      -4.797 -27.686  -1.773  1.00  0.00     0.274 HD
ENDBRANCH   3   6
ENDBRANCH   2   3
BRANCH   2  10
HETATM   10  O1  UNL     1      -7.655 -24.865  -1.882  1.00  0.00    -0.391 OA
ATOM     11  H1  UNL     1      -7.117 -24.526  -1.175  1.00  0.00     0.210 HD
ENDBRANCH   2  10
ENDBRANCH   1   2
BRANCH   1  12
HETATM   12  O2  UNL     1      -8.501 -28.025  -3.135  1.00  0.00    -0.392 OA
ATOM     13  H2  UNL     1      -8.630 -28.801  -2.604  1.00  0.00     0.210 HD
ENDBRANCH   1  12
BRANCH   1  14
HETATM   14  C6  UNL     1      -9.728 -27.597  -1.255  1.00  0.00     0.015 A
HETATM   15  C13 UNL     1     -11.196 -27.793  -1.725  1.00  0.00     0.018 A
HETATM   16  C14 UNL     1     -10.294 -28.908  -1.239  1.00  0.00     0.018 A
BRANCH  14  17
HETATM   17  C7  UNL     1      -9.802 -26.766   0.009  1.00  0.00    -0.047 A
HETATM   18  C8  UNL     1      -9.545 -27.347   1.231  1.00  0.00     0.008 A
HETATM   19  C9  UNL     1      -9.595 -26.629   2.426  1.00  0.00     0.001 A
HETATM   20  C10 UNL     1      -9.909 -25.307   2.395  1.00  0.00     0.000 A
HETATM   21  C11 UNL     1     -10.172 -24.688   1.200  1.00  0.00     0.001 A
HETATM   22  C12 UNL     1     -10.109 -25.439   0.038  1.00  0.00     0.008 A
ENDBRANCH  14  17
ENDBRANCH   1  14
TORSDOF 8
ENDMDL