MODEL 5
REMARK VINA RESULT: -7.106474689      1.732      1.952
REMARK  6 active torsions:
REMARK  status: ('A' for Active; 'I' for Inactive)
REMARK    1  A    between atoms: C2_2  and  C4_5
REMARK    2  A    between atoms: C4_5  and  N3_9
REMARK    3  A    between atoms: N3_9  and  C5_11
REMARK    4  A    between atoms: C5_11  and  C6_12
REMARK    5  A    between atoms: C5_11  and  C7_14
REMARK    6  A    between atoms: C10_17  and  C11_18
ROOT
HETATM    1  C1  UNL     1      -6.876 -25.069   2.416  1.00  0.00     0.033 C
HETATM    2  C2  UNL     1      -7.972 -24.820   3.402  1.00  0.00     0.155 C
HETATM    3  C3  UNL     1      -7.821 -25.738   4.553  1.00  0.00     0.071 C
HETATM    4  N1  UNL     1      -7.697 -26.464   5.443  1.00  0.00    -0.196 NA
ENDROOT
BRANCH   2   5
HETATM    5  C4  UNL     1      -9.320 -25.030   2.847  1.00  0.00     0.089 C
HETATM    6  N2  UNL     1     -10.317 -25.137   3.636  1.00  0.00    -0.388 N
ATOM      7  H22 UNL     1     -10.183 -25.076   4.645  1.00  0.00     0.157 HD
ATOM      8  H21 UNL     1     -11.250 -25.282   3.252  1.00  0.00     0.157 HD
BRANCH   5   9
HETATM    9  N3  UNL     1      -9.503 -25.113   1.453  1.00  0.00    -0.364 N
ATOM     10  H3  UNL     1      -9.401 -24.261   0.902  1.00  0.00     0.162 HD
BRANCH   9  11
HETATM   11  C5  UNL     1      -9.825 -26.329   0.765  1.00  0.00     0.177 C
BRANCH  11  12
HETATM   12  C6  UNL     1      -9.393 -27.508   1.547  1.00  0.00     0.261 C
HETATM   13  O1  UNL     1     -10.220 -28.368   1.798  1.00  0.00    -0.304 OA
ENDBRANCH  11  12
BRANCH  11  14
HETATM   14  C7  UNL     1      -9.132 -26.419  -0.560  1.00  0.00    -0.029 A
HETATM   15  C8  UNL     1      -8.103 -25.563  -0.896  1.00  0.00     0.011 A
HETATM   16  C9  UNL     1      -7.462 -25.642  -2.114  1.00  0.00     0.017 A
HETATM   17  C10 UNL     1      -7.827 -26.592  -3.059  1.00  0.00     0.029 A
HETATM   18  C12 UNL     1      -8.854 -27.440  -2.713  1.00  0.00     0.017 A
HETATM   19  C13 UNL     1      -9.498 -27.363  -1.495  1.00  0.00     0.011 A
BRANCH  17  20
HETATM   20  C11 UNL     1      -7.163 -26.692  -4.351  1.00  0.00     0.264 C
HETATM   21  N4  UNL     1      -5.929 -27.385  -4.416  1.00  0.00    -0.057 NA
HETATM   22  O2  UNL     1      -7.620 -26.201  -5.403  1.00  0.00    -0.271 OA
ENDBRANCH  17  20
ENDBRANCH  11  14
ENDBRANCH   9  11
ENDBRANCH   5   9
ENDBRANCH   2   5
TORSDOF 6
ENDMDL