MODEL 2
REMARK VINA RESULT: -7.775542943      0.896      1.064
REMARK  14 active torsions:
REMARK  status: ('A' for Active; 'I' for Inactive)
REMARK    1  A    between atoms: C2_2  and  C3_3
REMARK    2  A    between atoms: C3_3  and  C4_4
REMARK    3  A    between atoms: C6_9  and  C7_10
REMARK    4  A    between atoms: C7_10  and  C8_11
REMARK    5  A    between atoms: C8_11  and  C9_12
REMARK    6  A    between atoms: C9_12  and  C10_13
REMARK    7  A    between atoms: C10_13  and  C11_14
REMARK    8  A    between atoms: C11_14  and  C12_15
REMARK    9  A    between atoms: C12_15  and  C13_17
REMARK   10  A    between atoms: C13_17  and  C14_18
REMARK   11  A    between atoms: C14_18  and  C15_19
REMARK   12  A    between atoms: C15_19  and  O4_21
REMARK   13  A    between atoms: C20_32  and  C21_33
REMARK   14  A    between atoms: C21_33  and  O8_35
ROOT
HETATM    1  C4  UNL     1      -0.427  -1.106 -22.019  1.00  0.00     0.092 C
HETATM    2  C5  UNL     1      -1.759  -0.618 -21.758  1.00  0.00     0.223 C
HETATM    3  O1  UNL     1      -1.809   0.447 -21.058  1.00  0.00    -0.273 OA
HETATM    4  N1  UNL     1      -3.035  -1.098 -22.132  1.00  0.00    -0.347 N
ATOM      5  H1  UNL     1      -3.826  -0.550 -21.794  1.00  0.00     0.163 HD
HETATM    6  C6  UNL     1      -3.371  -2.244 -22.917  1.00  0.00     0.176 C
HETATM    7  C17 UNL     1      -3.337  -2.056 -24.385  1.00  0.00     0.240 C
HETATM    8  O5  UNL     1      -2.329  -2.567 -24.996  1.00  0.00    -0.271 OA
HETATM    9  N2  UNL     1      -4.271  -1.394 -25.171  1.00  0.00    -0.351 N
ATOM     10  H2  UNL     1      -4.592  -1.903 -25.994  1.00  0.00     0.163 HD
HETATM   11  C18 UNL     1      -4.852  -0.083 -24.981  1.00  0.00     0.225 C
HETATM   12  C19 UNL     1      -4.490   0.762 -26.169  1.00  0.00     0.236 C
HETATM   13  O6  UNL     1      -5.434   0.956 -26.990  1.00  0.00    -0.272 OA
HETATM   14  N3  UNL     1      -3.195   1.298 -26.356  1.00  0.00    -0.346 N
ATOM     15  H3  UNL     1      -2.800   1.339 -27.296  1.00  0.00     0.163 HD
HETATM   16  C20 UNL     1      -2.439   1.777 -25.261  1.00  0.00     0.185 C
HETATM   17  C23 UNL     1      -0.963   1.846 -25.447  1.00  0.00     0.051 C
HETATM   18  C24 UNL     1      -0.303   0.470 -25.391  1.00  0.00     0.051 C
HETATM   19  C25 UNL     1      -0.222  -0.167 -26.721  1.00  0.00     0.022 C
HETATM   20  C26 UNL     1       0.121  -0.020 -24.226  1.00  0.00    -0.173 C
HETATM   21  C27 UNL     1       0.437  -0.237 -22.923  1.00  0.00     0.061 C
HETATM   22  C28 UNL     1       1.945  -0.537 -22.676  1.00  0.00     0.023 C
ENDROOT
BRANCH   6  23
HETATM   23  C7  UNL     1      -4.716  -2.814 -22.456  1.00  0.00     0.035 C
BRANCH  23  24
HETATM   24  C8  UNL     1      -4.763  -4.269 -22.284  1.00  0.00     0.002 C
BRANCH  24  25
HETATM   25  C9  UNL     1      -3.601  -4.914 -21.599  1.00  0.00     0.000 C
BRANCH  25  26
HETATM   26  C10 UNL     1      -4.015  -6.260 -21.026  1.00  0.00     0.007 C
BRANCH  26  27
HETATM   27  C11 UNL     1      -2.775  -6.940 -20.467  1.00  0.00     0.078 C
BRANCH  27  28
HETATM   28  C12 UNL     1      -2.572  -6.616 -19.017  1.00  0.00     0.127 C
HETATM   29  O2  UNL     1      -3.485  -6.856 -18.254  1.00  0.00    -0.298 OA
BRANCH  28  30
HETATM   30  C13 UNL     1      -1.285  -6.032 -18.620  1.00  0.00     0.088 C
BRANCH  30  31
HETATM   31  C14 UNL     1      -0.583  -6.746 -17.505  1.00  0.00     0.118 C
BRANCH  31  32
HETATM   32  C15 UNL     1       0.307  -5.866 -16.718  1.00  0.00     0.258 C
HETATM   33  O3  UNL     1       0.392  -6.020 -15.483  1.00  0.00    -0.265 OA
BRANCH  32  34
HETATM   34  O4  UNL     1       1.038  -4.874 -17.392  1.00  0.00    -0.326 OA
HETATM   35  C16 UNL     1       2.313  -5.258 -17.926  1.00  0.00     0.213 C
ENDBRANCH  32  34
ENDBRANCH  31  32
ENDBRANCH  30  31
ENDBRANCH  28  30
ENDBRANCH  27  28
ENDBRANCH  26  27
ENDBRANCH  25  26
ENDBRANCH  24  25
ENDBRANCH  23  24
ENDBRANCH   6  23
BRANCH   1  36
HETATM   36  C3  UNL     1       0.390  -1.452 -20.805  1.00  0.00     0.015 C
BRANCH  36  37
HETATM   37  C2  UNL     1       0.142  -2.843 -20.257  1.00  0.00    -0.004 C
HETATM   38  C1  UNL     1      -0.117  -3.832 -21.374  1.00  0.00     0.005 C
ENDBRANCH  36  37
ENDBRANCH   1  36
BRANCH  16  39
HETATM   39  C21 UNL     1      -3.020   3.052 -24.782  1.00  0.00     0.281 C
HETATM   40  O7  UNL     1      -4.148   3.006 -24.210  1.00  0.00    -0.263 OA
BRANCH  39  41
HETATM   41  O8  UNL     1      -2.357   4.234 -24.955  1.00  0.00    -0.325 OA
HETATM   42  C22 UNL     1      -1.952   4.915 -23.769  1.00  0.00     0.213 C
ENDBRANCH  39  41
ENDBRANCH  16  39
TORSDOF 14
ENDMDL