MODEL 3
REMARK VINA RESULT: -8.803954699      3.287      6.347
REMARK  12 active torsions:
REMARK  status: ('A' for Active; 'I' for Inactive)
REMARK    1  A    between atoms: O1_2  and  C2_3
REMARK    2  A    between atoms: C2_3  and  C3_4
REMARK    3  A    between atoms: C3_4  and  O2_5
REMARK    4  A    between atoms: O2_5  and  C4_6
REMARK    5  A    between atoms: C4_6  and  C5_7
REMARK    6  A    between atoms: C9_11  and  C10_12
REMARK    7  A    between atoms: C19_28  and  C20_29
REMARK       I    between atoms: C20_29  and  N5_31
REMARK    8  A    between atoms: N5_31  and  C21_33
REMARK    9  A    between atoms: C25_39  and  N7_40
REMARK   10  A    between atoms: N7_40  and  C26_42
REMARK   11  A    between atoms: C26_42  and  C27_43
REMARK   12  A    between atoms: C27_43  and  N8_44
ROOT
HETATM    1  C5  UNL     1      -0.754   1.123 -26.068  1.00  0.00    -0.015 A
HETATM    2  C6  UNL     1       0.271   0.598 -25.305  1.00  0.00     0.042 A
HETATM    3  C7  UNL     1       0.008  -0.147 -24.166  1.00  0.00     0.059 A
HETATM    4  C8  UNL     1       0.840  -0.774 -23.240  1.00  0.00     0.066 A
HETATM    5  C9  UNL     1       0.037  -1.374 -22.302  1.00  0.00     0.095 A
HETATM    6  N3  UNL     1      -1.216  -1.111 -22.662  1.00  0.00    -0.290 N
ATOM      7  H3  UNL     1      -2.042  -1.429 -22.153  1.00  0.00     0.187 HD
HETATM    8  N4  UNL     1      -1.253  -0.377 -23.775  1.00  0.00    -0.266 N
HETATM    9  C18 UNL     1      -2.258   0.129 -24.510  1.00  0.00     0.134 A
HETATM   10  C19 UNL     1      -2.039   0.887 -25.668  1.00  0.00     0.058 A
ENDROOT
BRANCH  10  11
HETATM   11  C20 UNL     1      -3.149   1.415 -26.429  1.00  0.00     0.259 C
HETATM   12  O3  UNL     1      -4.059   2.052 -25.870  1.00  0.00    -0.267 OA
HETATM   13  N5  UNL     1      -3.269   1.244 -27.841  1.00  0.00    -0.308 N
ATOM     14  H5  UNL     1      -2.615   1.728 -28.456  1.00  0.00     0.170 HD
BRANCH  13  15
HETATM   15  C21 UNL     1      -4.180   0.494 -28.362  1.00  0.00     0.125 A
HETATM   16  C22 UNL     1      -4.461   0.483 -29.702  1.00  0.00     0.074 A
HETATM   17  C23 UNL     1      -5.443  -0.350 -30.165  1.00  0.00     0.026 A
HETATM   18  C24 UNL     1      -5.763  -0.377 -31.614  1.00  0.00     0.069 C
HETATM   19  N6  UNL     1      -6.142  -1.162 -29.341  1.00  0.00    -0.196 N
HETATM   20  C25 UNL     1      -5.850  -1.136 -28.030  1.00  0.00     0.679 A
ATOM     21  H6  UNL     1      -6.871  -1.777 -29.704  1.00  0.00     0.184 HD
HETATM   22  N9  UNL     1      -4.880  -0.316 -27.557  1.00  0.00    -0.177 N
ATOM     23  H9  UNL     1      -4.677  -0.315 -26.557  1.00  0.00     0.186 HD
BRANCH  20  24
HETATM   24  N7  UNL     1      -6.463  -1.881 -27.178  1.00  0.00    -0.224 N
ATOM     25  H7  UNL     1      -6.880  -2.746 -27.523  1.00  0.00     0.177 HD
BRANCH  24  26
HETATM   26  C26 UNL     1      -6.606  -1.591 -25.783  1.00  0.00     0.157 C
BRANCH  26  27
HETATM   27  C27 UNL     1      -6.106  -2.717 -24.914  1.00  0.00     0.136 C
BRANCH  27  28
HETATM   28  N8  UNL     1      -4.760  -2.541 -24.482  1.00  0.00    -0.419 N
HETATM   29  C28 UNL     1      -3.750  -3.108 -25.315  1.00  0.00     0.142 C
HETATM   30  C29 UNL     1      -4.532  -2.715 -23.079  1.00  0.00     0.142 C
ENDBRANCH  27  28
ENDBRANCH  26  27
ENDBRANCH  24  26
ENDBRANCH  20  24
ENDBRANCH  13  15
ENDBRANCH  10  11
BRANCH   1  31
HETATM   31  C4  UNL     1      -0.405   1.922 -27.292  1.00  0.00     0.207 C
BRANCH  31  32
HETATM   32  O2  UNL     1      -0.868   3.233 -27.109  1.00  0.00    -0.385 OA
BRANCH  32  33
HETATM   33  C3  UNL     1       0.067   4.063 -26.562  1.00  0.00     0.194 C
BRANCH  33  34
HETATM   34  C2  UNL     1      -0.374   4.814 -25.332  1.00  0.00     0.193 C
BRANCH  34  35
HETATM   35  O1  UNL     1      -1.747   4.569 -25.200  1.00  0.00    -0.394 OA
HETATM   36  C1  UNL     1      -2.084   4.336 -23.861  1.00  0.00     0.201 C
ENDBRANCH  34  35
ENDBRANCH  33  34
ENDBRANCH  32  33
ENDBRANCH  31  32
ENDBRANCH   1  31
BRANCH   5  37
HETATM   37  C10 UNL     1       0.465  -2.156 -21.133  1.00  0.00     0.135 A
HETATM   38  N1  UNL     1       1.124  -1.683 -20.059  1.00  0.00    -0.339 N
HETATM   39  C11 UNL     1       1.343  -2.693 -19.185  1.00  0.00     0.061 A
ATOM     40  H1  UNL     1       1.412  -0.714 -19.925  1.00  0.00     0.167 HD
HETATM   41  C12 UNL     1       1.956  -2.786 -17.953  1.00  0.00     0.038 A
HETATM   42  C17 UNL     1       0.796  -3.843 -19.744  1.00  0.00     0.060 A
HETATM   43  C13 UNL     1       2.047  -3.975 -17.250  1.00  0.00    -0.060 A
HETATM   44  C14 UNL     1       2.723  -4.036 -15.909  1.00  0.00     0.048 C
HETATM   45  C15 UNL     1       1.494  -5.096 -17.833  1.00  0.00     0.009 A
HETATM   46  C16 UNL     1       0.873  -5.042 -19.066  1.00  0.00     0.032 A
HETATM   47  N2  UNL     1       0.277  -3.454 -20.924  1.00  0.00    -0.339 N
ATOM     48  H2  UNL     1      -0.200  -4.077 -21.575  1.00  0.00     0.167 HD
ENDBRANCH   5  37
TORSDOF 12
ENDMDL