MODEL 3
REMARK VINA RESULT: -7.927206099      2.261      6.167
REMARK  13 active torsions:
REMARK  status: ('A' for Active; 'I' for Inactive)
REMARK    1  A    between atoms: O1_2  and  C2_3
REMARK    2  A    between atoms: C5_8  and  N2_9
REMARK    3  A    between atoms: N2_9  and  C6_11
REMARK    4  A    between atoms: C6_11  and  C7_12
REMARK    5  A    between atoms: C12_20  and  N4_21
REMARK    6  A    between atoms: N4_21  and  C13_22
REMARK    7  A    between atoms: C17_29  and  C18_30
REMARK    8  A    between atoms: C18_30  and  C19_31
REMARK    9  A    between atoms: C19_31  and  N6_32
REMARK   10  A    between atoms: N6_32  and  C20_33
REMARK   11  A    between atoms: N6_32  and  C24_37
REMARK   12  A    between atoms: C20_33  and  C21_34
REMARK   13  A    between atoms: C29_42  and  O3_43
ROOT
HETATM    1  C2  UNL     1       1.622  -3.437 -17.630  1.00  0.00     0.103 A
HETATM    2  C3  UNL     1       0.465  -4.162 -17.638  1.00  0.00     0.070 A
HETATM    3  C4  UNL     1      -0.510  -3.942 -18.619  1.00  0.00     0.067 A
HETATM    4  N1  UNL     1      -1.643  -4.685 -18.586  1.00  0.00    -0.191 N
ATOM      5  H1  UNL     1      -1.760  -5.385 -17.854  1.00  0.00     0.184 HD
HETATM    6  C5  UNL     1      -2.628  -4.515 -19.510  1.00  0.00     0.684 A
HETATM    7  N3  UNL     1      -2.421  -3.595 -20.434  1.00  0.00    -0.164 N
ATOM      8  H3  UNL     1      -3.158  -3.465 -21.127  1.00  0.00     0.187 HD
HETATM    9  C12 UNL     1      -1.312  -2.796 -20.551  1.00  0.00     0.200 A
HETATM   10  C27 UNL     1      -0.318  -2.992 -19.588  1.00  0.00     0.052 A
HETATM   11  C28 UNL     1       0.857  -2.250 -19.583  1.00  0.00     0.058 A
HETATM   12  C29 UNL     1       1.796  -2.469 -18.631  1.00  0.00     0.102 A
ENDROOT
BRANCH   9  13
HETATM   13  N4  UNL     1      -1.182  -1.979 -21.427  1.00  0.00    -0.422 NA
BRANCH  13  14
HETATM   14  C13 UNL     1      -0.901  -1.261 -22.516  1.00  0.00     0.196 C
HETATM   15  C14 UNL     1       0.592  -1.281 -22.936  1.00  0.00     0.043 C
HETATM   16  C15 UNL     1       0.768  -0.169 -23.943  1.00  0.00     0.030 C
HETATM   17  C16 UNL     1      -0.133  -0.454 -25.140  1.00  0.00     0.233 C
HETATM   18  N5  UNL     1      -1.517  -0.526 -24.712  1.00  0.00    -0.068 N
HETATM   19  C17 UNL     1      -1.639  -1.656 -23.815  1.00  0.00     0.226 C
ATOM     20  H52 UNL     1      -1.851   0.346 -24.301  1.00  0.00     0.277 HD
ATOM     21  H51 UNL     1      -2.172  -0.565 -25.493  1.00  0.00     0.277 HD
BRANCH  19  22
HETATM   22  C18 UNL     1      -3.084  -1.926 -23.463  1.00  0.00     0.080 C
BRANCH  22  23
HETATM   23  C19 UNL     1      -3.914  -2.391 -24.581  1.00  0.00     0.060 C
BRANCH  23  24
HETATM   24  N6  UNL     1      -4.934  -1.637 -25.145  1.00  0.00    -0.388 N
BRANCH  24  25
HETATM   25  C20 UNL     1      -4.869  -0.224 -24.768  1.00  0.00     0.127 C
BRANCH  25  26
HETATM   26  C21 UNL     1      -5.095   0.767 -25.815  1.00  0.00     0.003 A
HETATM   27  C22 UNL     1      -4.556   0.867 -27.151  1.00  0.00     0.007 A
HETATM   28  C23 UNL     1      -3.931   1.737 -26.061  1.00  0.00     0.007 A
ENDBRANCH  25  26
ENDBRANCH  24  25
BRANCH  24  29
HETATM   29  C24 UNL     1      -6.274  -2.067 -25.166  1.00  0.00     0.083 A
HETATM   30  C25 UNL     1      -6.939  -2.804 -26.275  1.00  0.00     0.027 A
HETATM   31  C26 UNL     1      -6.781  -3.426 -24.953  1.00  0.00     0.027 A
ENDBRANCH  24  29
ENDBRANCH  23  24
ENDBRANCH  22  23
ENDBRANCH  19  22
ENDBRANCH  13  14
ENDBRANCH   9  13
BRANCH   6  32
HETATM   32  N2  UNL     1      -3.646  -5.263 -19.397  1.00  0.00    -0.205 N
ATOM     33  H2  UNL     1      -4.344  -4.908 -18.743  1.00  0.00     0.183 HD
BRANCH  32  34
HETATM   34  C6  UNL     1      -4.003  -6.484 -19.997  1.00  0.00     0.083 C
BRANCH  34  35
HETATM   35  C7  UNL     1      -3.551  -7.688 -19.173  1.00  0.00     0.028 C
HETATM   36  C8  UNL     1      -3.986  -7.464 -17.763  1.00  0.00     0.036 C
HETATM   37  C9  UNL     1      -2.889  -7.807 -16.776  1.00  0.00     0.168 C
HETATM   38  O2  UNL     1      -2.398  -9.066 -17.186  1.00  0.00    -0.391 OA
HETATM   39  C10 UNL     1      -1.511  -8.788 -18.223  1.00  0.00     0.168 C
HETATM   40  C11 UNL     1      -2.117  -8.036 -19.359  1.00  0.00     0.036 C
ENDBRANCH  34  35
ENDBRANCH  32  34
ENDBRANCH   6  32
BRANCH  12  41
HETATM   41  O3  UNL     1       2.958  -1.759 -18.595  1.00  0.00    -0.353 OA
HETATM   42  C30 UNL     1       3.339  -0.686 -19.382  1.00  0.00     0.210 C
ENDBRANCH  12  41
BRANCH   1  43
HETATM   43  O1  UNL     1       2.618  -3.630 -16.666  1.00  0.00    -0.353 OA
HETATM   44  C1  UNL     1       2.421  -4.510 -15.582  1.00  0.00     0.210 C
ENDBRANCH   1  43
TORSDOF 13
ENDMDL