MODEL 1
REMARK VINA RESULT: -9.062863892      0.000      0.000
REMARK  14 active torsions:
REMARK  status: ('A' for Active; 'I' for Inactive)
REMARK    1  A    between atoms: O1_2  and  C2_3
REMARK    2  A    between atoms: C2_3  and  C3_4
REMARK    3  A    between atoms: C3_4  and  C4_5
REMARK    4  A    between atoms: C4_5  and  N1_6
REMARK    5  A    between atoms: N1_6  and  C5_8
REMARK    6  A    between atoms: C5_8  and  N2_10
REMARK    7  A    between atoms: N3_13  and  C8_14
REMARK    8  A    between atoms: C9_17  and  N5_18
REMARK    9  A    between atoms: N5_18  and  C10_20
REMARK   10  A    between atoms: C14_26  and  N7_27
REMARK   11  A    between atoms: C18_31  and  C19_32
REMARK   12  A    between atoms: C19_32  and  O2_33
REMARK   13  A    between atoms: O2_33  and  C20_34
REMARK   14  A    between atoms: C20_34  and  C21_35
ROOT
HETATM    1  C8  UNL     1      -1.956  -3.174 -20.470  1.00  0.00     0.709 A
HETATM    2  N4  UNL     1      -2.993  -3.915 -20.046  1.00  0.00    -0.021 N
ATOM      3  H4  UNL     1      -3.882  -3.844 -20.540  1.00  0.00     0.203 HD
HETATM    4  C9  UNL     1      -2.902  -4.746 -18.996  1.00  0.00     0.707 A
HETATM    5  N6  UNL     1      -1.731  -4.832 -18.354  1.00  0.00    -0.021 N
ATOM      6  H6  UNL     1      -1.656  -5.462 -17.556  1.00  0.00     0.203 HD
HETATM    7  C14 UNL     1      -0.633  -4.111 -18.724  1.00  0.00     0.709 A
HETATM    8  N9  UNL     1      -0.799  -3.298 -19.788  1.00  0.00    -0.021 N
ATOM      9  H9  UNL     1       0.000  -2.743 -20.095  1.00  0.00     0.203 HD
ENDROOT
BRANCH   1  10
HETATM   10  N3  UNL     1      -2.109  -2.311 -21.579  1.00  0.00    -0.214 N
HETATM   11  C7  UNL     1      -1.944  -0.871 -21.537  1.00  0.00     0.161 C
HETATM   12  C6  UNL     1      -1.424  -0.337 -22.853  1.00  0.00     0.145 C
HETATM   13  N2  UNL     1      -2.204  -0.843 -23.981  1.00  0.00    -0.355 N
HETATM   14  C26 UNL     1      -3.194  -1.832 -23.679  1.00  0.00     0.145 C
HETATM   15  C25 UNL     1      -2.470  -2.920 -22.867  1.00  0.00     0.161 C
BRANCH  13  16
HETATM   16  C5  UNL     1      -1.981  -0.375 -25.299  1.00  0.00     0.169 C
HETATM   17  S1  UNL     1      -0.408  -0.060 -25.699  1.00  0.00    -0.041 SA
BRANCH  16  18
HETATM   18  N1  UNL     1      -3.004  -0.188 -26.256  1.00  0.00    -0.367 N
ATOM     19  H1  UNL     1      -3.076  -0.875 -27.006  1.00  0.00     0.161 HD
BRANCH  18  20
HETATM   20  C4  UNL     1      -3.943   0.883 -26.258  1.00  0.00     0.124 C
BRANCH  20  21
HETATM   21  C3  UNL     1      -5.260   0.555 -25.556  1.00  0.00     0.046 C
BRANCH  21  22
HETATM   22  C2  UNL     1      -6.126  -0.302 -26.479  1.00  0.00     0.168 C
BRANCH  22  23
HETATM   23  O1  UNL     1      -7.130  -0.875 -25.753  1.00  0.00    -0.396 OA
HETATM   24  C1  UNL     1      -6.964  -2.212 -25.471  1.00  0.00     0.201 C
ENDBRANCH  22  23
ENDBRANCH  21  22
ENDBRANCH  20  21
ENDBRANCH  18  20
ENDBRANCH  16  18
ENDBRANCH  13  16
ENDBRANCH   1  10
BRANCH   4  25
HETATM   25  N5  UNL     1      -3.951  -5.418 -18.664  1.00  0.00    -0.220 N
ATOM     26  H5  UNL     1      -4.565  -5.046 -17.940  1.00  0.00     0.178 HD
BRANCH  25  27
HETATM   27  C10 UNL     1      -4.288  -6.684 -19.286  1.00  0.00     0.099 C
HETATM   28  C11 UNL     1      -4.318  -6.516 -20.786  1.00  0.00     0.026 C
HETATM   29  C12 UNL     1      -3.405  -7.718 -20.898  1.00  0.00     0.004 C
HETATM   30  C13 UNL     1      -3.025  -7.503 -19.449  1.00  0.00     0.026 C
ENDBRANCH  25  27
ENDBRANCH   4  25
BRANCH   7  31
HETATM   31  N7  UNL     1       0.586  -4.218 -18.023  1.00  0.00    -0.210 N
HETATM   32  C15 UNL     1       1.503  -3.148 -17.737  1.00  0.00     0.142 C
HETATM   33  C16 UNL     1       2.851  -3.832 -17.834  1.00  0.00     0.022 C
HETATM   34  C17 UNL     1       2.576  -5.316 -18.040  1.00  0.00     0.030 C
HETATM   35  C18 UNL     1       1.157  -5.410 -17.465  1.00  0.00     0.126 C
BRANCH  35  36
HETATM   36  C19 UNL     1       1.318  -5.336 -15.969  1.00  0.00     0.194 C
BRANCH  36  37
HETATM   37  O2  UNL     1       0.467  -6.174 -15.292  1.00  0.00    -0.383 OA
BRANCH  37  38
HETATM   38  C20 UNL     1       0.199  -7.348 -15.972  1.00  0.00     0.224 C
BRANCH  38  39
HETATM   39  C21 UNL     1      -1.133  -7.918 -15.659  1.00  0.00     0.033 A
HETATM   40  C22 UNL     1      -1.775  -8.947 -16.307  1.00  0.00     0.028 A
HETATM   41  C23 UNL     1      -2.991  -9.169 -15.706  1.00  0.00     0.019 A
HETATM   42  C24 UNL     1      -3.085  -8.256 -14.676  1.00  0.00     0.088 A
HETATM   43  N8  UNL     1      -1.949  -7.519 -14.676  1.00  0.00    -0.367 N
ATOM     44  H8  UNL     1      -1.744  -6.765 -14.020  1.00  0.00     0.165 HD
ENDBRANCH  38  39
ENDBRANCH  37  38
ENDBRANCH  36  37
ENDBRANCH  35  36
ENDBRANCH   7  31
TORSDOF 14
ENDMDL