MODEL 4
REMARK VINA RESULT: -9.137299135      2.969      9.086
REMARK  11 active torsions:
REMARK  status: ('A' for Active; 'I' for Inactive)
REMARK    1  A    between atoms: C7_8  and  C8_9
REMARK    2  A    between atoms: C11_13  and  O1_14
REMARK    3  A    between atoms: O1_14  and  C12_15
REMARK    4  A    between atoms: C12_15  and  C13_16
REMARK    5  A    between atoms: C14_18  and  O3_19
REMARK    6  A    between atoms: O3_19  and  C15_20
REMARK    7  A    between atoms: C15_20  and  C16_21
REMARK    8  A    between atoms: C16_21  and  C17_22
REMARK    9  A    between atoms: C17_22  and  C18_23
REMARK   10  A    between atoms: C18_23  and  C19_24
REMARK   11  A    between atoms: C19_24  and  C20_25
ROOT
HETATM    1  C8  UNL     1       2.515  -2.271 -18.294  1.00  0.00     0.164 C
HETATM    2  C9  UNL     1       2.575  -1.233 -19.309  1.00  0.00     0.063 C
HETATM    3  N2  UNL     1       2.602  -0.411 -20.118  1.00  0.00    -0.197 NA
ENDROOT
BRANCH   1   4
HETATM    4  C7  UNL     1       1.348  -3.192 -18.451  1.00  0.00    -0.020 A
HETATM    5  C5  UNL     1       1.340  -4.372 -17.683  1.00  0.00     0.022 A
HETATM    6  N1  UNL     1       0.282  -5.200 -17.864  1.00  0.00    -0.302 N
HETATM    7  C6  UNL     1       2.380  -4.669 -16.728  1.00  0.00     0.069 C
HETATM    8  C3  UNL     1       0.224  -6.353 -17.160  1.00  0.00     0.023 A
HETATM    9  C25 UNL     1      -0.711  -4.890 -18.741  1.00  0.00     0.148 A
HETATM   10  C2  UNL     1      -0.914  -7.164 -17.410  1.00  0.00    -0.001 A
HETATM   11  C4  UNL     1       1.239  -6.775 -16.234  1.00  0.00     0.069 C
HETATM   12  C1  UNL     1      -0.998  -8.451 -16.630  1.00  0.00     0.054 C
HETATM   13  C26 UNL     1      -1.893  -6.828 -18.293  1.00  0.00     0.110 A
HETATM   14  N4  UNL     1      -1.784  -5.687 -18.957  1.00  0.00    -0.330 N
HETATM   15  S1  UNL     1      -3.159  -7.803 -18.525  1.00  0.00    -0.060 SA
ATOM     16  H4  UNL     1      -2.504  -5.411 -19.625  1.00  0.00     0.168 HD
HETATM   17  C11 UNL     1      -0.719  -3.713 -19.515  1.00  0.00     0.120 A
HETATM   18  C10 UNL     1       0.347  -2.878 -19.338  1.00  0.00     0.051 A
BRANCH  17  19
HETATM   19  O1  UNL     1      -1.742  -3.493 -20.360  1.00  0.00    -0.316 OA
BRANCH  19  20
HETATM   20  C12 UNL     1      -2.777  -2.737 -20.669  1.00  0.00     0.185 C
BRANCH  20  21
HETATM   21  C13 UNL     1      -2.678  -1.515 -21.519  1.00  0.00     0.162 C
HETATM   22  O2  UNL     1      -3.397  -1.681 -22.704  1.00  0.00    -0.305 OA
HETATM   23  C14 UNL     1      -2.789  -2.439 -23.665  1.00  0.00     0.339 C
HETATM   24  C21 UNL     1      -1.870  -1.570 -24.424  1.00  0.00     0.203 C
HETATM   25  O6  UNL     1      -2.242  -1.110 -25.470  1.00  0.00    -0.290 OA
HETATM   26  C22 UNL     1      -0.496  -1.189 -24.026  1.00  0.00     0.155 C
HETATM   27  C23 UNL     1       0.068  -0.066 -24.871  1.00  0.00     0.040 C
HETATM   28  N3  UNL     1      -0.407  -0.907 -22.609  1.00  0.00    -0.344 N
HETATM   29  C24 UNL     1      -1.433  -0.801 -21.617  1.00  0.00     0.277 C
ATOM     30  H3  UNL     1       0.541  -0.760 -22.261  1.00  0.00     0.163 HD
HETATM   31  O7  UNL     1      -1.170   0.065 -20.700  1.00  0.00    -0.265 OA
BRANCH  23  32
HETATM   32  O3  UNL     1      -3.775  -2.935 -24.541  1.00  0.00    -0.354 OA
BRANCH  32  33
HETATM   33  C15 UNL     1      -4.959  -2.919 -23.868  1.00  0.00     0.171 C
BRANCH  33  34
HETATM   34  C16 UNL     1      -6.194  -3.273 -24.624  1.00  0.00     0.026 C
BRANCH  34  35
HETATM   35  C17 UNL     1      -6.284  -2.764 -26.007  1.00  0.00     0.002 C
BRANCH  35  36
HETATM   36  C18 UNL     1      -6.648  -1.333 -26.133  1.00  0.00     0.010 C
BRANCH  36  37
HETATM   37  C19 UNL     1      -5.583  -0.585 -26.888  1.00  0.00     0.113 C
BRANCH  37  38
HETATM   38  C20 UNL     1      -5.160   0.604 -26.094  1.00  0.00     0.172 C
HETATM   39  O4  UNL     1      -5.322   0.620 -24.853  1.00  0.00    -0.648 OA
HETATM   40  O5  UNL     1      -4.594   1.677 -26.741  1.00  0.00    -0.648 OA
ENDBRANCH  37  38
ENDBRANCH  36  37
ENDBRANCH  35  36
ENDBRANCH  34  35
ENDBRANCH  33  34
ENDBRANCH  32  33
ENDBRANCH  23  32
ENDBRANCH  20  21
ENDBRANCH  19  20
ENDBRANCH  17  19
ENDBRANCH   1   4
TORSDOF 11
ENDMDL