MODEL 2
REMARK VINA RESULT: -7.716568871      1.485      4.090
REMARK  16 active torsions:
REMARK  status: ('A' for Active; 'I' for Inactive)
REMARK    1  A    between atoms: C2_2  and  N1_3
REMARK    2  A    between atoms: C2_2  and  N2_10
REMARK    3  A    between atoms: N1_3  and  C3_6
REMARK    4  A    between atoms: N2_10  and  C7_11
REMARK    5  A    between atoms: N2_10  and  C12_17
REMARK    6  A    between atoms: C7_11  and  C8_12
REMARK    7  A    between atoms: C8_12  and  C9_13
REMARK    8  A    between atoms: C9_13  and  N3_14
REMARK    9  A    between atoms: C12_17  and  O1_18
REMARK   10  A    between atoms: C12_17  and  C13_20
REMARK   11  A    between atoms: C16_23  and  N4_24
REMARK       I    between atoms: N4_24  and  C17_26
REMARK   12  A    between atoms: C17_26  and  C18_28
REMARK   13  A    between atoms: C20_32  and  N6_33
REMARK   14  A    between atoms: N6_33  and  C21_35
REMARK   15  A    between atoms: C21_35  and  C22_36
REMARK   16  A    between atoms: C22_36  and  N7_37
ROOT
HETATM    1  C18 UNL     1       2.650  -5.901 -16.210  1.00  0.00     0.117 A
HETATM    2  C19 UNL     1       2.981  -5.246 -15.041  1.00  0.00     0.125 A
HETATM    3  N5  UNL     1       3.414  -5.925 -14.001  1.00  0.00    -0.348 N
ATOM      4  H5  UNL     1       3.653  -5.424 -13.146  1.00  0.00     0.167 HD
HETATM    5  C20 UNL     1       3.557  -7.307 -14.035  1.00  0.00     0.139 A
HETATM    6  C25 UNL     1       3.227  -7.939 -15.195  1.00  0.00     0.158 A
HETATM    7  C26 UNL     1       3.334  -9.382 -15.359  1.00  0.00     0.121 C
HETATM    8  N8  UNL     1       3.407 -10.506 -15.520  1.00  0.00    -0.190 NA
HETATM    9  N9  UNL     1       2.778  -7.220 -16.266  1.00  0.00    -0.339 N
ATOM     10  H9  UNL     1       2.535  -7.708 -17.128  1.00  0.00     0.167 HD
ENDROOT
BRANCH   5  11
HETATM   11  N6  UNL     1       3.968  -7.880 -13.018  1.00  0.00    -0.372 N
ATOM     12  H6  UNL     1       3.322  -7.760 -12.238  1.00  0.00     0.161 HD
BRANCH  11  13
HETATM   13  C21 UNL     1       5.054  -8.631 -12.656  1.00  0.00     0.140 C
BRANCH  13  14
HETATM   14  C22 UNL     1       6.330  -7.856 -13.037  1.00  0.00     0.135 C
BRANCH  14  15
HETATM   15  N7  UNL     1       7.433  -8.140 -12.183  1.00  0.00    -0.419 N
HETATM   16  C23 UNL     1       8.165  -7.025 -11.686  1.00  0.00     0.142 C
HETATM   17  C24 UNL     1       8.225  -9.266 -12.554  1.00  0.00     0.142 C
ENDBRANCH  14  15
ENDBRANCH  13  14
ENDBRANCH  11  13
ENDBRANCH   5  11
BRANCH   1  18
HETATM   18  C17 UNL     1       2.158  -5.142 -17.380  1.00  0.00     0.274 C
HETATM   19  N4  UNL     1       1.327  -4.064 -17.133  1.00  0.00    -0.316 N
ATOM     20  H4  UNL     1       1.089  -3.838 -16.167  1.00  0.00     0.170 HD
HETATM   21  O2  UNL     1       2.541  -5.546 -18.497  1.00  0.00    -0.266 OA
BRANCH  19  22
HETATM   22  C16 UNL     1       0.785  -3.248 -18.185  1.00  0.00     0.077 A
HETATM   23  C15 UNL     1       1.231  -2.134 -18.809  1.00  0.00     0.039 A
HETATM   24  C14 UNL     1       0.475  -1.595 -19.781  1.00  0.00     0.026 A
HETATM   25  C13 UNL     1      -0.698  -2.175 -20.109  1.00  0.00     0.058 A
HETATM   26  S1  UNL     1      -0.718  -3.522 -18.998  1.00  0.00    -0.068 SA
BRANCH  25  27
HETATM   27  C12 UNL     1      -1.756  -1.925 -21.065  1.00  0.00     0.161 C
BRANCH  27  28
HETATM   28  N2  UNL     1      -2.087  -2.545 -22.294  1.00  0.00    -0.308 N
BRANCH  28  29
HETATM   29  C2  UNL     1      -2.706  -1.631 -23.270  1.00  0.00     0.288 C
HETATM   30  C1  UNL     1      -4.109  -1.880 -23.652  1.00  0.00     0.064 C
BRANCH  29  31
HETATM   31  N1  UNL     1      -1.856  -1.603 -24.431  1.00  0.00    -0.046 N
ATOM     32  H12 UNL     1      -1.259  -2.430 -24.452  1.00  0.00     0.280 HD
ATOM     33  H11 UNL     1      -2.406  -1.761 -25.276  1.00  0.00     0.280 HD
BRANCH  31  34
HETATM   34  C3  UNL     1      -1.055  -0.398 -24.569  1.00  0.00     0.117 C
HETATM   35  C4  UNL     1       0.320  -0.817 -23.990  1.00  0.00     0.045 C
HETATM   36  C5  UNL     1      -0.804   0.013 -25.986  1.00  0.00     0.045 C
HETATM   37  C6  UNL     1      -1.503   0.739 -23.715  1.00  0.00     0.045 C
ENDBRANCH  31  34
ENDBRANCH  29  31
ENDBRANCH  28  29
BRANCH  28  38
HETATM   38  C7  UNL     1      -1.790  -3.871 -22.702  1.00  0.00     0.093 C
BRANCH  38  39
HETATM   39  C8  UNL     1      -2.365  -5.065 -22.103  1.00  0.00     0.020 C
BRANCH  39  40
HETATM   40  C9  UNL     1      -3.675  -5.051 -21.399  1.00  0.00     0.300 C
BRANCH  40  41
HETATM   41  N3  UNL     1      -3.816  -6.337 -20.692  1.00  0.00     0.083 N
HETATM   42  C10 UNL     1      -3.646  -6.059 -19.284  1.00  0.00     0.309 C
HETATM   43  C11 UNL     1      -2.890  -7.324 -21.145  1.00  0.00     0.309 C
ENDBRANCH  40  41
ENDBRANCH  39  40
ENDBRANCH  38  39
ENDBRANCH  28  38
ENDBRANCH  27  28
BRANCH  27  44
HETATM   44  O1  UNL     1      -2.537  -0.930 -20.696  1.00  0.00    -0.345 OA
ATOM     45  H1  UNL     1      -2.784  -0.916 -19.779  1.00  0.00     0.219 HD
ENDBRANCH  27  44
ENDBRANCH  25  27
ENDBRANCH  19  22
ENDBRANCH   1  18
TORSDOF 16
ENDMDL