MODEL 3
REMARK VINA RESULT: -8.467276818      2.785      9.348
REMARK  12 active torsions:
REMARK  status: ('A' for Active; 'I' for Inactive)
REMARK    1  A    between atoms: C2_2  and  C3_3
REMARK    2  A    between atoms: C3_3  and  N1_4
REMARK       I    between atoms: N1_4  and  C4_6
REMARK    3  A    between atoms: C4_6  and  C5_8
REMARK    4  A    between atoms: C8_16  and  C9_17
REMARK    5  A    between atoms: C9_17  and  C10_18
REMARK    6  A    between atoms: C10_18  and  C11_19
REMARK    7  A    between atoms: C13_22  and  N3_23
REMARK       I    between atoms: N3_23  and  C14_25
REMARK    8  A    between atoms: C14_25  and  C15_27
REMARK    9  A    between atoms: C15_27  and  C16_28
REMARK   10  A    between atoms: C18_30  and  O5_31
REMARK   11  A    between atoms: C20_33  and  O6_34
REMARK   12  A    between atoms: C22_36  and  O7_37
ROOT
HETATM    1  C11 UNL     1      -2.154  -2.454 -21.730  1.00  0.00     0.018 A
HETATM    2  C12 UNL     1      -1.408  -3.037 -22.715  1.00  0.00     0.078 A
HETATM    3  S2  UNL     1      -1.908  -4.666 -22.641  1.00  0.00    -0.064 SA
HETATM    4  C13 UNL     1      -3.032  -4.522 -21.370  1.00  0.00     0.151 A
HETATM    5  N4  UNL     1      -2.978  -3.229 -21.054  1.00  0.00    -0.340 N
ATOM      6  H4  UNL     1      -3.561  -2.848 -20.307  1.00  0.00     0.168 HD
ENDROOT
BRANCH   1   7
HETATM    7  C10 UNL     1      -2.018  -0.962 -21.439  1.00  0.00     0.059 C
BRANCH   7   8
HETATM    8  C9  UNL     1      -1.487  -0.248 -22.636  1.00  0.00     0.033 C
BRANCH   8   9
HETATM    9  C8  UNL     1      -2.459   0.497 -23.469  1.00  0.00     0.111 C
HETATM   10  C5  UNL     1      -2.699   0.001 -24.828  1.00  0.00     0.072 C
HETATM   11  C6  UNL     1      -1.447  -0.427 -25.565  1.00  0.00     0.029 C
HETATM   12  C7  UNL     1      -3.305   1.109 -25.678  1.00  0.00     0.184 C
HETATM   13  S1  UNL     1      -2.934   2.562 -24.748  1.00  0.00     0.228 S
HETATM   14  O2  UNL     1      -2.151   3.561 -25.552  1.00  0.00    -0.206 OA
HETATM   15  O3  UNL     1      -4.196   3.167 -24.248  1.00  0.00    -0.206 OA
HETATM   16  N2  UNL     1      -1.977   1.875 -23.517  1.00  0.00    -0.313 N
ATOM     17  H2  UNL     1      -1.249   2.316 -22.955  1.00  0.00     0.172 HD
BRANCH  10  18
HETATM   18  C4  UNL     1      -3.694  -1.101 -24.877  1.00  0.00     0.229 C
HETATM   19  N1  UNL     1      -3.823  -2.017 -25.950  1.00  0.00    -0.360 N
ATOM     20  H1  UNL     1      -3.182  -1.893 -26.734  1.00  0.00     0.162 HD
HETATM   21  O1  UNL     1      -4.477  -1.237 -23.904  1.00  0.00    -0.273 OA
BRANCH  19  22
HETATM   22  C3  UNL     1      -4.751  -3.093 -26.053  1.00  0.00     0.122 C
BRANCH  22  23
HETATM   23  C2  UNL     1      -6.062  -2.641 -26.602  1.00  0.00     0.015 C
HETATM   24  C1  UNL     1      -7.157  -2.684 -25.544  1.00  0.00     0.006 C
ENDBRANCH  22  23
ENDBRANCH  19  22
ENDBRANCH  10  18
ENDBRANCH   8   9
ENDBRANCH   7   8
ENDBRANCH   1   7
BRANCH   4  25
HETATM   25  N3  UNL     1      -3.789  -5.447 -20.810  1.00  0.00    -0.307 N
HETATM   26  C14 UNL     1      -3.379  -5.918 -19.547  1.00  0.00     0.227 C
HETATM   27  O4  UNL     1      -4.016  -5.594 -18.514  1.00  0.00    -0.273 OA
ATOM     28  H3  UNL     1      -4.628  -5.802 -21.268  1.00  0.00     0.171 HD
BRANCH  26  29
HETATM   29  C15 UNL     1      -2.195  -6.794 -19.446  1.00  0.00     0.141 C
BRANCH  29  30
HETATM   30  C16 UNL     1      -1.193  -6.226 -18.515  1.00  0.00    -0.044 A
HETATM   31  C17 UNL     1      -0.759  -6.978 -17.444  1.00  0.00     0.047 A
HETATM   32  C18 UNL     1       0.175  -6.447 -16.576  1.00  0.00     0.104 A
HETATM   33  C20 UNL     1       0.679  -5.187 -16.761  1.00  0.00     0.135 A
HETATM   34  C22 UNL     1       0.221  -4.455 -17.851  1.00  0.00     0.104 A
HETATM   35  C24 UNL     1      -0.705  -4.964 -18.723  1.00  0.00     0.047 A
BRANCH  32  36
HETATM   36  O5  UNL     1       0.597  -7.238 -15.493  1.00  0.00    -0.353 OA
HETATM   37  C19 UNL     1       1.576  -8.245 -15.660  1.00  0.00     0.210 C
ENDBRANCH  32  36
BRANCH  33  38
HETATM   38  O6  UNL     1       1.614  -4.693 -15.868  1.00  0.00    -0.351 OA
HETATM   39  C21 UNL     1       3.017  -4.736 -16.112  1.00  0.00     0.210 C
ENDBRANCH  33  38
BRANCH  34  40
HETATM   40  O7  UNL     1       0.729  -3.183 -18.040  1.00  0.00    -0.353 OA
HETATM   41  C23 UNL     1       0.730  -2.513 -19.271  1.00  0.00     0.210 C
ENDBRANCH  34  40
ENDBRANCH  29  30
ENDBRANCH  26  29
ENDBRANCH   4  25
TORSDOF 12
ENDMDL