MODEL 1
REMARK VINA RESULT: -9.716999964      0.000      0.000
REMARK  11 active torsions:
REMARK  status: ('A' for Active; 'I' for Inactive)
REMARK    1  A    between atoms: C2_2  and  C3_3
REMARK    2  A    between atoms: C3_3  and  C4_4
REMARK    3  A    between atoms: C4_4  and  C5_5
REMARK    4  A    between atoms: C5_5  and  N1_6
REMARK    5  A    between atoms: C10_13  and  N3_14
REMARK       I    between atoms: N3_14  and  C11_16
REMARK    6  A    between atoms: C11_16  and  C12_18
REMARK    7  A    between atoms: C12_18  and  S1_19
REMARK    8  A    between atoms: S1_19  and  C13_20
REMARK    9  A    between atoms: C13_20  and  C14_21
REMARK       I    between atoms: C14_21  and  N4_23
REMARK   10  A    between atoms: N4_23  and  C15_25
REMARK   11  A    between atoms: C15_25  and  C16_26
ROOT
HETATM    1  N3  UNL     1      -3.847  -4.811 -21.268  1.00  0.00    -0.323 N
ATOM      2  H3  UNL     1      -4.460  -5.042 -20.486  1.00  0.00     0.169 HD
HETATM    3  C11 UNL     1      -2.849  -5.726 -21.601  1.00  0.00     0.231 C
HETATM    4  O2  UNL     1      -2.040  -5.553 -22.514  1.00  0.00    -0.272 OA
ENDROOT
BRANCH   1   5
HETATM    5  C10 UNL     1      -4.071  -3.591 -21.933  1.00  0.00     0.086 C
HETATM    6  C9  UNL     1      -5.155  -3.525 -22.778  1.00  0.00     0.043 C
HETATM    7  C8  UNL     1      -5.172  -2.910 -24.040  1.00  0.00    -0.026 C
HETATM    8  C7  UNL     1      -4.350  -1.859 -24.414  1.00  0.00     0.072 A
HETATM    9  C26 UNL     1      -6.149  -3.466 -24.976  1.00  0.00     0.042 C
HETATM   10  N2  UNL     1      -4.423  -1.297 -25.644  1.00  0.00    -0.297 N
HETATM   11  C25 UNL     1      -3.361  -1.178 -23.714  1.00  0.00     0.070 A
HETATM   12  C6  UNL     1      -3.508  -0.312 -25.680  1.00  0.00     0.330 A
HETATM   13  C28 UNL     1      -5.378  -1.809 -26.610  1.00  0.00     0.134 C
HETATM   14  N1  UNL     1      -2.856  -0.228 -24.510  1.00  0.00    -0.297 N
HETATM   15  O1  UNL     1      -3.283   0.441 -26.667  1.00  0.00    -0.246 OA
HETATM   16  C27 UNL     1      -6.615  -2.356 -25.905  1.00  0.00     0.025 C
HETATM   17  C24 UNL     1      -2.927  -1.401 -22.420  1.00  0.00     0.089 C
HETATM   18  C23 UNL     1      -3.182  -2.528 -21.663  1.00  0.00     0.200 C
HETATM   19  O5  UNL     1      -2.560  -2.642 -20.606  1.00  0.00    -0.286 OA
BRANCH  14  20
HETATM   20  C5  UNL     1      -1.779   0.752 -24.222  1.00  0.00     0.134 C
BRANCH  20  21
HETATM   21  C4  UNL     1      -0.531   0.279 -24.907  1.00  0.00     0.020 C
BRANCH  21  22
HETATM   22  C3  UNL     1       0.264  -0.792 -24.307  1.00  0.00     0.001 C
BRANCH  22  23
HETATM   23  C2  UNL     1       1.235  -0.488 -23.221  1.00  0.00    -0.004 C
HETATM   24  C1  UNL     1       0.699  -0.763 -21.849  1.00  0.00     0.005 C
ENDBRANCH  22  23
ENDBRANCH  21  22
ENDBRANCH  20  21
ENDBRANCH  14  20
ENDBRANCH   1   5
BRANCH   3  25
HETATM   25  C12 UNL     1      -2.734  -7.011 -20.807  1.00  0.00     0.177 C
BRANCH  25  26
HETATM   26  S1  UNL     1      -3.708  -6.856 -19.327  1.00  0.00    -0.150 SA
BRANCH  26  27
HETATM   27  C13 UNL     1      -3.040  -7.880 -18.009  1.00  0.00     0.177 C
BRANCH  27  28
HETATM   28  C14 UNL     1      -1.641  -7.579 -17.634  1.00  0.00     0.227 C
HETATM   29  O3  UNL     1      -0.862  -8.580 -17.466  1.00  0.00    -0.273 OA
HETATM   30  N4  UNL     1      -1.109  -6.278 -17.455  1.00  0.00    -0.356 N
ATOM     31  H4  UNL     1      -1.751  -5.497 -17.592  1.00  0.00     0.162 HD
BRANCH  30  32
HETATM   32  C15 UNL     1       0.223  -5.954 -17.105  1.00  0.00     0.167 C
BRANCH  32  33
HETATM   33  C16 UNL     1       0.871  -4.758 -17.641  1.00  0.00     0.033 A
HETATM   34  C17 UNL     1       1.912  -4.181 -16.862  1.00  0.00    -0.047 A
HETATM   35  C18 UNL     1       2.250  -4.821 -15.563  1.00  0.00     0.049 C
HETATM   36  C19 UNL     1       2.557  -3.079 -17.330  1.00  0.00     0.032 A
HETATM   37  C20 UNL     1       2.269  -2.467 -18.529  1.00  0.00     0.009 A
HETATM   38  C21 UNL     1       3.018  -1.247 -18.959  1.00  0.00     0.068 C
HETATM   39  N5  UNL     1       1.289  -3.025 -19.248  1.00  0.00    -0.327 N
HETATM   40  C22 UNL     1       0.620  -4.130 -18.816  1.00  0.00     0.254 A
ATOM     41  H5  UNL     1       1.036  -2.611 -20.146  1.00  0.00     0.169 HD
HETATM   42  O4  UNL     1      -0.268  -4.529 -19.623  1.00  0.00    -0.268 OA
ENDBRANCH  32  33
ENDBRANCH  30  32
ENDBRANCH  27  28
ENDBRANCH  26  27
ENDBRANCH  25  26
ENDBRANCH   3  25
TORSDOF 11
ENDMDL