MODEL 5
REMARK VINA RESULT: -8.583906126      3.883     10.231
REMARK  13 active torsions:
REMARK  status: ('A' for Active; 'I' for Inactive)
REMARK    1  A    between atoms: C3_3  and  C5_5
REMARK    2  A    between atoms: C5_5  and  C6_6
REMARK    3  A    between atoms: C6_6  and  C7_7
REMARK    4  A    between atoms: C6_6  and  C15_18
REMARK    5  A    between atoms: C7_7  and  O1_8
REMARK    6  A    between atoms: C7_7  and  N1_10
REMARK    7  A    between atoms: C10_13  and  C11_14
REMARK    8  A    between atoms: C15_18  and  N2_19
REMARK    9  A    between atoms: C15_18  and  C17_22
REMARK       I    between atoms: C17_22  and  N3_24
REMARK   10  A    between atoms: N3_24  and  C18_26
REMARK   11  A    between atoms: C18_26  and  C19_27
REMARK       I    between atoms: C19_27  and  N4_29
REMARK   12  A    between atoms: N4_29  and  N5_31
REMARK   13  A    between atoms: C20_33  and  C21_34
ROOT
HETATM    1  C17 UNL     1      -2.625  -4.709 -19.871  1.00  0.00     0.245 C
HETATM    2  O2  UNL     1      -3.044  -4.245 -18.752  1.00  0.00    -0.271 OA
HETATM    3  N3  UNL     1      -1.282  -5.025 -19.984  1.00  0.00    -0.340 N
ATOM      4  H3  UNL     1      -1.000  -5.383 -20.897  1.00  0.00     0.163 HD
ENDROOT
BRANCH   1   5
HETATM    5  C15 UNL     1      -3.573  -4.886 -20.999  1.00  0.00     0.203 C
BRANCH   5   6
HETATM    6  C6  UNL     1      -3.772  -3.712 -21.903  1.00  0.00     0.006 C
BRANCH   6   7
HETATM    7  C5  UNL     1      -5.072  -3.699 -22.666  1.00  0.00     0.074 C
BRANCH   7   8
HETATM    8  C3  UNL     1      -4.820  -3.252 -24.102  1.00  0.00    -0.084 C
HETATM    9  C2  UNL     1      -5.817  -2.750 -24.818  1.00  0.00    -0.028 C
HETATM   10  C1  UNL     1      -5.537  -2.323 -26.215  1.00  0.00     0.036 C
HETATM   11  C4  UNL     1      -3.484  -3.361 -24.732  1.00  0.00     0.043 C
ENDBRANCH   7   8
ENDBRANCH   6   7
BRANCH   6  12
HETATM   12  C7  UNL     1      -3.321  -2.412 -21.417  1.00  0.00     0.143 C
BRANCH  12  13
HETATM   13  O1  UNL     1      -4.147  -1.866 -20.531  1.00  0.00    -0.346 OA
ATOM     14  H1  UNL     1      -3.994  -2.163 -19.641  1.00  0.00     0.219 HD
ENDBRANCH  12  13
BRANCH  12  15
HETATM   15  N1  UNL     1      -2.235  -1.612 -21.661  1.00  0.00    -0.362 N
HETATM   16  C8  UNL     1      -2.309  -0.645 -22.788  1.00  0.00     0.125 C
HETATM   17  C9  UNL     1      -1.120   0.264 -22.743  1.00  0.00     0.024 C
HETATM   18  C10 UNL     1       0.205  -0.422 -22.740  1.00  0.00    -0.012 C
HETATM   19  C13 UNL     1       0.124  -1.721 -22.014  1.00  0.00     0.024 C
HETATM   20  C14 UNL     1      -1.002  -1.557 -20.961  1.00  0.00     0.125 C
BRANCH  18  21
HETATM   21  C11 UNL     1       0.781  -0.561 -24.133  1.00  0.00     0.000 C
HETATM   22  C12 UNL     1       0.097   0.322 -25.126  1.00  0.00     0.005 C
ENDBRANCH  18  21
ENDBRANCH  12  15
ENDBRANCH   6  12
ENDBRANCH   5   6
BRANCH   5  23
HETATM   23  N2  UNL     1      -3.090  -6.050 -21.728  1.00  0.00    -0.410 N
HETATM   24  C16 UNL     1      -3.469  -7.318 -21.198  1.00  0.00     0.141 C
ATOM     25  H2  UNL     1      -2.516  -5.964 -22.567  1.00  0.00     0.153 HD
ENDBRANCH   5  23
ENDBRANCH   1   5
BRANCH   3  26
HETATM   26  C18 UNL     1      -0.203  -4.929 -19.004  1.00  0.00     0.124 C
HETATM   27  C25 UNL     1       1.130  -4.998 -19.699  1.00  0.00     0.042 C
HETATM   28  C26 UNL     1       2.259  -5.350 -18.756  1.00  0.00     0.013 C
HETATM   29  C27 UNL     1       2.646  -4.102 -17.964  1.00  0.00     0.074 C
HETATM   30  S1  UNL     1       1.334  -2.860 -18.134  1.00  0.00    -0.166 SA
HETATM   31  C28 UNL     1      -0.288  -3.587 -18.292  1.00  0.00     0.115 C
BRANCH  26  32
HETATM   32  C19 UNL     1      -0.334  -6.022 -18.036  1.00  0.00     0.265 C
HETATM   33  O3  UNL     1      -0.170  -5.886 -16.811  1.00  0.00    -0.269 OA
HETATM   34  N4  UNL     1      -0.665  -7.339 -18.476  1.00  0.00    -0.268 N
ATOM     35  H4  UNL     1      -0.800  -7.475 -19.478  1.00  0.00     0.190 HD
BRANCH  34  36
HETATM   36  N5  UNL     1      -0.818  -8.443 -17.663  1.00  0.00    -0.307 N
HETATM   37  C20 UNL     1      -1.804  -9.243 -17.604  1.00  0.00     0.138 C
ATOM     38  H5  UNL     1      -0.043  -8.642 -17.031  1.00  0.00     0.186 HD
BRANCH  37  39
HETATM   39  C21 UNL     1      -1.697 -10.345 -16.638  1.00  0.00     0.064 A
HETATM   40  C22 UNL     1      -1.139 -10.176 -15.389  1.00  0.00     0.118 A
HETATM   41  N6  UNL     1      -1.046 -11.196 -14.516  1.00  0.00    -0.372 N
HETATM   42  C23 UNL     1      -1.490 -12.430 -14.815  1.00  0.00     0.104 A
ATOM     43  H6  UNL     1      -0.627 -11.029 -13.601  1.00  0.00     0.164 HD
HETATM   44  C24 UNL     1      -2.049 -12.594 -16.070  1.00  0.00     0.105 A
HETATM   45  N7  UNL     1      -2.148 -11.585 -16.948  1.00  0.00    -0.362 N
ATOM     46  H7  UNL     1      -2.568 -11.754 -17.862  1.00  0.00     0.165 HD
ENDBRANCH  37  39
ENDBRANCH  34  36
ENDBRANCH  26  32
ENDBRANCH   3  26
TORSDOF 13
ENDMDL