MODEL 2
REMARK VINA RESULT: -8.757702539      2.500      7.238
REMARK  13 active torsions:
REMARK  status: ('A' for Active; 'I' for Inactive)
REMARK    1  A    between atoms: O1_2  and  C2_3
REMARK    2  A    between atoms: N1_7  and  C6_8
REMARK    3  A    between atoms: C6_8  and  C7_9
REMARK    4  A    between atoms: C7_9  and  O2_10
REMARK    5  A    between atoms: O2_10  and  C8_11
REMARK    6  A    between atoms: C11_14  and  N2_15
REMARK    7  A    between atoms: N2_15  and  C12_17
REMARK    8  A    between atoms: C13_20  and  N4_21
REMARK    9  A    between atoms: N4_21  and  C14_23
REMARK   10  A    between atoms: C14_23  and  C15_24
REMARK   11  A    between atoms: C15_24  and  C16_25
REMARK   12  A    between atoms: C21_36  and  C22_37
REMARK   13  A    between atoms: C22_37  and  N8_38
ROOT
HETATM    1  C12 UNL     1      -2.862  -5.975 -19.481  1.00  0.00     0.130 A
HETATM    2  N3  UNL     1      -3.669  -5.275 -20.265  1.00  0.00    -0.176 N
ATOM      3  H3  UNL     1      -3.606  -4.256 -20.256  1.00  0.00     0.186 HD
HETATM    4  C13 UNL     1      -4.586  -5.877 -21.089  1.00  0.00     0.679 A
HETATM    5  N7  UNL     1      -4.691  -7.208 -21.123  1.00  0.00    -0.201 N
ATOM      6  H7  UNL     1      -5.374  -7.652 -21.736  1.00  0.00     0.183 HD
HETATM    7  C20 UNL     1      -3.893  -7.959 -20.347  1.00  0.00     0.118 A
HETATM    8  C21 UNL     1      -2.967  -7.377 -19.515  1.00  0.00     0.020 A
ENDROOT
BRANCH   1   9
HETATM    9  N2  UNL     1      -2.017  -5.478 -18.702  1.00  0.00    -0.340 N
ATOM     10  H2  UNL     1      -2.044  -5.866 -17.759  1.00  0.00     0.167 HD
BRANCH   9  11
HETATM   11  C11 UNL     1      -1.049  -4.497 -18.883  1.00  0.00     0.049 A
HETATM   12  C10 UNL     1       0.209  -4.743 -19.374  1.00  0.00     0.035 A
HETATM   13  C9  UNL     1       1.170  -3.736 -19.544  1.00  0.00     0.058 A
HETATM   14  C8  UNL     1       0.847  -2.437 -19.204  1.00  0.00     0.141 A
HETATM   15  N9  UNL     1      -0.380  -2.198 -18.725  1.00  0.00    -0.345 N
HETATM   16  C28 UNL     1      -1.305  -3.150 -18.559  1.00  0.00     0.119 A
ATOM     17  H9  UNL     1      -0.622  -1.239 -18.474  1.00  0.00     0.167 HD
BRANCH  14  18
HETATM   18  O2  UNL     1       1.737  -1.399 -19.343  1.00  0.00    -0.334 OA
BRANCH  18  19
HETATM   19  C7  UNL     1       1.643  -0.358 -20.244  1.00  0.00     0.207 C
BRANCH  19  20
HETATM   20  C6  UNL     1       1.701  -0.712 -21.703  1.00  0.00     0.299 C
BRANCH  20  21
HETATM   21  N1  UNL     1       0.334  -0.768 -22.200  1.00  0.00     0.093 N
HETATM   22  C5  UNL     1      -0.047  -2.091 -22.502  1.00  0.00     0.272 C
HETATM   23  C4  UNL     1      -1.442  -2.521 -22.246  1.00  0.00     0.033 C
HETATM   24  C3  UNL     1      -2.402  -1.504 -21.751  1.00  0.00     0.035 C
HETATM   25  C2  UNL     1      -2.002  -0.091 -22.012  1.00  0.00     0.149 C
HETATM   26  C29 UNL     1      -0.577   0.061 -21.498  1.00  0.00     0.304 C
BRANCH  25  27
HETATM   27  O1  UNL     1      -1.986   0.261 -23.353  1.00  0.00    -0.389 OA
HETATM   28  C1  UNL     1      -2.021   1.624 -23.541  1.00  0.00     0.202 C
ENDBRANCH  25  27
ENDBRANCH  20  21
ENDBRANCH  19  20
ENDBRANCH  18  19
ENDBRANCH  14  18
ENDBRANCH   9  11
ENDBRANCH   1   9
BRANCH   8  29
HETATM   29  C22 UNL     1      -2.029  -8.116 -18.666  1.00  0.00     0.161 C
BRANCH  29  30
HETATM   30  N8  UNL     1      -2.662  -8.901 -17.679  1.00  0.00    -0.408 N
HETATM   31  C23 UNL     1      -3.077  -8.210 -16.481  1.00  0.00     0.117 C
HETATM   32  C24 UNL     1      -2.026  -8.309 -15.389  1.00  0.00     0.019 C
HETATM   33  C25 UNL     1      -1.697  -9.721 -15.040  1.00  0.00     0.003 C
HETATM   34  C26 UNL     1      -2.376 -10.664 -16.001  1.00  0.00     0.019 C
HETATM   35  C27 UNL     1      -2.042 -10.173 -17.400  1.00  0.00     0.117 C
ENDBRANCH  29  30
ENDBRANCH   8  29
BRANCH   4  36
HETATM   36  N4  UNL     1      -5.353  -5.214 -21.861  1.00  0.00    -0.226 N
ATOM     37  H4  UNL     1      -6.280  -5.589 -22.062  1.00  0.00     0.177 HD
BRANCH  36  38
HETATM   38  C14 UNL     1      -4.982  -3.981 -22.455  1.00  0.00     0.144 C
BRANCH  38  39
HETATM   39  C15 UNL     1      -5.724  -3.745 -23.766  1.00  0.00     0.079 C
BRANCH  39  40
HETATM   40  C16 UNL     1      -5.003  -2.667 -24.511  1.00  0.00     0.029 A
HETATM   41  C17 UNL     1      -5.455  -1.445 -24.933  1.00  0.00     0.052 A
HETATM   42  C18 UNL     1      -4.427  -0.771 -25.596  1.00  0.00     0.024 A
HETATM   43  C19 UNL     1      -4.488   0.586 -26.209  1.00  0.00     0.070 C
HETATM   44  N5  UNL     1      -3.380  -1.620 -25.547  1.00  0.00    -0.305 N
HETATM   45  N6  UNL     1      -3.698  -2.731 -24.918  1.00  0.00    -0.305 N
ATOM     46  H5  UNL     1      -2.462  -1.426 -25.947  1.00  0.00     0.186 HD
ATOM     47  H6  UNL     1      -3.069  -3.518 -24.757  1.00  0.00     0.186 HD
ENDBRANCH  39  40
ENDBRANCH  38  39
ENDBRANCH  36  38
ENDBRANCH   4  36
TORSDOF 13
ENDMDL