MODEL 3
REMARK VINA RESULT: -8.031426400      2.709      3.308
REMARK  7 active torsions:
REMARK  status: ('A' for Active; 'I' for Inactive)
REMARK    1  A    between atoms: C5_5  and  C6_6
REMARK    2  A    between atoms: C6_6  and  C7_7
REMARK    3  A    between atoms: C14_15  and  O2_16
REMARK    4  A    between atoms: O2_16  and  C15_17
REMARK    5  A    between atoms: C15_17  and  C16_19
REMARK    6  A    between atoms: C20_23  and  O4_24
REMARK    7  A    between atoms: C22_28  and  O6_29
ROOT
HETATM    1  C1  UNL     1      23.424  16.312  63.689  1.00  0.00     0.017 C
HETATM    2  C2  UNL     1      22.712  17.040  62.851  1.00  0.00    -0.048 C
HETATM    3  C3  UNL     1      21.326  16.628  62.666  1.00  0.00     0.073 C
HETATM    4  C4  UNL     1      20.852  15.433  63.334  1.00  0.00     0.017 C
HETATM    5  C5  UNL     1      19.617  15.693  63.758  1.00  0.00     0.044 C
HETATM    6  O1  UNL     1      19.270  17.008  63.400  1.00  0.00    -0.347 OA
HETATM    7  C9  UNL     1      20.504  17.667  63.400  1.00  0.00     0.169 C
HETATM    8  C10 UNL     1      20.650  19.022  62.951  1.00  0.00     0.153 C
HETATM    9  C11 UNL     1      20.815  19.283  61.461  1.00  0.00     0.042 C
HETATM   10  C12 UNL     1      21.909  20.202  61.489  1.00  0.00     0.031 C
HETATM   11  C13 UNL     1      22.845  20.493  60.439  1.00  0.00     0.043 C
HETATM   12  C14 UNL     1      23.884  21.212  61.263  1.00  0.00     0.164 C
HETATM   13  C20 UNL     1      23.820  20.627  62.660  1.00  0.00     0.185 C
HETATM   14  C21 UNL     1      22.805  19.520  62.555  1.00  0.00     0.123 C
HETATM   15  O5  UNL     1      21.845  19.524  63.551  1.00  0.00    -0.366 OA
HETATM   16  C22 UNL     1      23.332  18.208  62.159  1.00  0.00     0.184 C
ENDROOT
BRANCH  12  17
HETATM   17  O2  UNL     1      25.140  21.340  60.742  1.00  0.00    -0.310 OA
BRANCH  17  18
HETATM   18  C15 UNL     1      25.687  22.391  60.059  1.00  0.00     0.283 C
HETATM   19  O3  UNL     1      24.883  23.347  59.935  1.00  0.00    -0.260 OA
BRANCH  18  20
HETATM   20  C16 UNL     1      27.028  22.457  59.513  1.00  0.00     0.084 C
HETATM   21  C17 UNL     1      27.968  23.263  59.944  1.00  0.00    -0.082 C
HETATM   22  C18 UNL     1      27.727  24.206  61.063  1.00  0.00     0.043 C
HETATM   23  C19 UNL     1      29.341  23.275  59.324  1.00  0.00     0.043 C
ENDBRANCH  18  20
ENDBRANCH  17  18
ENDBRANCH  12  17
BRANCH  13  24
HETATM   24  O4  UNL     1      25.038  20.262  63.152  1.00  0.00    -0.390 OA
ATOM     25  H4  UNL     1      24.993  19.564  63.794  1.00  0.00     0.210 HD
ENDBRANCH  13  24
BRANCH  16  26
HETATM   26  O6  UNL     1      24.724  18.053  62.354  1.00  0.00    -0.388 OA
ATOM     27  H6  UNL     1      25.114  18.839  61.987  1.00  0.00     0.210 HD
ENDBRANCH  16  26
BRANCH   5  28
HETATM   28  C6  UNL     1      18.749  14.719  64.502  1.00  0.00     0.064 C
BRANCH  28  29
HETATM   29  C7  UNL     1      17.584  15.385  65.175  1.00  0.00     0.002 C
HETATM   30  C8  UNL     1      17.610  15.101  66.662  1.00  0.00     0.005 C
ENDBRANCH  28  29
ENDBRANCH   5  28
TORSDOF 7
ENDMDL