MODEL 3
REMARK VINA RESULT: -7.306340284      2.727      6.011
REMARK  5 active torsions:
REMARK  status: ('A' for Active; 'I' for Inactive)
REMARK    1  A    between atoms: C2_2  and  C3_3
REMARK    2  A    between atoms: C3_3  and  C5_5
REMARK    3  A    between atoms: C9_11  and  C10_12
REMARK    4  A    between atoms: C9_11  and  C11_14
REMARK    5  A    between atoms: C16_21  and  C17_22
ROOT
HETATM    1  C5  UNL     1      22.260  19.789  62.047  1.00  0.00     0.098 C
HETATM    2  N1  UNL     1      21.196  19.159  62.764  1.00  0.00    -0.389 N
ATOM      3  H1  UNL     1      20.564  19.714  63.341  1.00  0.00     0.159 HD
HETATM    4  C6  UNL     1      21.043  17.883  62.675  1.00  0.00     0.002 C
HETATM    5  C7  UNL     1      19.987  17.176  63.361  1.00  0.00     0.101 C
HETATM    6  C8  UNL     1      20.247  15.743  63.563  1.00  0.00     0.008 C
HETATM    7  C9  UNL     1      19.444  14.849  63.956  1.00  0.00     0.095 C
HETATM    8  S1  UNL     1      21.979  15.557  63.032  1.00  0.00    -0.121 SA
HETATM    9  C12 UNL     1      21.913  16.999  61.896  1.00  0.00     0.103 C
HETATM   10  C13 UNL     1      23.235  17.564  61.586  1.00  0.00     0.026 C
HETATM   11  C14 UNL     1      24.388  16.624  61.847  1.00  0.00     0.021 C
HETATM   12  C15 UNL     1      24.117  15.311  61.140  1.00  0.00     0.013 C
HETATM   13  C16 UNL     1      25.699  17.165  61.215  1.00  0.00     0.189 C
HETATM   14  N3  UNL     1      25.580  18.600  61.095  1.00  0.00    -0.346 N
ATOM     15  H3  UNL     1      26.185  19.029  60.394  1.00  0.00     0.163 HD
HETATM   16  C18 UNL     1      24.769  19.476  61.788  1.00  0.00     0.225 C
HETATM   17  O4  UNL     1      25.111  20.606  61.996  1.00  0.00    -0.273 OA
HETATM   18  C19 UNL     1      23.473  18.926  62.193  1.00  0.00     0.107 C
ENDROOT
BRANCH   7  19
HETATM   19  C10 UNL     1      18.108  15.096  64.293  1.00  0.00     0.103 C
HETATM   20  N2  UNL     1      17.026  15.502  64.534  1.00  0.00    -0.191 NA
ENDBRANCH   7  19
BRANCH   7  21
HETATM   21  C11 UNL     1      19.842  13.385  63.922  1.00  0.00     0.282 C
HETATM   22  O1  UNL     1      19.188  12.619  63.362  1.00  0.00    -0.301 OA
ENDBRANCH   7  21
BRANCH   1  23
HETATM   23  C3  UNL     1      21.777  19.872  60.607  1.00  0.00     0.004 C
HETATM   24  C4  UNL     1      22.289  21.125  59.949  1.00  0.00     0.012 C
BRANCH  23  25
HETATM   25  C2  UNL     1      20.265  20.030  60.740  1.00  0.00     0.002 C
HETATM   26  C1  UNL     1      19.615  20.747  59.613  1.00  0.00     0.005 C
ENDBRANCH  23  25
ENDBRANCH   1  23
BRANCH  13  27
HETATM   27  C17 UNL     1      26.795  16.981  62.234  1.00  0.00     0.197 C
HETATM   28  O2  UNL     1      26.861  16.078  63.067  1.00  0.00    -0.646 OA
HETATM   29  O3  UNL     1      27.818  17.953  62.245  1.00  0.00    -0.646 OA
ENDBRANCH  13  27
TORSDOF 5
ENDMDL