MODEL 4
REMARK VINA RESULT: -7.313080824      5.192      9.514
REMARK  5 active torsions:
REMARK  status: ('A' for Active; 'I' for Inactive)
REMARK    1  A    between atoms: N2_7  and  S1_9
REMARK    2  A    between atoms: S1_9  and  C4_12
REMARK    3  A    between atoms: C6_16  and  S2_17
REMARK    4  A    between atoms: S2_17  and  C7_18
REMARK    5  A    between atoms: C11_25  and  C12_26
ROOT
HETATM    1  S1  UNL     1      21.473  18.937  63.012  1.00  0.00     0.271 S
HETATM    2  O2  UNL     1      20.557  19.861  62.246  1.00  0.00    -0.200 OA
HETATM    3  O3  UNL     1      21.860  19.650  64.292  1.00  0.00    -0.200 OA
ENDROOT
BRANCH   1   4
HETATM    4  N2  UNL     1      20.642  17.495  63.364  1.00  0.00    -0.258 N
HETATM    5  C3  UNL     1      21.231  16.372  63.614  1.00  0.00     0.189 A
HETATM    6  O1  UNL     1      22.564  16.268  63.613  1.00  0.00    -0.218 OA
HETATM    7  C11 UNL     1      20.719  15.135  63.913  1.00  0.00     0.027 A
HETATM    8  N1  UNL     1      22.920  15.071  63.885  1.00  0.00    -0.263 N
HETATM    9  C2  UNL     1      21.843  14.304  64.085  1.00  0.00     0.040 A
ATOM     10  H1  UNL     1      23.886  14.748  63.941  1.00  0.00     0.194 HD
HETATM   11  C1  UNL     1      21.736  12.874  64.421  1.00  0.00     0.071 C
ATOM     12  H2  UNL     1      19.622  17.517  63.378  1.00  0.00     0.181 HD
BRANCH   7  13
HETATM   13  C12 UNL     1      19.313  14.741  64.031  1.00  0.00    -0.018 C
HETATM   14  C13 UNL     1      18.825  14.747  65.467  1.00  0.00     0.019 C
HETATM   15  C14 UNL     1      19.069  13.354  63.438  1.00  0.00     0.019 C
HETATM   16  C15 UNL     1      18.426  15.705  63.286  1.00  0.00     0.019 C
ENDBRANCH   7  13
ENDBRANCH   1   4
BRANCH   1  17
HETATM   17  C4  UNL     1      22.926  18.690  62.106  1.00  0.00     0.163 A
HETATM   18  C5  UNL     1      24.142  19.042  62.638  1.00  0.00     0.121 A
HETATM   19  N3  UNL     1      25.292  18.849  61.927  1.00  0.00    -0.345 N
HETATM   20  C6  UNL     1      25.279  18.312  60.692  1.00  0.00     0.147 A
ATOM     21  H3  UNL     1      26.184  19.118  62.342  1.00  0.00     0.167 HD
HETATM   22  N4  UNL     1      24.075  17.978  60.196  1.00  0.00    -0.302 N
HETATM   23  C10 UNL     1      22.928  18.144  60.846  1.00  0.00     0.272 A
ATOM     24  H4  UNL     1      24.041  17.570  59.262  1.00  0.00     0.171 HD
HETATM   25  O4  UNL     1      21.799  17.823  60.367  1.00  0.00    -0.266 OA
BRANCH  20  26
HETATM   26  S2  UNL     1      26.790  18.065  59.770  1.00  0.00    -0.090 SA
BRANCH  26  27
HETATM   27  C7  UNL     1      27.742  16.681  60.398  1.00  0.00     0.047 C
HETATM   28  C8  UNL     1      28.650  17.167  61.513  1.00  0.00     0.021 C
HETATM   29  C9  UNL     1      26.811  15.642  60.993  1.00  0.00     0.021 C
ENDBRANCH  26  27
ENDBRANCH  20  26
ENDBRANCH   1  17
TORSDOF 5
ENDMDL