MODEL 2
REMARK VINA RESULT: -7.693967438      0.783      1.190
REMARK  6 active torsions:
REMARK  status: ('A' for Active; 'I' for Inactive)
REMARK    1  A    between atoms: C2_2  and  C3_3
REMARK    2  A    between atoms: C2_2  and  C4_6
REMARK    3  A    between atoms: C3_3  and  O1_4
REMARK    4  A    between atoms: C5_7  and  C6_8
REMARK    5  A    between atoms: C15_20  and  C16_21
REMARK    6  A    between atoms: C20_25  and  O5_26
ROOT
HETATM    1  C4  UNL     1      21.620  18.991  61.777  1.00  0.00    -0.051 C
HETATM    2  C5  UNL     1      20.825  18.446  62.639  1.00  0.00    -0.016 C
HETATM    3  C7  UNL     1      21.379  17.105  63.040  1.00  0.00     0.050 C
HETATM    4  C8  UNL     1      22.182  16.690  61.844  1.00  0.00     0.042 C
HETATM    5  C9  UNL     1      23.348  15.913  62.418  1.00  0.00     0.067 C
HETATM    6  C10 UNL     1      22.773  14.920  63.447  1.00  0.00     0.046 C
HETATM    7  C11 UNL     1      24.172  15.133  61.477  1.00  0.00     0.055 C
HETATM    8  C12 UNL     1      25.624  15.555  61.731  1.00  0.00     0.118 C
HETATM    9  C13 UNL     1      26.639  14.630  61.230  1.00  0.00     0.266 C
HETATM   10  O3  UNL     1      26.892  13.401  61.190  1.00  0.00    -0.265 OA
HETATM   11  O4  UNL     1      27.329  15.756  60.738  1.00  0.00    -0.314 OA
HETATM   12  C14 UNL     1      26.062  16.360  60.572  1.00  0.00     0.150 C
HETATM   13  C15 UNL     1      25.933  17.817  60.679  1.00  0.00     0.024 C
HETATM   14  C19 UNL     1      25.294  18.417  61.849  1.00  0.00     0.077 C
HETATM   15  C20 UNL     1      23.932  18.094  62.288  1.00  0.00     0.174 C
HETATM   16  O6  UNL     1      24.022  16.902  63.074  1.00  0.00    -0.343 OA
HETATM   17  C21 UNL     1      22.779  18.041  61.455  1.00  0.00     0.043 C
HETATM   18  C22 UNL     1      22.850  18.064  59.980  1.00  0.00     0.026 C
ENDROOT
BRANCH   1  19
HETATM   19  C2  UNL     1      21.511  20.274  61.108  1.00  0.00     0.036 C
HETATM   20  C1  UNL     1      20.587  20.250  59.889  1.00  0.00     0.017 C
BRANCH  19  21
HETATM   21  C3  UNL     1      22.708  20.997  60.642  1.00  0.00     0.172 C
BRANCH  21  22
HETATM   22  O1  UNL     1      23.386  21.548  61.795  1.00  0.00    -0.400 OA
ATOM     23  H1  UNL     1      23.436  20.874  62.463  1.00  0.00     0.209 HD
ENDBRANCH  21  22
ENDBRANCH  19  21
ENDBRANCH   1  19
BRANCH   2  24
HETATM   24  C6  UNL     1      19.573  18.851  63.272  1.00  0.00     0.265 C
HETATM   25  O2  UNL     1      18.541  19.190  62.596  1.00  0.00    -0.302 OA
ENDBRANCH   2  24
BRANCH  15  26
HETATM   26  O5  UNL     1      23.672  19.026  63.328  1.00  0.00    -0.364 OA
ATOM     27  H5  UNL     1      24.518  19.422  63.504  1.00  0.00     0.213 HD
ENDBRANCH  15  26
BRANCH  13  28
HETATM   28  C16 UNL     1      27.349  18.430  60.623  1.00  0.00    -0.016 C
HETATM   29  C17 UNL     1      27.698  19.027  59.313  1.00  0.00     0.010 C
HETATM   30  C18 UNL     1      27.552  19.370  61.790  1.00  0.00     0.010 C
ENDBRANCH  13  28
TORSDOF 6
ENDMDL