MODEL 5
REMARK VINA RESULT: -7.850390659      4.097      8.120
REMARK  4 active torsions:
REMARK  status: ('A' for Active; 'I' for Inactive)
REMARK       I    between atoms: C2_2  and  N1_4
REMARK    1  A    between atoms: C3_6  and  C4_7
REMARK    2  A    between atoms: C6_13  and  C7_14
REMARK    3  A    between atoms: C8_15  and  C9_16
REMARK    4  A    between atoms: C14_21  and  O4_22
ROOT
HETATM    1  C9  UNL     1      23.330  18.909  62.127  1.00  0.00     0.029 C
HETATM    2  C10 UNL     1      22.765  17.749  62.872  1.00  0.00    -0.032 C
HETATM    3  C11 UNL     1      22.594  18.126  64.336  1.00  0.00     0.016 C
HETATM    4  C12 UNL     1      23.783  16.614  62.846  1.00  0.00     0.012 C
HETATM    5  C13 UNL     1      23.360  15.444  63.671  1.00  0.00     0.032 C
HETATM    6  C14 UNL     1      21.934  15.058  63.541  1.00  0.00     0.118 C
HETATM    7  C15 UNL     1      20.983  16.173  63.296  1.00  0.00     0.037 C
HETATM    8  C16 UNL     1      21.496  17.197  62.307  1.00  0.00    -0.001 C
HETATM    9  C17 UNL     1      20.492  18.292  62.196  1.00  0.00     0.038 C
HETATM   10  C18 UNL     1      20.952  19.536  61.562  1.00  0.00     0.132 C
HETATM   11  O5  UNL     1      20.704  19.529  60.170  1.00  0.00    -0.384 OA
HETATM   12  C19 UNL     1      22.090  19.373  59.943  1.00  0.00     0.180 C
HETATM   13  C20 UNL     1      22.385  19.736  61.368  1.00  0.00     0.011 C
HETATM   14  C21 UNL     1      22.745  21.227  61.433  1.00  0.00     0.020 C
ENDROOT
BRANCH   1  15
HETATM   15  C8  UNL     1      24.388  18.399  61.164  1.00  0.00    -0.019 C
HETATM   16  C7  UNL     1      25.586  18.942  61.145  1.00  0.00     0.016 C
BRANCH  16  17
HETATM   17  C6  UNL     1      26.622  18.487  60.244  1.00  0.00     0.071 A
HETATM   18  C4  UNL     1      27.875  19.114  60.122  1.00  0.00     0.086 A
HETATM   19  N2  UNL     1      28.527  18.396  59.201  1.00  0.00    -0.255 N
HETATM   20  O2  UNL     1      27.771  17.401  58.769  1.00  0.00    -0.194 OA
ATOM     21  H2  UNL     1      29.475  18.589  58.877  1.00  0.00     0.195 HD
HETATM   22  C5  UNL     1      26.615  17.437  59.386  1.00  0.00     0.317 A
HETATM   23  O3  UNL     1      25.729  16.581  59.134  1.00  0.00    -0.257 OA
BRANCH  18  24
HETATM   24  C3  UNL     1      28.318  20.283  60.855  1.00  0.00     0.123 C
HETATM   25  N1  UNL     1      28.103  21.485  60.638  1.00  0.00    -0.335 N
HETATM   26  C2  UNL     1      27.394  22.143  59.667  1.00  0.00     0.217 C
ATOM     27  H1  UNL     1      28.540  22.107  61.318  1.00  0.00     0.168 HD
HETATM   28  C1  UNL     1      25.963  22.559  59.851  1.00  0.00     0.117 C
HETATM   29  O1  UNL     1      27.877  22.465  58.527  1.00  0.00    -0.274 OA
ENDBRANCH  18  24
ENDBRANCH  16  17
ENDBRANCH   1  15
BRANCH   6  30
HETATM   30  O4  UNL     1      21.552  14.438  64.753  1.00  0.00    -0.396 OA
ATOM     31  H4  UNL     1      21.829  15.006  65.463  1.00  0.00     0.210 HD
ENDBRANCH   6  30
TORSDOF 4
ENDMDL