MODEL 4
REMARK VINA RESULT: -7.573972847      2.144      2.644
REMARK  6 active torsions:
REMARK  status: ('A' for Active; 'I' for Inactive)
REMARK    1  A    between atoms: C2_2  and  C3_3
REMARK    2  A    between atoms: C3_3  and  C4_4
REMARK    3  A    between atoms: C5_5  and  C6_6
REMARK    4  A    between atoms: C10_11  and  C11_12
REMARK    5  A    between atoms: C15_19  and  O5_20
REMARK    6  A    between atoms: C16_22  and  O6_24
ROOT
HETATM    1  C11 UNL     1      24.489  18.870  61.593  1.00  0.00     0.157 C
HETATM    2  O2  UNL     1      24.718  17.644  60.943  1.00  0.00    -0.314 OA
HETATM    3  C12 UNL     1      25.822  17.389  60.160  1.00  0.00     0.261 C
HETATM    4  O3  UNL     1      25.717  16.706  59.140  1.00  0.00    -0.265 OA
HETATM    5  C13 UNL     1      27.171  17.944  60.540  1.00  0.00     0.144 C
HETATM    6  C14 UNL     1      27.002  18.953  61.649  1.00  0.00     0.144 C
HETATM    7  O4  UNL     1      28.022  19.888  61.724  1.00  0.00    -0.352 OA
HETATM    8  C15 UNL     1      28.188  20.692  60.643  1.00  0.00     0.291 C
HETATM    9  C16 UNL     1      26.951  21.196  59.998  1.00  0.00     0.104 C
HETATM   10  C17 UNL     1      26.936  22.733  60.011  1.00  0.00     0.051 C
HETATM   11  C18 UNL     1      25.674  20.650  60.460  1.00  0.00     0.057 C
HETATM   12  C19 UNL     1      25.711  19.692  61.642  1.00  0.00     0.013 C
HETATM   13  C20 UNL     1      25.765  20.627  62.868  1.00  0.00     0.020 C
ENDROOT
BRANCH   1  14
HETATM   14  C10 UNL     1      23.709  18.690  62.878  1.00  0.00     0.113 A
HETATM   15  C9  UNL     1      22.305  19.147  62.680  1.00  0.00     0.166 A
HETATM   16  C7  UNL     1      21.124  18.332  62.754  1.00  0.00    -0.005 A
HETATM   17  O1  UNL     1      22.142  20.387  62.418  1.00  0.00    -0.292 OA
HETATM   18  C6  UNL     1      21.257  17.055  63.115  1.00  0.00    -0.027 A
HETATM   19  C8  UNL     1      19.755  18.892  62.454  1.00  0.00     0.053 C
HETATM   20  C22 UNL     1      22.592  16.562  63.371  1.00  0.00     0.009 A
HETATM   21  C21 UNL     1      23.711  17.269  63.276  1.00  0.00    -0.011 A
BRANCH  18  22
HETATM   22  C5  UNL     1      20.052  16.251  63.206  1.00  0.00     0.008 C
HETATM   23  C4  UNL     1      20.049  15.091  63.813  1.00  0.00    -0.026 C
BRANCH  23  24
HETATM   24  C3  UNL     1      18.821  14.243  63.919  1.00  0.00     0.027 C
BRANCH  24  25
HETATM   25  C2  UNL     1      19.188  12.816  63.564  1.00  0.00    -0.001 C
HETATM   26  C1  UNL     1      20.655  12.558  63.697  1.00  0.00     0.005 C
ENDBRANCH  24  25
ENDBRANCH  23  24
ENDBRANCH  18  22
ENDBRANCH   1  14
BRANCH   9  27
HETATM   27  O6  UNL     1      27.068  20.920  58.606  1.00  0.00    -0.385 OA
ATOM     28  H6  UNL     1      26.406  20.271  58.398  1.00  0.00     0.210 HD
ENDBRANCH   9  27
BRANCH   8  29
HETATM   29  O5  UNL     1      28.981  21.788  61.065  1.00  0.00    -0.368 OA
ATOM     30  H5  UNL     1      29.773  21.773  60.541  1.00  0.00     0.212 HD
ENDBRANCH   8  29
TORSDOF 6
ENDMDL