MODEL 3
REMARK VINA RESULT: -6.998329035      3.222      6.386
REMARK  5 active torsions:
REMARK  status: ('A' for Active; 'I' for Inactive)
REMARK    1  A    between atoms: C11_13  and  O3_14
REMARK    2  A    between atoms: O3_14  and  C12_15
REMARK    3  A    between atoms: C12_15  and  C15_18
REMARK    4  A    between atoms: C16_21  and  C17_22
REMARK    5  A    between atoms: C17_22  and  O6_24
ROOT
HETATM    1  C1  UNL     1      29.371  18.297  62.301  1.00  0.00     0.026 C
HETATM    2  C2  UNL     1      28.248  18.518  61.653  1.00  0.00     0.018 C
HETATM    3  C3  UNL     1      28.026  18.637  60.212  1.00  0.00     0.289 C
HETATM    4  O1  UNL     1      28.933  18.692  59.317  1.00  0.00    -0.260 OA
HETATM    5  O2  UNL     1      26.655  18.680  59.993  1.00  0.00    -0.311 OA
HETATM    6  C4  UNL     1      26.099  17.993  61.143  1.00  0.00     0.149 C
HETATM    7  C5  UNL     1      26.876  18.711  62.206  1.00  0.00     0.076 C
HETATM    8  C6  UNL     1      26.562  20.162  62.011  1.00  0.00    -0.012 C
HETATM    9  C7  UNL     1      25.386  20.711  62.183  1.00  0.00    -0.086 C
HETATM   10  C8  UNL     1      25.322  22.162  61.929  1.00  0.00     0.043 C
HETATM   11  C9  UNL     1      24.131  20.067  62.609  1.00  0.00     0.041 C
HETATM   12  C10 UNL     1      23.822  18.739  62.110  1.00  0.00     0.026 C
HETATM   13  C11 UNL     1      22.419  18.736  61.453  1.00  0.00     0.134 C
HETATM   14  C16 UNL     1      21.823  17.429  61.873  1.00  0.00     0.044 C
HETATM   15  C19 UNL     1      22.880  16.376  62.003  1.00  0.00     0.014 C
HETATM   16  C20 UNL     1      24.131  16.536  61.236  1.00  0.00    -0.011 C
HETATM   17  C21 UNL     1      25.152  15.624  61.939  1.00  0.00     0.010 C
HETATM   18  C22 UNL     1      24.660  17.986  61.174  1.00  0.00     0.027 C
ENDROOT
BRANCH  13  19
HETATM   19  O3  UNL     1      21.702  19.858  61.610  1.00  0.00    -0.364 OA
BRANCH  19  20
HETATM   20  C12 UNL     1      21.139  20.491  60.556  1.00  0.00     0.142 C
HETATM   21  C13 UNL     1      21.683  20.105  59.184  1.00  0.00     0.057 C
HETATM   22  C14 UNL     1      21.636  21.977  60.696  1.00  0.00     0.057 C
BRANCH  20  23
HETATM   23  C15 UNL     1      19.678  20.513  60.437  1.00  0.00     0.208 C
HETATM   24  O4  UNL     1      18.846  20.090  61.247  1.00  0.00    -0.646 OA
HETATM   25  O5  UNL     1      19.146  21.084  59.262  1.00  0.00    -0.646 OA
ENDBRANCH  20  23
ENDBRANCH  19  20
ENDBRANCH  13  19
BRANCH  14  26
HETATM   26  C17 UNL     1      21.114  17.512  63.213  1.00  0.00     0.120 C
HETATM   27  C18 UNL     1      20.843  16.132  63.773  1.00  0.00     0.040 C
BRANCH  26  28
HETATM   28  O6  UNL     1      19.921  18.182  63.159  1.00  0.00    -0.395 OA
ATOM     29  H6  UNL     1      19.228  17.685  62.740  1.00  0.00     0.210 HD
ENDBRANCH  26  28
ENDBRANCH  14  26
TORSDOF 5
ENDMDL