MODEL 2
REMARK VINA RESULT: -7.031072162      2.257      4.600
REMARK  7 active torsions:
REMARK  status: ('A' for Active; 'I' for Inactive)
REMARK    1  A    between atoms: C2_2  and  C4_4
REMARK    2  A    between atoms: C6_6  and  C7_7
REMARK    3  A    between atoms: C7_7  and  O1_8
REMARK    4  A    between atoms: C7_7  and  C8_10
REMARK    5  A    between atoms: C12_16  and  C13_17
REMARK    6  A    between atoms: C13_17  and  O4_19
REMARK    7  A    between atoms: C22_28  and  O5_29
ROOT
HETATM    1  C8  UNL     1      21.562  14.012  63.752  1.00  0.00     0.118 C
HETATM    2  C9  UNL     1      22.665  13.022  64.101  1.00  0.00     0.028 C
HETATM    3  C10 UNL     1      20.296  13.423  63.598  1.00  0.00     0.066 C
HETATM    4  N1  UNL     1      19.257  12.914  63.429  1.00  0.00    -0.197 NA
ENDROOT
BRANCH   1   5
HETATM    5  C7  UNL     1      21.633  15.287  64.545  1.00  0.00     0.147 C
BRANCH   5   6
HETATM    6  C6  UNL     1      22.068  16.500  63.829  1.00  0.00     0.092 C
HETATM    7  C5  UNL     1      23.548  16.565  63.483  1.00  0.00     0.018 C
HETATM    8  C4  UNL     1      23.930  16.200  62.068  1.00  0.00     0.035 C
HETATM    9  C17 UNL     1      23.878  18.012  63.147  1.00  0.00     0.036 C
HETATM   10  C18 UNL     1      24.706  17.439  62.021  1.00  0.00     0.023 A
HETATM   11  C19 UNL     1      26.128  17.559  62.157  1.00  0.00    -0.008 A
HETATM   12  C22 UNL     1      24.726  18.221  60.751  1.00  0.00     0.160 A
HETATM   13  C20 UNL     1      26.180  18.271  61.037  1.00  0.00    -0.057 A
HETATM   14  C21 UNL     1      27.289  18.927  60.249  1.00  0.00     0.046 C
HETATM   15  C15 UNL     1      22.760  18.873  62.845  1.00  0.00    -0.063 C
HETATM   16  C12 UNL     1      21.411  18.444  62.420  1.00  0.00     0.184 C
HETATM   17  C16 UNL     1      22.953  20.195  62.958  1.00  0.00     0.016 C
HETATM   18  C11 UNL     1      21.317  16.991  62.671  1.00  0.00     0.151 C
HETATM   19  O2  UNL     1      20.672  16.307  61.959  1.00  0.00    -0.296 OA
BRANCH   8  20
HETATM   20  C2  UNL     1      24.557  14.914  61.821  1.00  0.00    -0.087 C
HETATM   21  C1  UNL     1      24.503  14.114  60.813  1.00  0.00     0.014 C
HETATM   22  C3  UNL     1      25.425  14.360  62.984  1.00  0.00     0.043 C
ENDBRANCH   8  20
BRANCH  12  23
HETATM   23  O5  UNL     1      24.473  17.401  59.655  1.00  0.00    -0.390 OA
ATOM     24  H5  UNL     1      24.220  17.914  58.896  1.00  0.00     0.210 HD
ENDBRANCH  12  23
BRANCH  16  25
HETATM   25  C13 UNL     1      21.124  18.782  61.006  1.00  0.00     0.274 C
HETATM   26  O3  UNL     1      21.701  18.172  60.079  1.00  0.00    -0.264 OA
BRANCH  25  27
HETATM   27  O4  UNL     1      20.228  19.760  60.705  1.00  0.00    -0.326 OA
HETATM   28  C14 UNL     1      20.536  20.974  60.054  1.00  0.00     0.213 C
ENDBRANCH  25  27
ENDBRANCH  16  25
ENDBRANCH   5   6
BRANCH   5  29
HETATM   29  O1  UNL     1      20.196  15.534  64.745  1.00  0.00    -0.393 OA
ATOM     30  H1  UNL     1      19.879  15.640  63.855  1.00  0.00     0.210 HD
ENDBRANCH   5  29
ENDBRANCH   1   5
TORSDOF 7
ENDMDL