MODEL 1
REMARK VINA RESULT: -6.207467036      0.000      0.000
REMARK  10 active torsions:
REMARK  status: ('A' for Active; 'I' for Inactive)
REMARK    1  A    between atoms: N1_2  and  O1_3
REMARK    2  A    between atoms: N1_2  and  N2_5
REMARK    3  A    between atoms: C3_7  and  C4_8
REMARK    4  A    between atoms: C5_9  and  C10_19
REMARK    5  A    between atoms: C6_10  and  O2_11
REMARK    6  A    between atoms: N3_13  and  C7_14
REMARK    7  A    between atoms: C9_16  and  O3_17
REMARK    8  A    between atoms: C11_20  and  C12_21
REMARK    9  A    between atoms: C13_22  and  C15_24
REMARK   10  A    between atoms: C17_27  and  C18_28
ROOT
HETATM    1  N2  UNL     1      22.561  19.923  60.894  1.00  0.00    -0.247 N
HETATM    2  C2  UNL     1      22.541  20.774  61.864  1.00  0.00     0.100 C
HETATM    3  C3  UNL     1      23.514  20.526  62.962  1.00  0.00     0.108 C
HETATM    4  C10 UNL     1      24.857  18.959  60.610  1.00  0.00     0.116 C
HETATM    5  C11 UNL     1      24.969  17.855  61.664  1.00  0.00     0.262 C
HETATM    6  N4  UNL     1      23.664  18.190  62.125  1.00  0.00     0.139 N
HETATM    7  C17 UNL     1      23.544  19.057  63.226  1.00  0.00     0.339 C
HETATM    8  C19 UNL     1      23.409  18.790  60.834  1.00  0.00     0.358 C
ENDROOT
BRANCH   5   9
HETATM    9  C12 UNL     1      25.180  16.505  61.085  1.00  0.00     0.012 C
HETATM   10  C13 UNL     1      25.350  15.413  61.782  1.00  0.00    -0.086 C
HETATM   11  C14 UNL     1      25.553  14.111  61.128  1.00  0.00     0.043 C
BRANCH  10  12
HETATM   12  C15 UNL     1      25.338  15.490  63.256  1.00  0.00     0.029 C
HETATM   13  C16 UNL     1      24.042  14.820  63.736  1.00  0.00     0.010 C
ENDBRANCH  10  12
ENDBRANCH   5   9
BRANCH   4  14
HETATM   14  C5  UNL     1      25.389  20.169  61.260  1.00  0.00     0.015 A
HETATM   15  C4  UNL     1      26.095  20.248  62.429  1.00  0.00     0.016 A
HETATM   16  C9  UNL     1      26.404  21.554  62.654  1.00  0.00     0.152 A
HETATM   17  N3  UNL     1      25.900  22.273  61.645  1.00  0.00    -0.308 N
HETATM   18  C6  UNL     1      25.266  21.438  60.768  1.00  0.00     0.151 A
BRANCH  16  19
HETATM   19  O3  UNL     1      27.112  22.033  63.735  1.00  0.00    -0.345 OA
ATOM     20  H3  UNL     1      27.731  22.753  63.712  1.00  0.00     0.219 HD
ENDBRANCH  16  19
BRANCH  17  21
HETATM   21  C7  UNL     1      26.005  23.730  61.494  1.00  0.00     0.129 C
HETATM   22  C8  UNL     1      27.355  23.978  60.841  1.00  0.00     0.027 C
ENDBRANCH  17  21
BRANCH  18  23
HETATM   23  O2  UNL     1      24.631  21.873  59.603  1.00  0.00    -0.345 OA
ATOM     24  H2  UNL     1      24.066  22.625  59.474  1.00  0.00     0.219 HD
ENDBRANCH  18  23
ENDBRANCH   4  14
BRANCH   7  25
HETATM   25  C18 UNL     1      22.288  18.717  63.962  1.00  0.00     0.208 C
HETATM   26  O4  UNL     1      21.757  17.597  63.866  1.00  0.00    -0.646 OA
HETATM   27  O5  UNL     1      21.703  19.676  64.768  1.00  0.00    -0.646 OA
ENDBRANCH   7  25
BRANCH   1  28
HETATM   28  N1  UNL     1      21.637  20.181  59.869  1.00  0.00    -0.182 N
HETATM   29  C1  UNL     1      20.409  20.479  60.083  1.00  0.00     0.178 C
BRANCH  28  30
HETATM   30  O1  UNL     1      22.087  20.105  58.579  1.00  0.00    -0.269 OA
ATOM     31  H1  UNL     1      22.821  19.536  58.379  1.00  0.00     0.247 HD
ENDBRANCH  28  30
ENDBRANCH   1  28
TORSDOF 10
ENDMDL