MODEL 5
REMARK VINA RESULT: -6.889121337      1.610      2.929
REMARK  5 active torsions:
REMARK  status: ('A' for Active; 'I' for Inactive)
REMARK    1  A    between atoms: C2_2  and  O1_3
REMARK    2  A    between atoms: O1_3  and  C3_4
REMARK    3  A    between atoms: C3_4  and  C4_6
REMARK    4  A    between atoms: C4_6  and  O3_7
REMARK    5  A    between atoms: O3_7  and  C5_8
REMARK       I    between atoms: C5_8  and  N1_10
ROOT
HETATM    1  C5  UNL     1      25.411  26.035  14.103  1.00  0.00     0.363 C
HETATM    2  O4  UNL     1      26.111  26.881  13.494  1.00  0.00    -0.238 OA
HETATM    3  N1  UNL     1      24.218  26.430  14.733  1.00  0.00    -0.328 N
HETATM    4  C6  UNL     1      23.802  27.808  14.677  1.00  0.00     0.128 C
HETATM    5  C7  UNL     1      22.346  27.986  14.376  1.00  0.00     0.020 C
HETATM    6  C8  UNL     1      21.478  27.069  15.208  1.00  0.00     0.003 C
HETATM    7  C9  UNL     1      21.948  25.643  14.897  1.00  0.00     0.020 C
HETATM    8  C10 UNL     1      23.354  25.514  15.456  1.00  0.00     0.128 C
ENDROOT
BRANCH   1   9
HETATM    9  O3  UNL     1      25.880  24.729  14.111  1.00  0.00    -0.294 OA
BRANCH   9  10
HETATM   10  C4  UNL     1      26.649  24.124  13.122  1.00  0.00     0.291 C
BRANCH  10  11
HETATM   11  C3  UNL     1      25.981  24.023  11.795  1.00  0.00     0.287 C
HETATM   12  O2  UNL     1      26.539  24.593  10.830  1.00  0.00    -0.262 OA
BRANCH  11  13
HETATM   13  O1  UNL     1      24.823  23.363  11.563  1.00  0.00    -0.290 OA
BRANCH  13  14
HETATM   14  C2  UNL     1      23.528  23.694  11.853  1.00  0.00     0.135 C
HETATM   15  C1  UNL     1      22.842  24.735  11.492  1.00  0.00     0.038 C
ENDBRANCH  13  14
ENDBRANCH  11  13
ENDBRANCH  10  11
ENDBRANCH   9  10
ENDBRANCH   1   9
TORSDOF 5
ENDMDL