MODEL 1
REMARK VINA RESULT: -6.976558748      0.000      0.000
REMARK  4 active torsions:
REMARK  status: ('A' for Active; 'I' for Inactive)
REMARK    1  A    between atoms: N1_1  and  N2_4
REMARK    2  A    between atoms: N3_6  and  O1_8
REMARK    3  A    between atoms: O1_8  and  S1_9
REMARK    4  A    between atoms: S1_9  and  C1_12
ROOT
HETATM    1  S1  UNL     1      24.884  25.830  13.908  1.00  0.00     0.291 S
HETATM    2  O2  UNL     1      25.108  24.669  14.826  1.00  0.00    -0.196 OA
HETATM    3  O3  UNL     1      26.262  26.337  13.523  1.00  0.00    -0.196 OA
ENDROOT
BRANCH   1   4
HETATM    4  O1  UNL     1      24.076  25.295  12.505  1.00  0.00    -0.134 OA
BRANCH   4   5
HETATM    5  N3  UNL     1      24.653  24.291  11.765  1.00  0.00    -0.176 N
HETATM    6  N2  UNL     1      25.887  24.160  11.763  1.00  0.00    -0.229 N
ATOM      7  H2  UNL     1      26.209  25.088  11.487  1.00  0.00     0.209 HD
ATOM      8  H3  UNL     1      24.070  23.657  11.220  1.00  0.00     0.218 HD
BRANCH   6   9
HETATM    9  N1  UNL     1      26.949  23.536  11.907  1.00  0.00    -0.329 N
ATOM     10  H12 UNL     1      26.712  22.966  12.720  1.00  0.00     0.178 HD
ATOM     11  H11 UNL     1      27.908  23.281  11.672  1.00  0.00     0.178 HD
ENDBRANCH   6   9
ENDBRANCH   4   5
ENDBRANCH   1   4
BRANCH   1  12
HETATM   12  C1  UNL     1      24.055  27.122  14.712  1.00  0.00     0.143 C
HETATM   13  C2  UNL     1      23.038  27.870  13.874  1.00  0.00     0.027 C
HETATM   14  C3  UNL     1      21.996  28.349  14.854  1.00  0.00    -0.013 C
HETATM   15  C4  UNL     1      21.000  27.214  15.000  1.00  0.00     0.005 C
HETATM   16  C7  UNL     1      22.715  28.196  16.207  1.00  0.00     0.010 C
HETATM   17  C5  UNL     1      21.922  26.119  15.561  1.00  0.00     0.006 C
HETATM   18  C6  UNL     1      23.224  26.761  15.897  1.00  0.00     0.007 C
ENDBRANCH   1  12
TORSDOF 4
ENDMDL