MODEL 5
REMARK VINA RESULT: -6.272944013      1.239      1.541
REMARK  3 active torsions:
REMARK  status: ('A' for Active; 'I' for Inactive)
REMARK    1  A    between atoms: N1_4  and  C4_5
REMARK    2  A    between atoms: C4_5  and  C5_6
REMARK    3  A    between atoms: C5_6  and  N2_7
ROOT
HETATM    1  N2  UNL     1      24.466  24.642  13.626  1.00  0.00    -0.408 N
HETATM    2  C6  UNL     1      23.853  25.560  12.737  1.00  0.00     0.138 C
HETATM    3  C7  UNL     1      24.798  26.636  12.248  1.00  0.00     0.158 C
HETATM    4  N3  UNL     1      25.665  26.063  11.245  1.00  0.00    -0.339 N
ATOM      5  H3  UNL     1      25.806  26.611  10.395  1.00  0.00     0.179 HD
HETATM    6  N4  UNL     1      26.253  24.979  11.308  1.00  0.00    -0.339 N
ATOM      7  H4  UNL     1      26.812  24.774  10.480  1.00  0.00     0.179 HD
HETATM    8  C8  UNL     1      26.310  23.960  12.296  1.00  0.00     0.158 C
HETATM    9  C9  UNL     1      25.874  24.549  13.628  1.00  0.00     0.138 C
ENDROOT
BRANCH   1  10
HETATM   10  C5  UNL     1      23.837  24.528  14.901  1.00  0.00     0.137 C
BRANCH  10  11
HETATM   11  C4  UNL     1      22.368  24.978  14.844  1.00  0.00     0.146 C
BRANCH  11  12
HETATM   12  N1  UNL     1      22.285  26.341  15.178  1.00  0.00    -0.372 N
HETATM   13  C3  UNL     1      21.202  27.095  14.739  1.00  0.00     0.063 C
HETATM   14  C2  UNL     1      21.247  28.543  15.097  1.00  0.00     0.045 C
HETATM   15  C1  UNL     1      21.848  28.850  16.443  1.00  0.00     0.010 C
HETATM   16  C11 UNL     1      23.243  28.231  16.432  1.00  0.00     0.045 C
HETATM   17  C10 UNL     1      23.135  26.740  16.199  1.00  0.00     0.063 C
ENDBRANCH  11  12
ENDBRANCH  10  11
ENDBRANCH   1  10
TORSDOF 3
ENDMDL