MODEL 1
REMARK VINA RESULT: -6.656311107      0.000      0.000
REMARK  5 active torsions:
REMARK  status: ('A' for Active; 'I' for Inactive)
REMARK    1  A    between atoms: C2_2  and  S1_4
REMARK    2  A    between atoms: S1_4  and  C4_5
REMARK    3  A    between atoms: C4_5  and  C5_6
REMARK    4  A    between atoms: C5_6  and  C6_7
REMARK    5  A    between atoms: C6_7  and  O2_9
REMARK       I    between atoms: N1_11  and  C8_13
ROOT
HETATM    1  C4  UNL     1      24.959  26.409  13.917  1.00  0.00     0.062 C
HETATM    2  N1  UNL     1      24.466  27.614  14.129  1.00  0.00    -0.325 N
ATOM      3  H1  UNL     1      24.933  28.419  13.712  1.00  0.00     0.169 HD
HETATM    4  C8  UNL     1      23.310  27.824  14.916  1.00  0.00     0.218 C
HETATM    5  C9  UNL     1      22.038  28.364  14.334  1.00  0.00     0.117 C
HETATM    6  O3  UNL     1      23.391  27.533  16.142  1.00  0.00    -0.274 OA
ENDROOT
BRANCH   1   7
HETATM    7  S1  UNL     1      24.103  25.084  14.664  1.00  0.00    -0.082 SA
BRANCH   7   8
HETATM    8  C2  UNL     1      22.637  24.579  13.855  1.00  0.00    -0.029 C
HETATM    9  C1  UNL     1      22.734  24.466  12.508  1.00  0.00     0.026 C
HETATM   10  C3  UNL     1      21.311  24.267  14.489  1.00  0.00     0.055 C
ENDBRANCH   7   8
ENDBRANCH   1   7
BRANCH   1  11
HETATM   11  C5  UNL     1      26.155  26.220  13.098  1.00  0.00     0.176 C
BRANCH  11  12
HETATM   12  C6  UNL     1      25.802  26.223  11.633  1.00  0.00     0.264 C
HETATM   13  O1  UNL     1      25.277  27.158  11.039  1.00  0.00    -0.265 OA
BRANCH  12  14
HETATM   14  O2  UNL     1      26.120  25.039  10.932  1.00  0.00    -0.326 OA
HETATM   15  C7  UNL     1      26.389  23.878  11.714  1.00  0.00     0.213 C
ENDBRANCH  12  14
ENDBRANCH  11  12
ENDBRANCH   1  11
TORSDOF 5
ENDMDL