MODEL 1
REMARK VINA RESULT: -6.850480357      0.000      0.000
REMARK  5 active torsions:
REMARK  status: ('A' for Active; 'I' for Inactive)
REMARK    1  A    between atoms: O1_2  and  N1_3
REMARK    2  A    between atoms: N1_3  and  C2_5
REMARK    3  A    between atoms: C2_5  and  N2_6
REMARK    4  A    between atoms: N2_6  and  S1_8
REMARK    5  A    between atoms: S1_8  and  C3_11
ROOT
HETATM    1  S1  UNL     1      25.438  25.102  11.687  1.00  0.00     0.270 S
HETATM    2  O2  UNL     1      26.444  24.553  10.748  1.00  0.00    -0.200 OA
HETATM    3  O3  UNL     1      24.082  24.569  11.242  1.00  0.00    -0.200 OA
ENDROOT
BRANCH   1   4
HETATM    4  N2  UNL     1      25.328  26.816  11.645  1.00  0.00    -0.229 N
ATOM      5  H2  UNL     1      25.592  27.344  10.813  1.00  0.00     0.190 HD
BRANCH   4   6
HETATM    6  C2  UNL     1      24.900  27.402  12.701  1.00  0.00     0.084 C
BRANCH   6   7
HETATM    7  N1  UNL     1      24.422  27.934  13.753  1.00  0.00    -0.215 N
ATOM      8  H1  UNL     1      25.028  28.162  14.541  1.00  0.00     0.205 HD
BRANCH   7   9
HETATM    9  O1  UNL     1      23.110  28.189  13.809  1.00  0.00    -0.277 OA
HETATM   10  C1  UNL     1      22.186  27.860  14.782  1.00  0.00     0.238 C
ENDBRANCH   7   9
ENDBRANCH   6   7
ENDBRANCH   4   6
ENDBRANCH   1   4
BRANCH   1  11
HETATM   11  C3  UNL     1      25.683  24.513  13.313  1.00  0.00     0.080 A
HETATM   12  C4  UNL     1      26.920  24.159  13.807  1.00  0.00     0.025 A
HETATM   13  C5  UNL     1      27.105  23.696  15.091  1.00  0.00     0.002 A
HETATM   14  C6  UNL     1      26.023  23.577  15.916  1.00  0.00     0.000 A
HETATM   15  C7  UNL     1      24.772  23.922  15.452  1.00  0.00     0.002 A
HETATM   16  C8  UNL     1      24.610  24.385  14.162  1.00  0.00     0.025 A
ENDBRANCH   1  11
TORSDOF 5
ENDMDL