MODEL 4
REMARK VINA RESULT: -7.775037469      1.761      2.144
REMARK  4 active torsions:
REMARK  status: ('A' for Active; 'I' for Inactive)
REMARK    1  A    between atoms: O1_2  and  C2_3
REMARK    2  A    between atoms: C2_3  and  C3_5
REMARK    3  A    between atoms: C3_5  and  C5_8
REMARK    4  A    between atoms: C5_8  and  C6_10
ROOT
HETATM    1  C3  UNL     1      24.996  24.765  13.109  1.00  0.00     0.266 C
HETATM    2  C4  UNL     1      25.770  24.660  11.879  1.00  0.00     0.082 C
HETATM    3  N1  UNL     1      26.382  24.575  10.907  1.00  0.00    -0.196 NA
ENDROOT
BRANCH   1   4
HETATM    4  C2  UNL     1      23.593  24.345  12.854  1.00  0.00     0.284 C
HETATM    5  O2  UNL     1      23.049  24.598  11.752  1.00  0.00    -0.263 OA
BRANCH   4   6
HETATM    6  O1  UNL     1      22.835  23.667  13.790  1.00  0.00    -0.325 OA
HETATM    7  C1  UNL     1      21.537  24.086  14.192  1.00  0.00     0.213 C
ENDBRANCH   4   6
ENDBRANCH   1   4
BRANCH   1   8
HETATM    8  C5  UNL     1      25.016  26.109  13.656  1.00  0.00     0.186 C
HETATM    9  O3  UNL     1      26.151  26.726  13.541  1.00  0.00    -0.290 OA
BRANCH   8  10
HETATM   10  C6  UNL     1      23.955  26.841  14.305  1.00  0.00     0.012 A
HETATM   11  C7  UNL     1      23.226  27.814  13.659  1.00  0.00     0.015 A
HETATM   12  C8  UNL     1      22.204  28.507  14.282  1.00  0.00     0.001 A
HETATM   13  C9  UNL     1      21.874  28.242  15.591  1.00  0.00     0.000 A
HETATM   14  C10 UNL     1      22.590  27.274  16.252  1.00  0.00     0.001 A
HETATM   15  C11 UNL     1      23.623  26.584  15.603  1.00  0.00     0.015 A
ENDBRANCH   8  10
ENDBRANCH   1   8
TORSDOF 4
ENDMDL