MODEL 2
REMARK VINA RESULT: -7.167927271      2.100      3.369
REMARK  4 active torsions:
REMARK  status: ('A' for Active; 'I' for Inactive)
REMARK    1  A    between atoms: C2_2  and  O2_4
REMARK    2  A    between atoms: O2_4  and  C3_5
REMARK    3  A    between atoms: C3_5  and  C4_6
REMARK    4  A    between atoms: C4_6  and  N1_7
ROOT
HETATM    1  C4  UNL     1      24.506  25.719  13.828  1.00  0.00     0.218 C
HETATM    2  C5  UNL     1      24.360  27.126  13.283  1.00  0.00     0.070 C
HETATM    3  C6  UNL     1      23.133  27.819  13.819  1.00  0.00     0.005 C
HETATM    4  C7  UNL     1      23.264  27.998  15.326  1.00  0.00     0.002 C
HETATM    5  C8  UNL     1      22.403  26.898  15.949  1.00  0.00     0.026 C
HETATM    6  C9  UNL     1      23.084  25.561  15.651  1.00  0.00     0.171 C
HETATM    7  O5  UNL     1      24.367  25.718  15.204  1.00  0.00    -0.354 OA
ENDROOT
BRANCH   1   8
HETATM    8  C3  UNL     1      25.920  25.268  13.429  1.00  0.00     0.246 C
BRANCH   8   9
HETATM    9  O2  UNL     1      26.598  24.956  14.604  1.00  0.00    -0.317 OA
BRANCH   9  10
HETATM   10  C2  UNL     1      26.884  23.674  15.037  1.00  0.00     0.254 C
HETATM   11  C1  UNL     1      26.043  23.115  16.121  1.00  0.00     0.126 C
HETATM   12  O1  UNL     1      27.837  23.085  14.476  1.00  0.00    -0.266 OA
ENDBRANCH   9  10
ENDBRANCH   8   9
ENDBRANCH   1   8
BRANCH   1  13
HETATM   13  N1  UNL     1      23.596  24.799  13.212  1.00  0.00    -0.115 N
HETATM   14  O3  UNL     1      22.964  25.136  12.213  1.00  0.00    -0.534 OA
HETATM   15  O4  UNL     1      23.438  23.558  13.737  1.00  0.00    -0.534 OA
ENDBRANCH   1  13
TORSDOF 4
ENDMDL