MODEL 4
REMARK VINA RESULT: -7.054535007      2.016      3.119
REMARK  4 active torsions:
REMARK  status: ('A' for Active; 'I' for Inactive)
REMARK    1  A    between atoms: C3_3  and  C4_4
REMARK    2  A    between atoms: C4_4  and  O2_6
REMARK    3  A    between atoms: O2_6  and  C5_7
REMARK    4  A    between atoms: C5_7  and  C6_8
ROOT
HETATM    1  C1  UNL     1      22.990  24.441  11.591  1.00  0.00     0.013 C
HETATM    2  C2  UNL     1      23.512  25.159  12.407  1.00  0.00    -0.095 C
HETATM    3  C3  UNL     1      24.153  26.012  13.406  1.00  0.00     0.135 C
HETATM    4  C8  UNL     1      25.393  26.625  12.743  1.00  0.00     0.202 C
HETATM    5  O3  UNL     1      26.371  25.659  12.912  1.00  0.00    -0.369 OA
HETATM    6  C9  UNL     1      26.243  25.328  14.249  1.00  0.00     0.229 C
HETATM    7  C10 UNL     1      26.929  24.092  14.540  1.00  0.00     0.091 C
HETATM    8  N1  UNL     1      27.492  23.106  14.787  1.00  0.00    -0.195 NA
HETATM    9  C11 UNL     1      24.754  25.248  14.533  1.00  0.00     0.082 C
ENDROOT
BRANCH   3  10
HETATM   10  C4  UNL     1      23.286  27.122  13.813  1.00  0.00     0.282 C
HETATM   11  O1  UNL     1      23.306  28.273  13.334  1.00  0.00    -0.263 OA
BRANCH  10  12
HETATM   12  O2  UNL     1      22.363  26.866  14.819  1.00  0.00    -0.316 OA
BRANCH  12  13
HETATM   13  C5  UNL     1      21.374  27.800  15.208  1.00  0.00     0.205 C
BRANCH  13  14
HETATM   14  C6  UNL     1      21.956  28.627  16.294  1.00  0.00    -0.011 C
HETATM   15  C7  UNL     1      21.381  29.762  16.651  1.00  0.00     0.009 C
ENDBRANCH  13  14
ENDBRANCH  12  13
ENDBRANCH  10  12
ENDBRANCH   3  10
TORSDOF 4
ENDMDL