MODEL 4
REMARK VINA RESULT: -4.854092979      1.447      2.910
REMARK  3 active torsions:
REMARK  status: ('A' for Active; 'I' for Inactive)
REMARK    1  A    between atoms: C2_2  and  C3_3
REMARK    2  A    between atoms: C3_3  and  N1_4
REMARK    3  A    between atoms: C6_7  and  N2_8
ROOT
HETATM    1  N1  UNL     1      -4.879   3.309  15.327  1.00  0.00     0.106 N
HETATM    2  C4  UNL     1      -4.821   2.204  14.395  1.00  0.00     0.276 C
HETATM    3  C5  UNL     1      -4.662   2.514  12.962  1.00  0.00     0.063 C
HETATM    4  C6  UNL     1      -3.402   3.352  12.852  1.00  0.00     0.188 C
HETATM    5  C7  UNL     1      -3.455   4.567  13.698  1.00  0.00     0.083 C
HETATM    6  C8  UNL     1      -4.516   4.561  14.752  1.00  0.00     0.330 C
HETATM    7  C9  UNL     1      -5.708   5.195  14.184  1.00  0.00     0.095 C
HETATM    8  N3  UNL     1      -6.664   5.702  13.713  1.00  0.00    -0.195 NA
ENDROOT
BRANCH   1   9
HETATM    9  C3  UNL     1      -6.153   3.288  15.988  1.00  0.00     0.273 C
BRANCH   9  10
HETATM   10  C2  UNL     1      -6.414   2.393  17.101  1.00  0.00     0.026 C
HETATM   11  C1  UNL     1      -7.257   1.197  16.997  1.00  0.00     0.007 C
ENDBRANCH   9  10
ENDBRANCH   1   9
BRANCH   4  12
HETATM   12  N2  UNL     1      -3.184   3.634  11.450  1.00  0.00    -0.075 N
ATOM     13  H23 UNL     1      -3.180   2.793  10.872  1.00  0.00     0.274 HD
ATOM     14  H22 UNL     1      -3.981   4.095  11.010  1.00  0.00     0.274 HD
ATOM     15  H21 UNL     1      -2.322   4.172  11.374  1.00  0.00     0.274 HD
ENDBRANCH   4  12
TORSDOF 3
ENDMDL