MODEL 4
REMARK VINA RESULT: -5.262780284      1.494      4.853
REMARK  3 active torsions:
REMARK  status: ('A' for Active; 'I' for Inactive)
REMARK    1  A    between atoms: N1_1  and  C1_5
REMARK    2  A    between atoms: C1_5  and  C2_6
REMARK    3  A    between atoms: N2_9  and  C5_10
ROOT
HETATM    1  C2  UNL     1      -4.240   1.951  12.471  1.00  0.00     0.172 C
HETATM    2  C3  UNL     1      -3.674   3.296  12.908  1.00  0.00     0.052 C
HETATM    3  C4  UNL     1      -4.673   3.622  14.001  1.00  0.00     0.123 C
HETATM    4  N2  UNL     1      -5.116   2.350  14.428  1.00  0.00    -0.190 NA
HETATM    5  O1  UNL     1      -4.509   1.395  13.720  1.00  0.00    -0.296 OA
ENDROOT
BRANCH   4   6
HETATM    6  C5  UNL     1      -5.036   2.112  15.838  1.00  0.00     0.113 C
HETATM    7  C6  UNL     1      -6.292   2.413  16.584  1.00  0.00     0.051 C
HETATM    8  C7  UNL     1      -6.059   1.612  17.873  1.00  0.00     0.234 C
HETATM    9  N3  UNL     1      -5.610   0.351  17.330  1.00  0.00    -0.073 N
HETATM   10  C8  UNL     1      -4.853   0.630  16.132  1.00  0.00     0.254 C
ATOM     11  H32 UNL     1      -5.089  -0.208  18.007  1.00  0.00     0.277 HD
ATOM     12  H31 UNL     1      -6.375  -0.305  17.172  1.00  0.00     0.277 HD
ENDBRANCH   4   6
BRANCH   1  13
HETATM   13  C1  UNL     1      -3.259   1.152  11.674  1.00  0.00     0.263 C
BRANCH  13  14
HETATM   14  N1  UNL     1      -1.963   1.791  11.776  1.00  0.00    -0.077 N
ATOM     15  H13 UNL     1      -1.293   1.239  12.312  1.00  0.00     0.274 HD
ATOM     16  H12 UNL     1      -1.458   1.799  10.890  1.00  0.00     0.274 HD
ATOM     17  H11 UNL     1      -2.097   2.726  12.161  1.00  0.00     0.274 HD
ENDBRANCH  13  14
ENDBRANCH   1  13
TORSDOF 3
ENDMDL