MODEL 3
REMARK VINA RESULT: -5.207635323      2.008      4.098
REMARK  2 active torsions:
REMARK  status: ('A' for Active; 'I' for Inactive)
REMARK    1  A    between atoms: C2_2  and  C3_3
REMARK    2  A    between atoms: C7_10  and  C8_11
ROOT
HETATM    1  C3  UNL     1      -4.430   1.689  11.905  1.00  0.00     0.201 C
HETATM    2  C4  UNL     1      -3.173   2.391  11.439  1.00  0.00     0.128 C
HETATM    3  N1  UNL     1      -2.414   2.892  12.534  1.00  0.00    -0.282 NA
HETATM    4  C5  UNL     1      -1.153   3.397  11.982  1.00  0.00     0.117 C
HETATM    5  C6  UNL     1      -3.014   3.951  13.265  1.00  0.00     0.147 C
HETATM    6  N2  UNL     1      -4.340   3.857  13.646  1.00  0.00    -0.363 N
ATOM      7  H2  UNL     1      -4.904   4.706  13.696  1.00  0.00     0.161 HD
HETATM    8  C7  UNL     1      -4.930   2.631  13.964  1.00  0.00     0.284 C
HETATM    9  N3  UNL     1      -4.281   1.469  13.340  1.00  0.00    -0.049 N
ATOM     10  H31 UNL     1      -3.316   1.321  13.639  1.00  0.00     0.280 HD
ATOM     11  H32 UNL     1      -4.639   0.570  13.662  1.00  0.00     0.280 HD
ENDROOT
BRANCH   1  12
HETATM   12  C2  UNL     1      -4.670   0.390  11.170  1.00  0.00     0.030 C
HETATM   13  C1  UNL     1      -4.013  -0.785  11.826  1.00  0.00     0.007 C
ENDBRANCH   1  12
BRANCH   8  14
HETATM   14  C8  UNL     1      -5.164   2.389  15.442  1.00  0.00     0.050 C
HETATM   15  C9  UNL     1      -5.925   3.519  16.086  1.00  0.00     0.009 C
ENDBRANCH   8  14
TORSDOF 2
ENDMDL