MODEL 4
REMARK VINA RESULT: -4.739493060      1.375      1.579
REMARK  5 active torsions:
REMARK  status: ('A' for Active; 'I' for Inactive)
REMARK    1  A    between atoms: C2_2  and  C3_3
REMARK    2  A    between atoms: C2_2  and  N2_8
REMARK    3  A    between atoms: C3_3  and  N1_4
REMARK    4  A    between atoms: C8_13  and  C9_14
REMARK    5  A    between atoms: C9_14  and  N3_15
ROOT
HETATM    1  N2  UNL     1      -5.787   3.186  15.858  1.00  0.00    -0.381 N
HETATM    2  C4  UNL     1      -6.264   3.248  17.178  1.00  0.00     0.059 C
HETATM    3  C5  UNL     1      -6.081   1.996  18.000  1.00  0.00     0.044 C
HETATM    4  C6  UNL     1      -6.275   0.818  17.099  1.00  0.00     0.007 C
HETATM    5  C7  UNL     1      -5.120   0.834  16.119  1.00  0.00     0.027 C
HETATM    6  C8  UNL     1      -4.900   2.164  15.481  1.00  0.00     0.109 C
ENDROOT
BRANCH   1   7
HETATM    7  C2  UNL     1      -5.697   4.420  15.207  1.00  0.00     0.105 C
HETATM    8  C1  UNL     1      -6.019   5.531  16.224  1.00  0.00     0.034 C
BRANCH   7   9
HETATM    9  C3  UNL     1      -4.319   4.783  14.662  1.00  0.00     0.254 C
BRANCH   9  10
HETATM   10  N1  UNL     1      -4.493   5.532  13.417  1.00  0.00    -0.077 N
ATOM     11  H13 UNL     1      -5.371   6.050  13.393  1.00  0.00     0.274 HD
ATOM     12  H12 UNL     1      -3.859   6.328  13.347  1.00  0.00     0.274 HD
ATOM     13  H11 UNL     1      -4.398   4.886  12.634  1.00  0.00     0.274 HD
ENDBRANCH   9  10
ENDBRANCH   7   9
ENDBRANCH   1   7
BRANCH   6  14
HETATM   14  C9  UNL     1      -4.942   1.924  13.979  1.00  0.00     0.254 C
BRANCH  14  15
HETATM   15  N3  UNL     1      -4.210   0.762  13.586  1.00  0.00    -0.077 N
ATOM     16  H33 UNL     1      -4.838  -0.019  13.394  1.00  0.00     0.274 HD
ATOM     17  H32 UNL     1      -3.806   0.881  12.657  1.00  0.00     0.274 HD
ATOM     18  H31 UNL     1      -3.495   0.499  14.266  1.00  0.00     0.274 HD
ENDBRANCH  14  15
ENDBRANCH   6  14
TORSDOF 5
ENDMDL