MODEL 2
REMARK VINA RESULT: -5.736941749      0.861      1.257
REMARK  2 active torsions:
REMARK  status: ('A' for Active; 'I' for Inactive)
REMARK    1  A    between atoms: C2_2  and  C3_6
REMARK    2  A    between atoms: C6_12  and  C7_13
ROOT
HETATM    1  C3  UNL     1      -4.203   2.021  12.601  1.00  0.00     0.256 C
HETATM    2  C4  UNL     1      -3.265   3.191  12.507  1.00  0.00     0.271 C
HETATM    3  N2  UNL     1      -3.013   3.738  13.824  1.00  0.00    -0.071 N
ATOM      4  H21 UNL     1      -2.401   4.552  13.781  1.00  0.00     0.277 HD
ATOM      5  H22 UNL     1      -2.415   3.123  14.377  1.00  0.00     0.277 HD
HETATM    6  C5  UNL     1      -4.270   4.041  14.522  1.00  0.00     0.265 C
HETATM    7  C6  UNL     1      -5.205   2.893  14.494  1.00  0.00     0.215 C
HETATM    8  N3  UNL     1      -4.475   1.722  14.019  1.00  0.00    -0.058 N
ATOM      9  H31 UNL     1      -3.645   1.494  14.566  1.00  0.00     0.278 HD
ATOM     10  H32 UNL     1      -4.957   0.836  14.175  1.00  0.00     0.278 HD
ENDROOT
BRANCH   1  11
HETATM   11  C2  UNL     1      -3.642   0.780  12.008  1.00  0.00     0.008 C
HETATM   12  C1  UNL     1      -2.468   0.878  11.106  1.00  0.00     0.065 C
HETATM   13  N1  UNL     1      -4.145  -0.359  12.256  1.00  0.00    -0.404 N
ATOM     14  H12 UNL     1      -3.760  -1.211  11.849  1.00  0.00     0.155 HD
ATOM     15  H11 UNL     1      -4.952  -0.426  12.876  1.00  0.00     0.155 HD
ENDBRANCH   1  11
BRANCH   7  16
HETATM   16  C7  UNL     1      -5.828   2.533  15.804  1.00  0.00     0.010 C
HETATM   17  C8  UNL     1      -4.945   1.653  16.648  1.00  0.00     0.011 C
HETATM   18  C9  UNL     1      -6.235   3.717  16.633  1.00  0.00     0.011 C
ENDBRANCH   7  16
TORSDOF 2
ENDMDL