MODEL 4
REMARK VINA RESULT: -5.123011386      2.027      4.097
REMARK  3 active torsions:
REMARK  status: ('A' for Active; 'I' for Inactive)
REMARK    1  A    between atoms: C2_2  and  C3_3
REMARK    2  A    between atoms: C3_3  and  C4_4
REMARK    3  A    between atoms: C8_9  and  N2_10
ROOT
HETATM    1  C4  UNL     1      -5.538   4.964  14.747  1.00  0.00     0.015 C
HETATM    2  C5  UNL     1      -5.402   5.757  15.998  1.00  0.00     0.019 C
HETATM    3  C6  UNL     1      -4.170   4.543  14.234  1.00  0.00     0.043 C
HETATM    4  C7  UNL     1      -3.930   3.313  15.088  1.00  0.00     0.279 C
HETATM    5  N1  UNL     1      -5.155   2.599  14.808  1.00  0.00     0.152 N
HETATM    6  C8  UNL     1      -5.440   1.563  15.757  1.00  0.00     0.445 C
HETATM    7  C9  UNL     1      -5.850   2.260  17.019  1.00  0.00     0.300 C
HETATM    8  N3  UNL     1      -6.373   3.514  16.553  1.00  0.00    -0.039 N
ATOM      9  H31 UNL     1      -5.996   4.311  17.066  1.00  0.00     0.279 HD
ATOM     10  H32 UNL     1      -7.355   3.644  16.798  1.00  0.00     0.279 HD
HETATM   11  C10 UNL     1      -6.142   3.607  15.143  1.00  0.00     0.430 C
ENDROOT
BRANCH   1  12
HETATM   12  C3  UNL     1      -6.387   5.582  13.715  1.00  0.00     0.013 C
BRANCH  12  13
HETATM   13  C2  UNL     1      -5.799   6.437  12.679  1.00  0.00    -0.004 C
HETATM   14  C1  UNL     1      -6.727   7.340  11.916  1.00  0.00     0.005 C
ENDBRANCH  12  13
ENDBRANCH   1  12
BRANCH   6  15
HETATM   15  N2  UNL     1      -4.368   0.652  15.988  1.00  0.00    -0.046 N
ATOM     16  H23 UNL     1      -3.824   0.944  16.800  1.00  0.00     0.277 HD
ATOM     17  H22 UNL     1      -4.729  -0.239  16.327  1.00  0.00     0.277 HD
ATOM     18  H21 UNL     1      -3.755   0.502  15.187  1.00  0.00     0.277 HD
ENDBRANCH   6  15
TORSDOF 3
ENDMDL