MODEL 1
REMARK VINA RESULT: -4.594291686      0.000      0.000
REMARK  4 active torsions:
REMARK  status: ('A' for Active; 'I' for Inactive)
REMARK    1  A    between atoms: C2_2  and  C3_3
REMARK    2  A    between atoms: C3_3  and  C4_4
REMARK    3  A    between atoms: C4_4  and  N1_5
REMARK    4  A    between atoms: C9_14  and  N3_15
ROOT
HETATM    1  C4  UNL     1      -4.626   2.847  14.634  1.00  0.00     0.154 C
HETATM    2  C5  UNL     1      -4.752   1.714  13.678  1.00  0.00     0.071 C
HETATM    3  C6  UNL     1      -4.328   1.976  12.274  1.00  0.00     0.274 C
HETATM    4  N2  UNL     1      -4.322   3.371  11.902  1.00  0.00     0.086 N
HETATM    5  C7  UNL     1      -3.699   3.437  10.574  1.00  0.00     0.310 C
HETATM    6  C8  UNL     1      -3.438   4.079  12.781  1.00  0.00     0.307 C
HETATM    7  C9  UNL     1      -3.692   3.931  14.235  1.00  0.00     0.247 C
ENDROOT
BRANCH   1   8
HETATM    8  C3  UNL     1      -5.981   3.358  15.110  1.00  0.00     0.040 C
BRANCH   8   9
HETATM    9  C2  UNL     1      -6.337   2.973  16.498  1.00  0.00    -0.002 C
HETATM   10  C1  UNL     1      -6.544   4.275  17.285  1.00  0.00     0.005 C
ENDBRANCH   8   9
ENDBRANCH   1   8
BRANCH   1  11
HETATM   11  N1  UNL     1      -4.037   2.251  15.860  1.00  0.00    -0.068 N
ATOM     12  H13 UNL     1      -3.118   1.829  15.727  1.00  0.00     0.275 HD
ATOM     13  H12 UNL     1      -3.740   2.931  16.560  1.00  0.00     0.275 HD
ATOM     14  H11 UNL     1      -4.759   1.604  16.177  1.00  0.00     0.275 HD
ENDBRANCH   1  11
BRANCH   7  15
HETATM   15  N3  UNL     1      -4.123   5.249  14.731  1.00  0.00    -0.071 N
ATOM     16  H33 UNL     1      -4.544   5.174  15.658  1.00  0.00     0.274 HD
ATOM     17  H32 UNL     1      -3.321   5.834  14.965  1.00  0.00     0.274 HD
ATOM     18  H31 UNL     1      -4.748   5.723  14.079  1.00  0.00     0.274 HD
ENDBRANCH   7  15
TORSDOF 4
ENDMDL