MODEL 1
REMARK VINA RESULT: -4.939961136      0.000      0.000
REMARK  3 active torsions:
REMARK  status: ('A' for Active; 'I' for Inactive)
REMARK    1  A    between atoms: N1_1  and  C1_5
REMARK    2  A    between atoms: C1_5  and  C2_6
REMARK    3  A    between atoms: C9_14  and  N2_15
ROOT
HETATM    1  C2  UNL     1      -3.121   4.173  12.307  1.00  0.00     0.044 C
HETATM    2  C3  UNL     1      -3.893   3.578  13.448  1.00  0.00     0.011 C
HETATM    3  C4  UNL     1      -4.613   2.374  12.901  1.00  0.00     0.041 C
HETATM    4  C5  UNL     1      -3.718   1.939  11.761  1.00  0.00     0.089 C
HETATM    5  C6  UNL     1      -4.411   1.007  10.812  1.00  0.00     0.042 C
HETATM    6  C7  UNL     1      -3.307   0.005  10.497  1.00  0.00     0.029 C
HETATM    7  C8  UNL     1      -2.070   0.595  11.155  1.00  0.00     0.169 C
HETATM    8  O1  UNL     1      -2.611   1.271  12.229  1.00  0.00    -0.378 OA
HETATM    9  C9  UNL     1      -3.315   3.240  11.123  1.00  0.00     0.223 C
ENDROOT
BRANCH   1  10
HETATM   10  C1  UNL     1      -1.635   4.230  12.576  1.00  0.00     0.236 C
BRANCH  10  11
HETATM   11  N1  UNL     1      -1.277   3.708  13.867  1.00  0.00    -0.079 N
ATOM     12  H13 UNL     1      -0.959   4.454  14.486  1.00  0.00     0.274 HD
ATOM     13  H12 UNL     1      -2.106   3.408  14.381  1.00  0.00     0.274 HD
ATOM     14  H11 UNL     1      -0.588   2.958  13.817  1.00  0.00     0.274 HD
ENDBRANCH  10  11
ENDBRANCH   1  10
BRANCH   9  15
HETATM   15  N2  UNL     1      -4.361   3.664  10.242  1.00  0.00    -0.072 N
ATOM     16  H23 UNL     1      -4.579   4.651  10.383  1.00  0.00     0.274 HD
ATOM     17  H22 UNL     1      -4.032   3.702   9.278  1.00  0.00     0.274 HD
ATOM     18  H21 UNL     1      -5.202   3.092  10.318  1.00  0.00     0.274 HD
ENDBRANCH   9  15
TORSDOF 3
ENDMDL