MODEL 3
REMARK VINA RESULT: -4.843872874      4.859      5.748
REMARK  4 active torsions:
REMARK  status: ('A' for Active; 'I' for Inactive)
REMARK    1  A    between atoms: S1_2  and  C2_3
REMARK    2  A    between atoms: C2_3  and  C3_4
REMARK    3  A    between atoms: N1_7  and  O1_8
REMARK    4  A    between atoms: C7_11  and  O2_12
ROOT
HETATM    1  C3  UNL     1      -2.340   1.996  10.788  1.00  0.00     0.027 C
HETATM    2  C4  UNL     1      -2.110   0.535  10.839  1.00  0.00     0.030 C
HETATM    3  C5  UNL     1      -3.148  -0.322  11.447  1.00  0.00     0.150 C
HETATM    4  N1  UNL     1      -4.292   0.333  11.986  1.00  0.00    -0.294 N
HETATM    5  C6  UNL     1      -4.762   1.457  11.261  1.00  0.00     0.181 C
HETATM    6  C7  UNL     1      -3.723   2.492  10.979  1.00  0.00     0.143 C
ENDROOT
BRANCH   1   7
HETATM    7  C2  UNL     1      -1.449   2.763  11.764  1.00  0.00     0.080 C
BRANCH   7   8
HETATM    8  S1  UNL     1      -2.380   3.932  12.766  1.00  0.00    -0.173 SA
HETATM    9  C1  UNL     1      -1.253   5.296  13.207  1.00  0.00     0.089 C
ENDBRANCH   7   8
ENDBRANCH   1   7
BRANCH   6  10
HETATM   10  O2  UNL     1      -4.151   3.197   9.839  1.00  0.00    -0.393 OA
ATOM     11  H2  UNL     1      -4.191   4.128  10.023  1.00  0.00     0.210 HD
ENDBRANCH   6  10
BRANCH   4  12
HETATM   12  O1  UNL     1      -4.331   0.428  13.315  1.00  0.00    -0.292 OA
ATOM     13  H1  UNL     1      -5.196   0.522  13.697  1.00  0.00     0.244 HD
ENDBRANCH   4  12
TORSDOF 4
ENDMDL