MODEL 1
REMARK VINA RESULT: -5.282664338      0.000      0.000
REMARK  4 active torsions:
REMARK  status: ('A' for Active; 'I' for Inactive)
REMARK    1  A    between atoms: C2_2  and  C3_6
REMARK    2  A    between atoms: C4_7  and  C5_8
REMARK    3  A    between atoms: C5_8  and  N2_9
REMARK    4  A    between atoms: C8_12  and  N3_13
ROOT
HETATM    1  N2  UNL     1      -6.494   2.582  16.423  1.00  0.00     0.093 N
HETATM    2  C6  UNL     1      -6.382   1.998  17.749  1.00  0.00     0.275 C
HETATM    3  C7  UNL     1      -5.850   0.598  17.416  1.00  0.00     0.064 C
HETATM    4  C8  UNL     1      -4.701   1.007  16.487  1.00  0.00     0.213 C
HETATM    5  C9  UNL     1      -5.384   2.063  15.653  1.00  0.00     0.305 C
ENDROOT
BRANCH   1   6
HETATM    6  C5  UNL     1      -6.336   4.035  16.507  1.00  0.00     0.300 C
BRANCH   6   7
HETATM    7  C4  UNL     1      -5.408   4.533  15.490  1.00  0.00     0.005 C
HETATM    8  C3  UNL     1      -5.839   5.291  14.506  1.00  0.00     0.021 C
BRANCH   8   9
HETATM    9  C2  UNL     1      -4.941   5.807  13.474  1.00  0.00    -0.002 C
HETATM   10  C1  UNL     1      -3.483   5.630  13.670  1.00  0.00     0.067 C
HETATM   11  N1  UNL     1      -5.339   6.399  12.409  1.00  0.00    -0.403 N
ATOM     12  H12 UNL     1      -4.713   6.759  11.688  1.00  0.00     0.156 HD
ATOM     13  H11 UNL     1      -6.342   6.521  12.274  1.00  0.00     0.156 HD
ENDBRANCH   8   9
ENDBRANCH   6   7
ENDBRANCH   1   6
BRANCH   4  14
HETATM   14  N3  UNL     1      -4.293  -0.142  15.740  1.00  0.00    -0.073 N
ATOM     15  H33 UNL     1      -3.282  -0.188  15.612  1.00  0.00     0.274 HD
ATOM     16  H32 UNL     1      -4.407  -1.010  16.263  1.00  0.00     0.274 HD
ATOM     17  H31 UNL     1      -4.802  -0.149  14.855  1.00  0.00     0.274 HD
ENDBRANCH   4  14
TORSDOF 4
ENDMDL