MODEL 1
REMARK VINA RESULT: -7.509060902      0.000      0.000
REMARK  7 active torsions:
REMARK  status: ('A' for Active; 'I' for Inactive)
REMARK    1  A    between atoms: C4_5  and  N2_6
REMARK    2  A    between atoms: C7_9  and  N3_10
REMARK       I    between atoms: N3_10  and  C8_12
REMARK    3  A    between atoms: C8_12  and  C9_14
REMARK    4  A    between atoms: C9_14  and  C10_15
REMARK    5  A    between atoms: C10_15  and  N4_16
REMARK       I    between atoms: N4_16  and  C11_18
REMARK    6  A    between atoms: C11_18  and  C12_20
REMARK    7  A    between atoms: C12_20  and  O3_21
ROOT
HETATM    1  N3  UNL     1      -5.425  26.301  -3.283  1.00  0.00    -0.356 N
ATOM      2  H3  UNL     1      -6.234  26.444  -3.887  1.00  0.00     0.162 HD
HETATM    3  C8  UNL     1      -4.137  26.293  -3.848  1.00  0.00     0.219 C
HETATM    4  O1  UNL     1      -3.127  26.099  -3.129  1.00  0.00    -0.274 OA
ENDROOT
BRANCH   3   5
HETATM    5  C9  UNL     1      -4.000  26.523  -5.313  1.00  0.00     0.122 C
BRANCH   5   6
HETATM    6  C10 UNL     1      -4.990  27.591  -5.724  1.00  0.00     0.132 C
BRANCH   6   7
HETATM    7  N4  UNL     1      -6.322  27.081  -5.807  1.00  0.00    -0.358 N
HETATM    8  C11 UNL     1      -7.451  27.865  -6.084  1.00  0.00     0.252 C
HETATM    9  O2  UNL     1      -7.329  29.103  -6.254  1.00  0.00    -0.270 OA
ATOM     10  H4  UNL     1      -6.461  26.082  -5.656  1.00  0.00     0.162 HD
BRANCH   8  11
HETATM   11  C12 UNL     1      -8.775  27.229  -6.174  1.00  0.00     0.138 C
HETATM   12  C13 UNL     1      -9.185  26.794  -7.533  1.00  0.00     0.048 C
HETATM   13  C14 UNL     1      -9.664  25.346  -7.493  1.00  0.00     0.004 C
HETATM   14  C15 UNL     1     -10.720  25.214  -6.433  1.00  0.00     0.000 C
HETATM   15  C16 UNL     1     -10.145  25.483  -5.052  1.00  0.00     0.004 C
HETATM   16  C17 UNL     1      -8.756  26.041  -5.224  1.00  0.00     0.048 C
BRANCH  11  17
HETATM   17  O3  UNL     1      -9.749  28.123  -5.696  1.00  0.00    -0.380 OA
ATOM     18  H3  UNL     1     -10.504  27.630  -5.398  1.00  0.00     0.211 HD
ENDBRANCH  11  17
ENDBRANCH   8  11
ENDBRANCH   6   7
ENDBRANCH   5   6
ENDBRANCH   3   5
BRANCH   1  19
HETATM   19  C7  UNL     1      -5.624  26.112  -1.876  1.00  0.00     0.087 C
HETATM   20  C6  UNL     1      -7.041  25.791  -1.488  1.00  0.00     0.055 C
HETATM   21  C5  UNL     1      -7.095  25.700   0.006  1.00  0.00     0.275 C
HETATM   22  N2  UNL     1      -6.924  27.009   0.652  1.00  0.00     0.093 N
HETATM   23  C19 UNL     1      -6.329  27.951  -0.277  1.00  0.00     0.275 C
HETATM   24  C18 UNL     1      -5.236  27.351  -1.096  1.00  0.00     0.055 C
BRANCH  22  25
HETATM   25  C4  UNL     1      -8.161  27.380   1.202  1.00  0.00     0.226 C
HETATM   26  C3  UNL     1      -9.207  27.965   0.348  1.00  0.00     0.066 C
HETATM   27  C2  UNL     1      -9.824  29.177   1.081  1.00  0.00     0.274 C
HETATM   28  N1  UNL     1     -10.213  28.862   2.416  1.00  0.00     0.084 N
HETATM   29  C1  UNL     1     -10.613  30.102   3.066  1.00  0.00     0.309 C
HETATM   30  C21 UNL     1      -9.153  28.309   3.216  1.00  0.00     0.274 C
HETATM   31  C20 UNL     1      -7.876  28.287   2.415  1.00  0.00     0.066 C
ENDBRANCH  22  25
ENDBRANCH   1  19
TORSDOF 7
ENDMDL