MODEL 3
REMARK VINA RESULT: -6.300296446      4.930      9.112
REMARK  6 active torsions:
REMARK  status: ('A' for Active; 'I' for Inactive)
REMARK       I    between atoms: C1_2  and  N1_3
REMARK    1  A    between atoms: C1_2  and  C12_21
REMARK    2  A    between atoms: N1_3  and  C2_5
REMARK    3  A    between atoms: C2_5  and  C3_6
REMARK       I    between atoms: C3_6  and  N2_8
REMARK    4  A    between atoms: N2_8  and  C4_10
REMARK    5  A    between atoms: C14_23  and  N3_24
REMARK    6  A    between atoms: N3_24  and  C15_27
ROOT
HETATM    1  C2  UNL     1     -10.426  29.410   2.533  1.00  0.00     0.113 C
HETATM    2  C8  UNL     1     -11.905  29.659   2.494  1.00  0.00     0.041 C
HETATM    3  C9  UNL     1     -12.485  29.289   3.820  1.00  0.00     0.003 C
HETATM    4  C10 UNL     1     -11.416  28.369   4.387  1.00  0.00     0.003 C
HETATM    5  C11 UNL     1     -10.164  29.092   3.986  1.00  0.00     0.041 C
ENDROOT
BRANCH   1   6
HETATM    6  N1  UNL     1     -10.077  28.310   1.666  1.00  0.00    -0.343 N
HETATM    7  C1  UNL     1     -10.095  28.372   0.247  1.00  0.00     0.223 C
HETATM    8  O1  UNL     1     -10.419  29.412  -0.383  1.00  0.00    -0.273 OA
ATOM      9  H1  UNL     1      -9.800  27.430   2.101  1.00  0.00     0.163 HD
BRANCH   7  10
HETATM   10  C12 UNL     1      -9.727  27.195  -0.590  1.00  0.00     0.082 C
HETATM   11  C13 UNL     1      -8.314  26.699  -0.382  1.00  0.00     0.047 C
HETATM   12  C14 UNL     1      -8.273  26.461  -1.897  1.00  0.00     0.188 C
HETATM   13  C19 UNL     1      -9.330  27.547  -2.009  1.00  0.00     0.047 C
BRANCH  12  14
HETATM   14  N3  UNL     1      -7.021  26.765  -2.509  1.00  0.00    -0.067 N
ATOM     15  H32 UNL     1      -7.106  27.471  -3.241  1.00  0.00     0.278 HD
ATOM     16  H31 UNL     1      -6.399  27.282  -1.887  1.00  0.00     0.278 HD
BRANCH  14  17
HETATM   17  C15 UNL     1      -6.427  25.538  -2.991  1.00  0.00     0.186 C
HETATM   18  C16 UNL     1      -7.057  24.254  -2.528  1.00  0.00     0.033 C
HETATM   19  C17 UNL     1      -5.908  24.042  -1.542  1.00  0.00     0.004 C
HETATM   20  C18 UNL     1      -5.189  25.196  -2.204  1.00  0.00     0.033 C
ENDBRANCH  14  17
ENDBRANCH  12  14
ENDBRANCH   7  10
ENDBRANCH   1   6
BRANCH   1  21
HETATM   21  C3  UNL     1      -9.731  30.673   2.191  1.00  0.00     0.246 C
HETATM   22  O2  UNL     1     -10.288  31.756   2.567  1.00  0.00    -0.271 OA
HETATM   23  N2  UNL     1      -8.522  30.644   1.488  1.00  0.00    -0.353 N
ATOM     24  H2  UNL     1      -8.148  29.732   1.228  1.00  0.00     0.163 HD
BRANCH  23  25
HETATM   25  C4  UNL     1      -7.763  31.809   1.103  1.00  0.00     0.099 C
HETATM   26  C5  UNL     1      -6.372  31.426   0.684  1.00  0.00     0.041 C
HETATM   27  C6  UNL     1      -5.665  32.681   0.280  1.00  0.00     0.142 C
HETATM   28  S1  UNL     1      -6.989  33.610  -0.507  1.00  0.00     0.146 S
HETATM   29  O3  UNL     1      -6.818  33.698  -1.975  1.00  0.00    -0.228 OA
HETATM   30  O4  UNL     1      -7.081  34.940   0.176  1.00  0.00    -0.228 OA
HETATM   31  C7  UNL     1      -8.385  32.569  -0.050  1.00  0.00     0.165 C
ENDBRANCH  23  25
ENDBRANCH   1  21
TORSDOF 6
ENDMDL