MODEL 3
REMARK VINA RESULT: -6.099353527      2.046      3.485
REMARK  10 active torsions:
REMARK  status: ('A' for Active; 'I' for Inactive)
REMARK    1  A    between atoms: C2_2  and  C3_3
REMARK    2  A    between atoms: C3_3  and  C4_4
REMARK    3  A    between atoms: C4_4  and  C5_5
REMARK    4  A    between atoms: C4_4  and  C17_23
REMARK       I    between atoms: C5_5  and  N1_7
REMARK    5  A    between atoms: N2_10  and  C8_11
REMARK    6  A    between atoms: C8_11  and  N3_13
REMARK    7  A    between atoms: N3_13  and  C9_15
REMARK    8  A    between atoms: C17_23  and  C18_25
REMARK    9  A    between atoms: C18_25  and  O2_26
REMARK   10  A    between atoms: C18_25  and  C19_28
ROOT
HETATM    1  C5  UNL     1      -9.362  28.972   0.262  1.00  0.00     0.252 C
HETATM    2  O1  UNL     1     -10.526  29.238  -0.250  1.00  0.00    -0.268 OA
HETATM    3  N1  UNL     1      -8.821  27.794  -0.232  1.00  0.00    -0.336 N
HETATM    4  C6  UNL     1      -9.609  26.986  -1.217  1.00  0.00     0.147 C
HETATM    5  C7  UNL     1      -8.804  26.849  -2.493  1.00  0.00     0.145 C
HETATM    6  N2  UNL     1      -7.510  26.243  -2.186  1.00  0.00    -0.354 N
HETATM    7  C13 UNL     1      -7.294  25.959  -0.784  1.00  0.00     0.155 C
HETATM    8  C14 UNL     1      -7.539  27.233   0.077  1.00  0.00     0.044 C
HETATM    9  C15 UNL     1      -6.365  28.127  -0.262  1.00  0.00     0.040 C
HETATM   10  C16 UNL     1      -7.373  26.748   1.490  1.00  0.00     0.040 C
ENDROOT
BRANCH   1  11
HETATM   11  C4  UNL     1      -8.773  29.866   1.235  1.00  0.00     0.036 C
BRANCH  11  12
HETATM   12  C3  UNL     1      -9.636  29.860   2.470  1.00  0.00     0.072 C
BRANCH  12  13
HETATM   13  C2  UNL     1      -9.765  28.616   3.205  1.00  0.00    -0.032 C
HETATM   14  C1  UNL     1     -10.486  28.575   4.319  1.00  0.00     0.007 C
ENDBRANCH  12  13
ENDBRANCH  11  12
BRANCH  11  15
HETATM   15  C17 UNL     1      -8.163  31.110   0.797  1.00  0.00     0.071 C
HETATM   16  N4  UNL     1      -8.171  31.219  -0.675  1.00  0.00    -0.103 NA
BRANCH  15  17
HETATM   17  C18 UNL     1      -6.892  31.649   1.286  1.00  0.00     0.227 C
BRANCH  17  18
HETATM   18  O2  UNL     1      -5.986  30.796   1.852  1.00  0.00    -0.383 OA
ATOM     19  H2  UNL     1      -5.869  29.933   1.473  1.00  0.00     0.211 HD
ENDBRANCH  17  18
BRANCH  17  20
HETATM   20  C19 UNL     1      -6.187  32.250   0.082  1.00  0.00     0.268 C
HETATM   21  O3  UNL     1      -4.980  32.300   0.043  1.00  0.00    -0.304 OA
ENDBRANCH  17  20
ENDBRANCH  15  17
ENDBRANCH  11  15
ENDBRANCH   1  11
BRANCH   6  22
HETATM   22  C8  UNL     1      -6.617  25.993  -3.232  1.00  0.00     0.170 C
HETATM   23  S1  UNL     1      -6.983  26.574  -4.737  1.00  0.00    -0.041 SA
BRANCH  22  24
HETATM   24  N3  UNL     1      -5.414  25.258  -3.042  1.00  0.00    -0.359 N
ATOM     25  H3  UNL     1      -5.428  24.242  -2.961  1.00  0.00     0.162 HD
BRANCH  24  26
HETATM   26  C9  UNL     1      -4.156  26.001  -2.968  1.00  0.00     0.021 C
HETATM   27  C10 UNL     1      -4.446  27.446  -2.653  1.00  0.00     0.037 C
HETATM   28  C11 UNL     1      -3.278  25.447  -1.867  1.00  0.00     0.037 C
HETATM   29  C12 UNL     1      -3.463  25.825  -4.304  1.00  0.00     0.037 C
ENDBRANCH  24  26
ENDBRANCH  22  24
ENDBRANCH   6  22
TORSDOF 10
ENDMDL