MODEL 4
REMARK VINA RESULT: -6.330102869      3.367      7.977
REMARK  7 active torsions:
REMARK  status: ('A' for Active; 'I' for Inactive)
REMARK    1  A    between atoms: C2_2  and  N1_4
REMARK    2  A    between atoms: C2_2  and  C4_8
REMARK    3  A    between atoms: C4_8  and  C5_9
REMARK       I    between atoms: C5_9  and  N2_11
REMARK    4  A    between atoms: C7_13  and  N3_14
REMARK       I    between atoms: N3_14  and  C8_16
REMARK       I    between atoms: C8_16  and  N4_18
REMARK    5  A    between atoms: N4_18  and  S1_20
REMARK    6  A    between atoms: S1_20  and  C9_23
REMARK    7  A    between atoms: C13_27  and  C14_28
ROOT
HETATM    1  C5  UNL     1      -6.047  25.500  -2.173  1.00  0.00     0.222 C
HETATM    2  O1  UNL     1      -4.940  25.200  -1.674  1.00  0.00    -0.273 OA
HETATM    3  N2  UNL     1      -7.066  26.078  -1.380  1.00  0.00    -0.350 N
HETATM    4  C6  UNL     1      -6.929  26.364   0.028  1.00  0.00     0.151 C
HETATM    5  C7  UNL     1      -8.131  27.202   0.372  1.00  0.00     0.110 C
HETATM    6  C13 UNL     1      -8.577  27.722  -0.950  1.00  0.00     0.032 C
HETATM    7  C17 UNL     1      -8.395  26.481  -1.830  1.00  0.00     0.133 C
ENDROOT
BRANCH   5   8
HETATM    8  N3  UNL     1      -7.804  28.253   1.311  1.00  0.00    -0.336 N
HETATM    9  C8  UNL     1      -7.013  29.326   0.873  1.00  0.00     0.330 C
HETATM   10  O2  UNL     1      -6.602  29.372  -0.299  1.00  0.00    -0.246 OA
HETATM   11  N4  UNL     1      -6.683  30.365   1.778  1.00  0.00    -0.236 N
ATOM     12  H4  UNL     1      -7.025  30.320   2.737  1.00  0.00     0.183 HD
ATOM     13  H3  UNL     1      -8.141  28.215   2.273  1.00  0.00     0.164 HD
BRANCH  11  14
HETATM   14  S1  UNL     1      -5.711  31.703   1.286  1.00  0.00     0.238 S
HETATM   15  O3  UNL     1      -4.920  31.434   0.063  1.00  0.00    -0.205 OA
HETATM   16  O4  UNL     1      -4.732  32.079   2.377  1.00  0.00    -0.205 OA
BRANCH  14  17
HETATM   17  C9  UNL     1      -6.826  33.068   1.024  1.00  0.00     0.130 C
HETATM   18  C10 UNL     1      -7.828  32.689  -0.054  1.00  0.00     0.022 C
HETATM   19  C11 UNL     1      -7.118  33.623  -1.033  1.00  0.00     0.003 C
HETATM   20  C12 UNL     1      -6.327  34.166   0.146  1.00  0.00     0.022 C
ENDBRANCH  14  17
ENDBRANCH  11  14
ENDBRANCH   5   8
BRANCH   6  21
HETATM   21  C14 UNL     1      -9.995  28.210  -0.991  1.00  0.00    -0.007 A
HETATM   22  C15 UNL     1     -10.657  28.576  -2.276  1.00  0.00     0.005 A
HETATM   23  C16 UNL     1     -10.139  29.672  -1.366  1.00  0.00     0.005 A
ENDBRANCH   6  21
BRANCH   1  24
HETATM   24  C4  UNL     1      -6.305  25.256  -3.601  1.00  0.00     0.140 C
BRANCH  24  25
HETATM   25  C2  UNL     1      -5.628  26.218  -4.529  1.00  0.00     0.124 C
HETATM   26  C1  UNL     1      -6.734  27.129  -5.084  1.00  0.00     0.046 C
HETATM   27  C3  UNL     1      -5.021  25.534  -5.732  1.00  0.00     0.046 C
BRANCH  25  28
HETATM   28  N1  UNL     1      -4.666  27.068  -3.851  1.00  0.00    -0.071 N
ATOM     29  H13 UNL     1      -4.728  28.045  -4.136  1.00  0.00     0.275 HD
ATOM     30  H12 UNL     1      -4.882  27.203  -2.863  1.00  0.00     0.275 HD
ATOM     31  H11 UNL     1      -3.742  26.665  -4.006  1.00  0.00     0.275 HD
ENDBRANCH  25  28
ENDBRANCH  24  25
ENDBRANCH   1  24
TORSDOF 7
ENDMDL