MODEL 1
REMARK VINA RESULT: -7.313786513      0.000      0.000
REMARK  8 active torsions:
REMARK  status: ('A' for Active; 'I' for Inactive)
REMARK       I    between atoms: N1_2  and  C2_4
REMARK    1  A    between atoms: C2_4  and  C3_6
REMARK    2  A    between atoms: C3_6  and  O2_7
REMARK    3  A    between atoms: C3_6  and  C6_11
REMARK    4  A    between atoms: O2_7  and  C4_8
REMARK       I    between atoms: C6_11  and  N2_13
REMARK    5  A    between atoms: N2_13  and  C7_15
REMARK    6  A    between atoms: C7_15  and  C8_16
REMARK    7  A    between atoms: C7_15  and  C11_19
REMARK    8  A    between atoms: C14_22  and  O5_23
ROOT
HETATM    1  C7  UNL     1      -8.777  27.499  -1.041  1.00  0.00     0.093 C
ENDROOT
BRANCH   1   2
HETATM    2  N2  UNL     1      -8.226  28.873  -0.965  1.00  0.00    -0.353 N
HETATM    3  C6  UNL     1      -7.795  29.432   0.255  1.00  0.00     0.257 C
HETATM    4  O4  UNL     1      -7.876  28.765   1.303  1.00  0.00    -0.270 OA
ATOM      5  H2  UNL     1      -8.156  29.427  -1.818  1.00  0.00     0.163 HD
BRANCH   3   6
HETATM    6  C3  UNL     1      -7.241  30.800   0.373  1.00  0.00     0.315 C
BRANCH   6   7
HETATM    7  C2  UNL     1      -8.248  31.632   1.065  1.00  0.00     0.256 C
HETATM    8  N1  UNL     1      -8.009  32.398   2.217  1.00  0.00    -0.363 N
HETATM    9  C1  UNL     1      -9.088  33.177   2.804  1.00  0.00     0.149 C
ATOM     10  H1  UNL     1      -7.082  32.408   2.642  1.00  0.00     0.162 HD
HETATM   11  O1  UNL     1      -9.411  31.622   0.537  1.00  0.00    -0.270 OA
ENDBRANCH   6   7
BRANCH   6  12
HETATM   12  O2  UNL     1      -5.969  30.831   0.938  1.00  0.00    -0.297 OA
BRANCH  12  13
HETATM   13  C4  UNL     1      -4.968  31.536   0.278  1.00  0.00     0.256 C
HETATM   14  C5  UNL     1      -3.642  30.930  -0.011  1.00  0.00     0.126 C
HETATM   15  O3  UNL     1      -5.157  32.725  -0.101  1.00  0.00    -0.266 OA
ENDBRANCH  12  13
ENDBRANCH   6  12
ENDBRANCH   3   6
ENDBRANCH   1   2
BRANCH   1  16
HETATM   16  C8  UNL     1     -10.113  27.642  -1.674  1.00  0.00     0.001 C
HETATM   17  C9  UNL     1     -10.743  26.415  -2.231  1.00  0.00     0.011 C
HETATM   18  C10 UNL     1     -11.059  28.127  -0.564  1.00  0.00     0.011 C
ENDBRANCH   1  16
BRANCH   1  19
HETATM   19  C11 UNL     1      -7.795  26.590  -1.726  1.00  0.00     0.026 C
HETATM   20  C12 UNL     1      -6.631  26.202  -0.871  1.00  0.00     0.013 C
HETATM   21  C13 UNL     1      -5.289  26.516  -1.496  1.00  0.00     0.061 C
HETATM   22  C14 UNL     1      -5.299  26.086  -2.944  1.00  0.00     0.130 C
HETATM   23  C15 UNL     1      -3.913  26.122  -3.489  1.00  0.00     0.061 C
HETATM   24  N3  UNL     1      -6.221  26.917  -3.607  1.00  0.00    -0.378 N
HETATM   25  C16 UNL     1      -3.795  26.196  -4.971  1.00  0.00     0.007 C
HETATM   26  C17 UNL     1      -5.150  26.179  -5.607  1.00  0.00     0.024 C
HETATM   27  C18 UNL     1      -5.973  27.288  -4.944  1.00  0.00     0.078 C
HETATM   28  C19 UNL     1      -7.231  27.411  -5.750  1.00  0.00     0.032 C
HETATM   29  C20 UNL     1      -7.559  26.906  -3.144  1.00  0.00     0.127 C
BRANCH  22  30
HETATM   30  O5  UNL     1      -5.750  24.750  -3.022  1.00  0.00    -0.371 OA
ATOM     31  H5  UNL     1      -5.585  24.421  -3.897  1.00  0.00     0.212 HD
ENDBRANCH  22  30
ENDBRANCH   1  19
TORSDOF 8
ENDMDL