MODEL 2
REMARK VINA RESULT: -6.074715229      2.522      3.444
REMARK  10 active torsions:
REMARK  status: ('A' for Active; 'I' for Inactive)
REMARK    1  A    between atoms: C2_2  and  O1_3
REMARK    2  A    between atoms: O1_3  and  C3_4
REMARK       I    between atoms: C3_4  and  N1_6
REMARK    3  A    between atoms: N1_6  and  C4_8
REMARK    4  A    between atoms: N2_11  and  C7_12
REMARK    5  A    between atoms: C7_12  and  O3_13
REMARK    6  A    between atoms: C8_15  and  N3_16
REMARK    7  A    between atoms: C8_15  and  C14_27
REMARK    8  A    between atoms: N3_16  and  C9_18
REMARK    9  A    between atoms: C9_18  and  C10_20
REMARK   10  A    between atoms: C10_20  and  N4_22
REMARK       I    between atoms: N4_22  and  C12_24
ROOT
HETATM    1  C7  UNL     1      -7.808  29.939   1.022  1.00  0.00     0.161 C
HETATM    2  C8  UNL     1      -7.384  31.298   1.099  1.00  0.00     0.065 C
ENDROOT
BRANCH   1   3
HETATM    3  N2  UNL     1      -7.641  28.971   0.064  1.00  0.00    -0.360 N
HETATM    4  C6  UNL     1      -8.746  28.633  -0.897  1.00  0.00     0.127 C
HETATM    5  C5  UNL     1      -8.183  27.893  -2.091  1.00  0.00     0.045 C
HETATM    6  C4  UNL     1      -7.538  26.582  -1.660  1.00  0.00     0.089 C
HETATM    7  C18 UNL     1      -6.958  26.727  -0.257  1.00  0.00     0.045 C
HETATM    8  C17 UNL     1      -6.473  28.197  -0.194  1.00  0.00     0.127 C
BRANCH   6   9
HETATM    9  N1  UNL     1      -6.394  26.380  -2.554  1.00  0.00    -0.332 N
HETATM   10  C3  UNL     1      -6.537  25.713  -3.792  1.00  0.00     0.360 C
HETATM   11  O2  UNL     1      -7.659  25.275  -4.155  1.00  0.00    -0.239 OA
ATOM     12  H1  UNL     1      -5.476  26.728  -2.277  1.00  0.00     0.165 HD
BRANCH  10  13
HETATM   13  O1  UNL     1      -5.452  25.529  -4.625  1.00  0.00    -0.304 OA
BRANCH  13  14
HETATM   14  C2  UNL     1      -4.358  26.417  -4.637  1.00  0.00     0.176 C
HETATM   15  C1  UNL     1      -4.645  27.566  -5.571  1.00  0.00     0.034 C
ENDBRANCH  13  14
ENDBRANCH  10  13
ENDBRANCH   6   9
ENDBRANCH   1   3
BRANCH   1  16
HETATM   16  O3  UNL     1      -8.496  29.526   2.064  1.00  0.00    -0.345 OA
ATOM     17  H3  UNL     1      -7.996  29.536   2.872  1.00  0.00     0.219 HD
ENDBRANCH   1  16
BRANCH   2  18
HETATM   18  N3  UNL     1      -7.803  32.044   2.251  1.00  0.00    -0.348 N
ATOM     19  H3  UNL     1      -7.380  31.741   3.129  1.00  0.00     0.166 HD
BRANCH  18  20
HETATM   20  C9  UNL     1      -8.693  33.119   2.375  1.00  0.00     0.100 C
HETATM   21  S1  UNL     1      -9.672  33.766   1.265  1.00  0.00    -0.063 SA
BRANCH  20  22
HETATM   22  C10 UNL     1      -8.775  33.803   3.726  1.00  0.00     0.142 C
HETATM   23  C11 UNL     1      -7.385  34.318   4.109  1.00  0.00     0.040 C
BRANCH  22  24
HETATM   24  N4  UNL     1      -9.227  32.837   4.690  1.00  0.00    -0.351 N
HETATM   25  C12 UNL     1     -10.601  32.637   5.002  1.00  0.00     0.214 C
HETATM   26  C13 UNL     1     -11.015  31.636   6.001  1.00  0.00     0.117 C
HETATM   27  O4  UNL     1     -11.514  33.312   4.435  1.00  0.00    -0.274 OA
ATOM     28  H4  UNL     1      -8.531  32.269   5.173  1.00  0.00     0.163 HD
ENDBRANCH  22  24
ENDBRANCH  20  22
ENDBRANCH  18  20
ENDBRANCH   2  18
BRANCH   2  29
HETATM   29  C14 UNL     1      -5.974  31.673   0.748  1.00  0.00     0.032 C
HETATM   30  C15 UNL     1      -5.069  31.906   1.935  1.00  0.00     0.016 C
HETATM   31  C16 UNL     1      -6.020  33.093   0.072  1.00  0.00     0.016 C
ENDBRANCH   2  29
TORSDOF 10
ENDMDL