MODEL 3
REMARK VINA RESULT: -6.579545829      1.707      2.068
REMARK  9 active torsions:
REMARK  status: ('A' for Active; 'I' for Inactive)
REMARK    1  A    between atoms: C4_5  and  C5_6
REMARK       I    between atoms: C5_6  and  N2_8
REMARK    2  A    between atoms: N2_8  and  N3_10
REMARK       I    between atoms: N3_10  and  C6_12
REMARK    3  A    between atoms: C6_12  and  C7_14
REMARK    4  A    between atoms: C7_14  and  C8_15
REMARK    5  A    between atoms: C8_15  and  C9_16
REMARK    6  A    between atoms: C9_16  and  C10_17
REMARK    7  A    between atoms: C10_17  and  N4_18
REMARK    8  A    between atoms: N4_18  and  C11_20
REMARK    9  A    between atoms: C11_20  and  N5_22
ROOT
HETATM    1  N3  UNL     1      -5.435  28.998  -0.279  1.00  0.00    -0.268 N
ATOM      2  H3  UNL     1      -4.466  28.992  -0.598  1.00  0.00     0.190 HD
HETATM    3  C6  UNL     1      -6.216  27.831  -0.444  1.00  0.00     0.236 C
HETATM    4  O2  UNL     1      -7.402  27.822  -0.072  1.00  0.00    -0.272 OA
ENDROOT
BRANCH   3   5
HETATM    5  C7  UNL     1      -5.604  26.625  -1.061  1.00  0.00     0.105 C
BRANCH   5   6
HETATM    6  C8  UNL     1      -4.236  26.934  -1.592  1.00  0.00     0.011 C
BRANCH   6   7
HETATM    7  C9  UNL     1      -3.638  25.896  -2.477  1.00  0.00     0.020 C
BRANCH   7   8
HETATM    8  C10 UNL     1      -3.888  26.188  -3.933  1.00  0.00     0.122 C
BRANCH   8   9
HETATM    9  N4  UNL     1      -5.057  25.484  -4.378  1.00  0.00    -0.367 N
ATOM     10  H4  UNL     1      -5.117  24.472  -4.264  1.00  0.00     0.161 HD
BRANCH   9  11
HETATM   11  C11 UNL     1      -6.131  26.195  -4.978  1.00  0.00     0.169 C
HETATM   12  S1  UNL     1      -5.798  27.619  -5.708  1.00  0.00    -0.041 SA
BRANCH  11  13
HETATM   13  N5  UNL     1      -7.448  25.714  -4.964  1.00  0.00    -0.357 N
HETATM   14  C12 UNL     1      -8.356  25.648  -6.079  1.00  0.00     0.135 C
HETATM   15  C13 UNL     1      -9.454  26.676  -6.007  1.00  0.00     0.093 C
HETATM   16  S2  UNL     1      -9.937  27.047  -4.314  1.00  0.00    -0.166 SA
HETATM   17  C14 UNL     1      -8.757  26.429  -3.104  1.00  0.00     0.093 C
HETATM   18  C15 UNL     1      -7.992  25.228  -3.681  1.00  0.00     0.135 C
ENDBRANCH  11  13
ENDBRANCH   9  11
ENDBRANCH   8   9
ENDBRANCH   7   8
ENDBRANCH   6   7
ENDBRANCH   5   6
ENDBRANCH   3   5
BRANCH   1  19
HETATM   19  N2  UNL     1      -5.945  30.161   0.306  1.00  0.00    -0.267 N
HETATM   20  C5  UNL     1      -5.269  31.394   0.412  1.00  0.00     0.240 C
HETATM   21  O1  UNL     1      -4.108  31.493  -0.045  1.00  0.00    -0.271 OA
ATOM     22  H2  UNL     1      -6.888  30.113   0.690  1.00  0.00     0.190 HD
BRANCH  20  23
HETATM   23  C4  UNL     1      -5.968  32.535   1.068  1.00  0.00     0.082 C
HETATM   24  C3  UNL     1      -7.358  32.036   1.394  1.00  0.00     0.033 C
HETATM   25  C2  UNL     1      -8.390  33.116   1.491  1.00  0.00     0.117 C
HETATM   26  N1  UNL     1      -7.894  34.435   1.623  1.00  0.00    -0.417 N
HETATM   27  C1  UNL     1      -7.656  34.862   2.977  1.00  0.00     0.143 C
HETATM   28  C17 UNL     1      -6.888  34.822   0.691  1.00  0.00     0.117 C
HETATM   29  C16 UNL     1      -6.112  33.681   0.104  1.00  0.00     0.033 C
ENDBRANCH  20  23
ENDBRANCH   1  19
TORSDOF 9
ENDMDL