MODEL 5
REMARK VINA RESULT: -6.328461946      2.470      7.643
REMARK  8 active torsions:
REMARK  status: ('A' for Active; 'I' for Inactive)
REMARK    1  A    between atoms: C2_2  and  C3_3
REMARK    2  A    between atoms: C3_3  and  C4_4
REMARK    3  A    between atoms: C4_4  and  O1_5
REMARK       I    between atoms: N1_7  and  C5_8
REMARK    4  A    between atoms: N2_17  and  S1_18
REMARK    5  A    between atoms: S1_18  and  N3_21
REMARK    6  A    between atoms: N3_21  and  C13_23
REMARK    7  A    between atoms: C13_23  and  C14_24
REMARK    8  A    between atoms: C14_24  and  N4_27
ROOT
HETATM    1  C4  UNL     1      -7.007  26.643  -1.941  1.00  0.00     0.143 C
HETATM    2  N1  UNL     1      -5.678  26.095  -2.280  1.00  0.00    -0.320 N
HETATM    3  C5  UNL     1      -4.450  26.328  -1.615  1.00  0.00     0.218 C
HETATM    4  C6  UNL     1      -3.178  25.712  -2.061  1.00  0.00     0.117 C
HETATM    5  O2  UNL     1      -4.410  27.079  -0.610  1.00  0.00    -0.274 OA
HETATM    6  C7  UNL     1      -5.836  25.261  -3.436  1.00  0.00     0.130 C
HETATM    7  C8  UNL     1      -6.778  26.090  -4.278  1.00  0.00     0.034 C
HETATM    8  C9  UNL     1      -7.778  26.500  -3.170  1.00  0.00     0.013 C
HETATM    9  C10 UNL     1      -8.306  27.856  -3.630  1.00  0.00     0.016 C
HETATM   10  C11 UNL     1      -9.779  27.987  -3.338  1.00  0.00     0.022 C
HETATM   11  C12 UNL     1     -10.511  27.522  -4.604  1.00  0.00     0.137 C
HETATM   12  N2  UNL     1      -9.689  26.556  -5.243  1.00  0.00    -0.294 N
HETATM   13  C17 UNL     1      -9.528  25.331  -4.545  1.00  0.00     0.137 C
HETATM   14  C18 UNL     1      -8.833  25.440  -3.219  1.00  0.00     0.035 C
ENDROOT
BRANCH  12  15
HETATM   15  S1  UNL     1      -9.958  26.386  -6.917  1.00  0.00     0.317 S
HETATM   16  O3  UNL     1     -11.446  26.584  -7.158  1.00  0.00    -0.183 OA
HETATM   17  O4  UNL     1      -9.256  27.467  -7.687  1.00  0.00    -0.183 OA
BRANCH  15  18
HETATM   18  N3  UNL     1      -9.542  24.855  -7.537  1.00  0.00    -0.300 N
ATOM     19  H3  UNL     1      -8.882  24.219  -7.092  1.00  0.00     0.173 HD
BRANCH  18  20
HETATM   20  C13 UNL     1     -10.241  24.568  -8.776  1.00  0.00     0.171 C
BRANCH  20  21
HETATM   21  C14 UNL     1     -11.138  23.377  -8.665  1.00  0.00     0.133 C
HETATM   22  C15 UNL     1     -10.283  22.133  -8.796  1.00  0.00     0.047 C
HETATM   23  C16 UNL     1     -12.179  23.345  -9.772  1.00  0.00     0.047 C
BRANCH  21  24
HETATM   24  N4  UNL     1     -11.869  23.371  -7.411  1.00  0.00    -0.070 N
ATOM     25  H43 UNL     1     -12.550  24.130  -7.373  1.00  0.00     0.275 HD
ATOM     26  H42 UNL     1     -12.510  22.579  -7.358  1.00  0.00     0.275 HD
ATOM     27  H41 UNL     1     -11.240  23.394  -6.608  1.00  0.00     0.275 HD
ENDBRANCH  21  24
ENDBRANCH  20  21
ENDBRANCH  18  20
ENDBRANCH  15  18
ENDBRANCH  12  15
BRANCH   1  28
HETATM   28  C3  UNL     1      -7.417  25.968  -0.697  1.00  0.00     0.061 C
BRANCH  28  29
HETATM   29  C2  UNL     1      -7.984  26.747   0.417  1.00  0.00     0.000 C
HETATM   30  C1  UNL     1      -7.187  26.696   1.699  1.00  0.00     0.005 C
ENDBRANCH  28  29
ENDBRANCH   1  28
BRANCH   1  31
HETATM   31  O1  UNL     1      -6.698  27.994  -1.667  1.00  0.00    -0.370 OA
ATOM     32  H1  UNL     1      -7.275  28.561  -2.164  1.00  0.00     0.212 HD
ENDBRANCH   1  31
TORSDOF 8
ENDMDL