MODEL 3
REMARK VINA RESULT: -6.336173061      2.712      4.555
REMARK  8 active torsions:
REMARK  status: ('A' for Active; 'I' for Inactive)
REMARK    1  A    between atoms: O1_2  and  C2_3
REMARK    2  A    between atoms: C2_3  and  C3_5
REMARK    3  A    between atoms: N1_8  and  C6_9
REMARK    4  A    between atoms: C6_9  and  C7_10
REMARK       I    between atoms: C7_10  and  N2_12
REMARK    5  A    between atoms: N2_12  and  C8_14
REMARK    6  A    between atoms: C8_14  and  C9_15
REMARK       I    between atoms: C9_15  and  N3_17
REMARK    7  A    between atoms: N3_17  and  C10_19
REMARK    8  A    between atoms: C16_25  and  N4_27
ROOT
HETATM    1  C9  UNL     1      -7.149  25.801  -0.658  1.00  0.00     0.235 C
HETATM    2  O4  UNL     1      -7.036  24.547  -0.761  1.00  0.00    -0.272 OA
HETATM    3  N3  UNL     1      -7.071  26.587  -1.845  1.00  0.00    -0.355 N
ATOM      4  H3  UNL     1      -7.164  27.601  -1.780  1.00  0.00     0.162 HD
ENDROOT
BRANCH   1   5
HETATM    5  C8  UNL     1      -7.359  26.509   0.617  1.00  0.00     0.225 C
BRANCH   5   6
HETATM    6  N2  UNL     1      -7.976  27.822   0.438  1.00  0.00    -0.351 N
HETATM    7  C7  UNL     1      -8.001  28.706   1.524  1.00  0.00     0.246 C
HETATM    8  O3  UNL     1      -7.509  28.354   2.623  1.00  0.00    -0.272 OA
ATOM      9  H2  UNL     1      -8.380  28.089  -0.460  1.00  0.00     0.163 HD
BRANCH   7  10
HETATM   10  C6  UNL     1      -8.591  30.046   1.428  1.00  0.00     0.374 C
BRANCH  10  11
HETATM   11  N1  UNL     1      -7.655  31.125   1.528  1.00  0.00     0.097 N
HETATM   12  C5  UNL     1      -8.248  32.384   1.866  1.00  0.00     0.273 C
HETATM   13  C4  UNL     1      -8.740  33.073   0.591  1.00  0.00     0.045 C
HETATM   14  C3  UNL     1      -7.578  33.402  -0.295  1.00  0.00     0.089 C
HETATM   15  C20 UNL     1      -6.373  32.572   0.061  1.00  0.00     0.045 C
HETATM   16  C19 UNL     1      -6.878  31.154   0.307  1.00  0.00     0.273 C
BRANCH  14  17
HETATM   17  C2  UNL     1      -7.884  33.194  -1.736  1.00  0.00     0.262 C
HETATM   18  O2  UNL     1      -7.141  33.670  -2.625  1.00  0.00    -0.265 OA
BRANCH  17  19
HETATM   19  O1  UNL     1      -9.018  32.451  -2.082  1.00  0.00    -0.326 OA
HETATM   20  C1  UNL     1      -9.893  33.040  -3.024  1.00  0.00     0.213 C
ENDBRANCH  17  19
ENDBRANCH  14  17
ENDBRANCH  10  11
ENDBRANCH   7  10
ENDBRANCH   5   6
ENDBRANCH   1   5
BRANCH   3  21
HETATM   21  C10 UNL     1      -6.860  25.965  -3.164  1.00  0.00     0.087 C
HETATM   22  C11 UNL     1      -7.555  26.867  -4.150  1.00  0.00     0.034 C
HETATM   23  C12 UNL     1      -7.198  26.583  -5.576  1.00  0.00    -0.044 C
HETATM   24  C13 UNL     1      -7.122  27.878  -6.352  1.00  0.00     0.015 C
HETATM   25  C14 UNL     1      -8.239  25.700  -6.242  1.00  0.00     0.015 C
HETATM   26  C15 UNL     1      -5.872  25.884  -5.732  1.00  0.00     0.047 C
HETATM   27  C16 UNL     1      -4.925  26.440  -4.698  1.00  0.00     0.122 C
HETATM   28  C17 UNL     1      -3.507  26.040  -4.945  1.00  0.00     0.046 C
HETATM   29  C18 UNL     1      -5.391  25.873  -3.359  1.00  0.00     0.063 C
BRANCH  27  30
HETATM   30  N4  UNL     1      -4.977  27.881  -4.625  1.00  0.00    -0.071 N
ATOM     31  H43 UNL     1      -4.393  28.232  -3.866  1.00  0.00     0.275 HD
ATOM     32  H42 UNL     1      -4.492  28.307  -5.414  1.00  0.00     0.275 HD
ATOM     33  H41 UNL     1      -5.932  28.231  -4.547  1.00  0.00     0.275 HD
ENDBRANCH  27  30
ENDBRANCH   3  21
TORSDOF 8
ENDMDL