MODEL 5
REMARK VINA RESULT: -7.036279185      2.216      7.534
REMARK  8 active torsions:
REMARK  status: ('A' for Active; 'I' for Inactive)
REMARK    1  A    between atoms: C1_2  and  C2_4
REMARK    2  A    between atoms: N1_8  and  C6_9
REMARK    3  A    between atoms: C7_10  and  O3_11
REMARK    4  A    between atoms: C7_10  and  N2_13
REMARK    5  A    between atoms: C11_17  and  C12_18
REMARK       I    between atoms: C12_18  and  N3_20
REMARK    6  A    between atoms: N3_20  and  C13_22
REMARK    7  A    between atoms: C13_22  and  C14_23
REMARK    8  A    between atoms: C14_23  and  O5_24
ROOT
HETATM    1  N2  UNL     1      -8.273  28.341   1.333  1.00  0.00    -0.348 N
HETATM    2  C8  UNL     1      -9.252  28.902   2.226  1.00  0.00     0.126 C
HETATM    3  C9  UNL     1     -10.378  29.190   1.213  1.00  0.00     0.022 C
HETATM    4  C10 UNL     1      -9.549  29.946   0.169  1.00  0.00     0.037 C
HETATM    5  C11 UNL     1      -8.157  29.342   0.236  1.00  0.00     0.178 C
ENDROOT
BRANCH   1   6
HETATM    6  C7  UNL     1      -7.569  27.129   1.401  1.00  0.00     0.149 C
HETATM    7  C6  UNL     1      -7.166  26.172   0.402  1.00  0.00     0.115 C
BRANCH   7   8
HETATM    8  N1  UNL     1      -7.385  26.439  -0.979  1.00  0.00    -0.288 NA
HETATM    9  C5  UNL     1      -7.491  25.147  -1.681  1.00  0.00     0.095 C
HETATM   10  C4  UNL     1      -7.029  25.207  -3.096  1.00  0.00     0.016 C
HETATM   11  C3  UNL     1      -5.552  25.510  -3.216  1.00  0.00     0.018 C
HETATM   12  C2  UNL     1      -5.130  26.001  -1.826  1.00  0.00     0.100 C
HETATM   13  C20 UNL     1      -6.119  27.071  -1.440  1.00  0.00     0.110 C
BRANCH  12  14
HETATM   14  C1  UNL     1      -3.753  26.576  -1.909  1.00  0.00     0.178 C
HETATM   15  O1  UNL     1      -2.859  26.088  -2.636  1.00  0.00    -0.648 OA
HETATM   16  O2  UNL     1      -3.491  27.687  -1.142  1.00  0.00    -0.648 OA
ENDBRANCH  12  14
ENDBRANCH   7   8
BRANCH   6  17
HETATM   17  O3  UNL     1      -7.224  26.832   2.639  1.00  0.00    -0.345 OA
ATOM     18  H3  UNL     1      -7.877  27.029   3.300  1.00  0.00     0.219 HD
ENDBRANCH   6  17
ENDBRANCH   1   6
BRANCH   5  19
HETATM   19  C12 UNL     1      -7.199  30.410   0.584  1.00  0.00     0.241 C
HETATM   20  O4  UNL     1      -6.049  30.340   0.048  1.00  0.00    -0.271 OA
HETATM   21  N3  UNL     1      -7.496  31.470   1.457  1.00  0.00    -0.348 N
ATOM     22  H3  UNL     1      -8.433  31.481   1.859  1.00  0.00     0.163 HD
BRANCH  21  23
HETATM   23  C13 UNL     1      -6.629  32.533   1.840  1.00  0.00     0.054 C
HETATM   24  C15 UNL     1      -7.247  33.343   2.981  1.00  0.00     0.033 C
HETATM   25  C16 UNL     1      -7.291  34.810   2.689  1.00  0.00     0.002 C
HETATM   26  C17 UNL     1      -8.160  35.059   1.493  1.00  0.00     0.000 C
HETATM   27  C18 UNL     1      -7.639  34.260   0.337  1.00  0.00     0.002 C
HETATM   28  C19 UNL     1      -6.393  33.486   0.708  1.00  0.00     0.033 C
BRANCH  23  29
HETATM   29  C14 UNL     1      -5.280  32.053   2.327  1.00  0.00     0.195 C
BRANCH  29  30
HETATM   30  O5  UNL     1      -5.047  32.456   3.639  1.00  0.00    -0.398 OA
ATOM     31  H5  UNL     1      -5.434  31.847   4.257  1.00  0.00     0.209 HD
ENDBRANCH  29  30
ENDBRANCH  23  29
ENDBRANCH  21  23
ENDBRANCH   5  19
TORSDOF 8
ENDMDL