MODEL 5
REMARK VINA RESULT: -7.061132069      2.426      7.581
REMARK  6 active torsions:
REMARK  status: ('A' for Active; 'I' for Inactive)
REMARK       I    between atoms: N1_2  and  C2_4
REMARK    1  A    between atoms: C2_4  and  C3_6
REMARK       I    between atoms: N2_10  and  C7_11
REMARK    2  A    between atoms: C7_11  and  C8_13
REMARK       I    between atoms: C8_13  and  N3_15
REMARK    3  A    between atoms: N3_15  and  C9_17
REMARK    4  A    between atoms: C9_17  and  C10_18
REMARK    5  A    between atoms: C9_17  and  C13_22
REMARK    6  A    between atoms: C13_22  and  N5_23
REMARK       I    between atoms: N5_23  and  C14_25
ROOT
HETATM    1  C10 UNL     1      -9.711  29.574   2.166  1.00  0.00     0.114 C
HETATM    2  C11 UNL     1      -8.984  28.314   2.731  1.00  0.00     0.027 C
HETATM    3  C12 UNL     1     -11.117  29.408   2.287  1.00  0.00     0.065 C
HETATM    4  N4  UNL     1     -12.243  29.250   2.415  1.00  0.00    -0.197 NA
ENDROOT
BRANCH   1   5
HETATM    5  C9  UNL     1      -9.065  30.029   0.947  1.00  0.00     0.130 C
BRANCH   5   6
HETATM    6  N3  UNL     1      -7.979  29.075   0.613  1.00  0.00    -0.345 N
HETATM    7  C8  UNL     1      -7.770  28.520  -0.667  1.00  0.00     0.310 C
HETATM    8  O3  UNL     1      -8.512  28.756  -1.668  1.00  0.00    -0.262 OA
ATOM      9  H3  UNL     1      -7.340  28.802   1.360  1.00  0.00     0.163 HD
BRANCH   7  10
HETATM   10  C7  UNL     1      -6.656  27.632  -0.929  1.00  0.00     0.312 C
HETATM   11  N2  UNL     1      -6.677  26.431  -1.654  1.00  0.00    -0.331 N
HETATM   12  C3  UNL     1      -5.469  25.663  -1.998  1.00  0.00     0.179 C
HETATM   13  C6  UNL     1      -7.820  25.692  -2.137  1.00  0.00     0.127 C
HETATM   14  C4  UNL     1      -5.904  24.230  -1.870  1.00  0.00     0.037 C
HETATM   15  C5  UNL     1      -7.295  24.303  -2.477  1.00  0.00     0.022 C
HETATM   16  O2  UNL     1      -5.531  28.011  -0.438  1.00  0.00    -0.262 OA
BRANCH  12  17
HETATM   17  C2  UNL     1      -5.115  25.985  -3.421  1.00  0.00     0.240 C
HETATM   18  N1  UNL     1      -5.465  25.176  -4.512  1.00  0.00    -0.364 N
HETATM   19  C1  UNL     1      -5.110  25.540  -5.844  1.00  0.00     0.149 C
ATOM     20  H1  UNL     1      -5.982  24.312  -4.350  1.00  0.00     0.161 HD
HETATM   21  O1  UNL     1      -4.472  27.050  -3.627  1.00  0.00    -0.271 OA
ENDBRANCH  12  17
ENDBRANCH   7  10
ENDBRANCH   5   6
BRANCH   5  22
HETATM   22  C13 UNL     1      -8.437  31.400   0.823  1.00  0.00     0.054 C
HETATM   23  C16 UNL     1      -6.974  31.253   0.862  1.00  0.00     0.033 C
HETATM   24  C17 UNL     1      -6.247  31.908   2.009  1.00  0.00     0.002 C
HETATM   25  C18 UNL     1      -6.719  33.265   2.360  1.00  0.00     0.000 C
HETATM   26  C19 UNL     1      -8.172  33.194   2.644  1.00  0.00     0.002 C
HETATM   27  C20 UNL     1      -9.035  32.410   1.750  1.00  0.00     0.033 C
BRANCH  22  28
HETATM   28  N5  UNL     1      -8.842  31.836  -0.507  1.00  0.00    -0.350 N
HETATM   29  C14 UNL     1      -8.551  32.951  -1.263  1.00  0.00     0.214 C
HETATM   30  C15 UNL     1      -9.123  33.152  -2.653  1.00  0.00     0.117 C
HETATM   31  O4  UNL     1      -7.804  33.867  -0.866  1.00  0.00    -0.274 OA
ATOM     32  H5  UNL     1      -9.469  31.182  -0.975  1.00  0.00     0.163 HD
ENDBRANCH  22  28
ENDBRANCH   5  22
ENDBRANCH   1   5
TORSDOF 6
ENDMDL