MODEL 1
REMARK VINA RESULT: -6.780663852      0.000      0.000
REMARK  7 active torsions:
REMARK  status: ('A' for Active; 'I' for Inactive)
REMARK    1  A    between atoms: N2_5  and  C4_6
REMARK    2  A    between atoms: C4_6  and  C5_7
REMARK    3  A    between atoms: C5_7  and  C6_8
REMARK    4  A    between atoms: C6_8  and  C7_9
REMARK    5  A    between atoms: C7_9  and  N3_10
REMARK       I    between atoms: N3_10  and  C8_12
REMARK       I    between atoms: C8_12  and  N5_16
REMARK    6  A    between atoms: C11_19  and  O1_20
REMARK    7  A    between atoms: C11_19  and  C12_22
REMARK       I    between atoms: C12_22  and  N6_24
ROOT
HETATM    1  N3  UNL     1      -9.994  28.494   2.358  1.00  0.00    -0.227 N
ATOM      2  H3  UNL     1     -10.768  28.322   1.716  1.00  0.00     0.177 HD
HETATM    3  C8  UNL     1      -8.675  28.269   1.918  1.00  0.00     0.669 C
HETATM    4  N4  UNL     1      -7.668  28.748   2.521  1.00  0.00    -0.235 N
ATOM      5  H41 UNL     1      -6.712  28.585   2.202  1.00  0.00     0.174 HD
ATOM      6  H42 UNL     1      -7.818  29.314   3.357  1.00  0.00     0.174 HD
HETATM    7  N5  UNL     1      -8.466  27.481   0.755  1.00  0.00    -0.218 N
HETATM    8  C9  UNL     1      -7.567  26.380   0.827  1.00  0.00     0.144 C
HETATM    9  C10 UNL     1      -7.159  25.751  -0.450  1.00  0.00     0.068 C
HETATM   10  C11 UNL     1      -7.589  26.580  -1.649  1.00  0.00     0.141 C
HETATM   11  C18 UNL     1      -9.090  26.798  -1.449  1.00  0.00     0.068 C
HETATM   12  C19 UNL     1      -9.216  27.898  -0.422  1.00  0.00     0.144 C
ENDROOT
BRANCH   1  13
HETATM   13  C7  UNL     1     -10.280  28.966   3.702  1.00  0.00     0.138 C
BRANCH  13  14
HETATM   14  C6  UNL     1     -11.128  30.215   3.571  1.00  0.00     0.022 C
BRANCH  14  15
HETATM   15  C5  UNL     1     -10.685  30.970   2.313  1.00  0.00     0.032 C
BRANCH  15  16
HETATM   16  C4  UNL     1     -10.208  32.335   2.790  1.00  0.00     0.272 C
BRANCH  16  17
HETATM   17  N2  UNL     1      -8.919  32.613   2.212  1.00  0.00     0.091 N
HETATM   18  C3  UNL     1      -8.731  34.022   2.051  1.00  0.00     0.302 C
HETATM   19  C2  UNL     1      -7.245  34.269   1.842  1.00  0.00     0.302 C
HETATM   20  N1  UNL     1      -6.616  33.108   1.294  1.00  0.00     0.087 N
HETATM   21  C1  UNL     1      -5.976  32.255   2.244  1.00  0.00     0.310 C
HETATM   22  C21 UNL     1      -7.442  32.440   0.338  1.00  0.00     0.302 C
HETATM   23  C20 UNL     1      -8.672  31.857   1.014  1.00  0.00     0.302 C
ENDBRANCH  16  17
ENDBRANCH  15  16
ENDBRANCH  14  15
ENDBRANCH  13  14
ENDBRANCH   1  13
BRANCH  10  24
HETATM   24  O1  UNL     1      -7.008  27.824  -1.508  1.00  0.00    -0.380 OA
ATOM     25  H1  UNL     1      -7.690  28.417  -1.219  1.00  0.00     0.211 HD
ENDBRANCH  10  24
BRANCH  10  26
HETATM   26  C12 UNL     1      -7.284  25.937  -2.904  1.00  0.00     0.254 C
HETATM   27  O2  UNL     1      -6.701  24.785  -2.822  1.00  0.00    -0.270 OA
HETATM   28  N6  UNL     1      -7.531  26.381  -4.207  1.00  0.00    -0.350 N
HETATM   29  C13 UNL     1      -8.124  27.630  -4.621  1.00  0.00     0.126 C
HETATM   30  C17 UNL     1      -7.194  25.505  -5.371  1.00  0.00     0.126 C
HETATM   31  C14 UNL     1      -9.580  27.307  -4.930  1.00  0.00     0.020 C
HETATM   32  C15 UNL     1      -9.629  26.043  -5.770  1.00  0.00     0.003 C
HETATM   33  C16 UNL     1      -8.298  25.699  -6.391  1.00  0.00     0.020 C
ENDBRANCH  10  26
TORSDOF 7
ENDMDL