MODEL 1
REMARK VINA RESULT: -7.510219188      0.000      0.000
REMARK  6 active torsions:
REMARK  status: ('A' for Active; 'I' for Inactive)
REMARK       I    between atoms: C2_2  and  N1_4
REMARK    1  A    between atoms: N3_14  and  C9_15
REMARK    2  A    between atoms: C9_15  and  C10_16
REMARK       I    between atoms: C10_16  and  N4_18
REMARK    3  A    between atoms: N4_18  and  C11_20
REMARK    4  A    between atoms: C11_20  and  C12_21
REMARK    5  A    between atoms: C12_21  and  N5_22
REMARK       I    between atoms: N5_22  and  C13_24
REMARK    6  A    between atoms: C13_24  and  C14_26
ROOT
HETATM    1  C9  UNL     1      -7.031  25.500  -1.224  1.00  0.00     0.219 C
ENDROOT
BRANCH   1   2
HETATM    2  N3  UNL     1      -7.105  26.885  -0.964  1.00  0.00    -0.402 N
HETATM    3  C8  UNL     1      -6.996  27.311   0.389  1.00  0.00     0.117 C
HETATM    4  C7  UNL     1      -8.361  27.250   1.053  1.00  0.00     0.021 C
HETATM    5  C6  UNL     1      -8.849  28.607   1.510  1.00  0.00     0.029 C
HETATM    6  C5  UNL     1     -10.358  28.719   1.467  1.00  0.00     0.232 C
HETATM    7  N2  UNL     1     -10.701  29.567   0.330  1.00  0.00    -0.074 N
HETATM    8  C4  UNL     1     -11.464  28.810  -0.651  1.00  0.00     0.252 C
ATOM      9  H22 UNL     1      -9.876  30.003  -0.083  1.00  0.00     0.277 HD
ATOM     10  H21 UNL     1     -11.190  30.415   0.620  1.00  0.00     0.277 HD
HETATM   11  C3  UNL     1     -10.759  28.678  -1.975  1.00  0.00     0.153 C
HETATM   12  N1  UNL     1     -10.447  27.305  -2.258  1.00  0.00    -0.349 N
HETATM   13  C2  UNL     1     -11.500  26.394  -2.481  1.00  0.00     0.215 C
HETATM   14  C21 UNL     1      -9.096  26.761  -2.337  1.00  0.00     0.145 C
HETATM   15  C1  UNL     1     -12.902  26.835  -2.422  1.00  0.00     0.117 C
HETATM   16  O1  UNL     1     -11.251  25.194  -2.731  1.00  0.00    -0.274 OA
HETATM   17  C20 UNL     1      -8.022  27.607  -1.783  1.00  0.00     0.137 C
ENDBRANCH   1   2
BRANCH   1  18
HETATM   18  C10 UNL     1      -5.691  25.004  -1.648  1.00  0.00     0.235 C
HETATM   19  O2  UNL     1      -5.499  23.779  -1.720  1.00  0.00    -0.272 OA
HETATM   20  N4  UNL     1      -4.695  25.940  -1.951  1.00  0.00    -0.358 N
ATOM     21  H4  UNL     1      -4.908  26.935  -1.881  1.00  0.00     0.162 HD
BRANCH  20  22
HETATM   22  C11 UNL     1      -3.376  25.528  -2.358  1.00  0.00     0.142 C
BRANCH  22  23
HETATM   23  C12 UNL     1      -3.145  25.886  -3.787  1.00  0.00     0.142 C
BRANCH  23  24
HETATM   24  N5  UNL     1      -4.377  25.878  -4.528  1.00  0.00    -0.359 N
HETATM   25  C13 UNL     1      -4.788  26.999  -5.286  1.00  0.00     0.221 C
HETATM   26  O3  UNL     1      -4.133  28.058  -5.379  1.00  0.00    -0.273 OA
ATOM     27  H5  UNL     1      -4.966  25.045  -4.507  1.00  0.00     0.162 HD
BRANCH  25  28
HETATM   28  C14 UNL     1      -6.089  26.908  -6.023  1.00  0.00     0.078 C
HETATM   29  C15 UNL     1      -6.856  28.180  -5.714  1.00  0.00     0.014 C
HETATM   30  C16 UNL     1      -8.136  28.113  -6.548  1.00  0.00     0.001 C
HETATM   31  C17 UNL     1      -8.987  27.026  -5.893  1.00  0.00     0.000 C
HETATM   32  C18 UNL     1      -8.276  25.707  -6.024  1.00  0.00     0.001 C
HETATM   33  C19 UNL     1      -6.871  25.745  -5.510  1.00  0.00     0.014 C
ENDBRANCH  25  28
ENDBRANCH  23  24
ENDBRANCH  22  23
ENDBRANCH  20  22
ENDBRANCH   1  18
TORSDOF 6
ENDMDL