MODEL 5
REMARK VINA RESULT: -7.268160072      2.292      3.617
REMARK  8 active torsions:
REMARK  status: ('A' for Active; 'I' for Inactive)
REMARK    1  A    between atoms: C2_2  and  S1_4
REMARK    2  A    between atoms: S1_4  and  N1_7
REMARK       I    between atoms: N1_7  and  C4_9
REMARK       I    between atoms: C4_9  and  N2_11
REMARK    3  A    between atoms: C8_15  and  C9_16
REMARK    4  A    between atoms: C9_16  and  N3_17
REMARK       I    between atoms: N3_17  and  C10_19
REMARK    5  A    between atoms: C10_19  and  C11_21
REMARK       I    between atoms: C11_21  and  N4_23
REMARK    6  A    between atoms: N4_23  and  C12_25
REMARK    7  A    between atoms: C12_25  and  C13_26
REMARK    8  A    between atoms: C13_26  and  C14_27
ROOT
HETATM    1  N1  UNL     1      -7.338  31.382   0.458  1.00  0.00    -0.235 N
ATOM      2  H1  UNL     1      -8.285  31.488   0.823  1.00  0.00     0.183 HD
HETATM    3  C4  UNL     1      -6.839  30.064   0.309  1.00  0.00     0.332 C
HETATM    4  O3  UNL     1      -5.650  29.986  -0.154  1.00  0.00    -0.246 OA
HETATM    5  N2  UNL     1      -7.625  28.961   0.657  1.00  0.00    -0.327 N
HETATM    6  C5  UNL     1      -8.968  29.005   1.180  1.00  0.00     0.128 C
HETATM    7  C6  UNL     1      -8.942  27.919   2.240  1.00  0.00     0.022 C
HETATM    8  C7  UNL     1      -7.635  27.128   1.972  1.00  0.00     0.028 C
HETATM    9  C8  UNL     1      -7.316  27.522   0.582  1.00  0.00     0.106 C
ENDROOT
BRANCH   9  10
HETATM   10  C9  UNL     1      -5.995  27.252   0.005  1.00  0.00     0.148 C
BRANCH  10  11
HETATM   11  N3  UNL     1      -5.955  27.110  -1.417  1.00  0.00    -0.351 N
HETATM   12  C10 UNL     1      -4.871  26.945  -2.270  1.00  0.00     0.309 C
HETATM   13  O4  UNL     1      -3.691  26.927  -1.911  1.00  0.00    -0.262 OA
ATOM     14  H3  UNL     1      -6.865  27.134  -1.877  1.00  0.00     0.162 HD
BRANCH  12  15
HETATM   15  C11 UNL     1      -5.094  26.773  -3.737  1.00  0.00     0.313 C
HETATM   16  O5  UNL     1      -4.267  27.265  -4.523  1.00  0.00    -0.262 OA
HETATM   17  N4  UNL     1      -6.229  26.065  -4.175  1.00  0.00    -0.329 N
ATOM     18  H4  UNL     1      -6.803  25.741  -3.397  1.00  0.00     0.168 HD
BRANCH  17  19
HETATM   19  C12 UNL     1      -6.761  25.698  -5.403  1.00  0.00     0.088 C
BRANCH  19  20
HETATM   20  C13 UNL     1      -7.992  26.153  -6.016  1.00  0.00    -0.001 C
BRANCH  20  21
HETATM   21  C14 UNL     1      -8.482  27.526  -6.108  1.00  0.00    -0.032 C
HETATM   22  C15 UNL     1      -9.560  27.876  -5.090  1.00  0.00     0.018 C
HETATM   23  C16 UNL     1      -9.326  27.564  -7.468  1.00  0.00     0.018 C
HETATM   24  C17 UNL     1      -7.500  28.630  -6.317  1.00  0.00     0.018 C
ENDBRANCH  20  21
ENDBRANCH  19  20
ENDBRANCH  17  19
ENDBRANCH  12  15
ENDBRANCH  10  11
ENDBRANCH   9  10
BRANCH   1  25
HETATM   25  S1  UNL     1      -6.472  32.816   0.070  1.00  0.00     0.237 S
HETATM   26  O1  UNL     1      -6.879  33.403  -1.251  1.00  0.00    -0.205 OA
HETATM   27  O2  UNL     1      -4.975  32.561  -0.011  1.00  0.00    -0.205 OA
BRANCH  25  28
HETATM   28  C2  UNL     1      -6.718  34.057   1.329  1.00  0.00     0.121 C
HETATM   29  C1  UNL     1      -6.639  33.382   2.680  1.00  0.00     0.027 C
HETATM   30  C3  UNL     1      -8.082  34.677   1.200  1.00  0.00     0.027 C
ENDBRANCH  25  28
ENDBRANCH   1  25
TORSDOF 8
ENDMDL