MODEL 1
REMARK VINA RESULT: -7.145302198      0.000      0.000
REMARK  8 active torsions:
REMARK  status: ('A' for Active; 'I' for Inactive)
REMARK    1  A    between atoms: C2_2  and  C4_4
REMARK    2  A    between atoms: C4_4  and  N1_5
REMARK    3  A    between atoms: C4_4  and  C15_22
REMARK       I    between atoms: N1_5  and  C5_7
REMARK    4  A    between atoms: C5_7  and  C6_9
REMARK    5  A    between atoms: C6_9  and  N2_10
REMARK       I    between atoms: N2_10  and  C7_12
REMARK    6  A    between atoms: C7_12  and  O3_14
REMARK    7  A    between atoms: O3_14  and  C8_15
REMARK       I    between atoms: C15_22  and  N3_24
REMARK    8  A    between atoms: C19_28  and  C20_29
ROOT
HETATM    1  N1  UNL     1      -8.036  28.154  -0.651  1.00  0.00    -0.345 N
ATOM      2  H1  UNL     1      -7.376  27.379  -0.593  1.00  0.00     0.163 HD
HETATM    3  C5  UNL     1      -8.647  28.431  -1.889  1.00  0.00     0.247 C
HETATM    4  O1  UNL     1      -9.462  29.415  -1.918  1.00  0.00    -0.271 OA
ENDROOT
BRANCH   1   5
HETATM    5  C4  UNL     1      -8.308  28.928   0.551  1.00  0.00     0.180 C
BRANCH   5   6
HETATM    6  C2  UNL     1      -7.848  28.135   1.768  1.00  0.00     0.009 C
HETATM    7  C1  UNL     1      -7.596  26.677   1.374  1.00  0.00     0.012 C
HETATM    8  C3  UNL     1      -8.910  28.109   2.842  1.00  0.00     0.012 C
ENDBRANCH   5   6
BRANCH   5   9
HETATM    9  C15 UNL     1      -7.628  30.268   0.527  1.00  0.00     0.243 C
HETATM   10  O4  UNL     1      -6.415  30.205   0.201  1.00  0.00    -0.271 OA
HETATM   11  N3  UNL     1      -8.290  31.456   0.839  1.00  0.00    -0.337 N
HETATM   12  C16 UNL     1      -9.746  31.487   1.099  1.00  0.00     0.127 C
HETATM   13  C19 UNL     1      -7.876  32.788   0.979  1.00  0.00     0.176 C
HETATM   14  C17 UNL     1      -9.783  32.301   2.367  1.00  0.00     0.022 C
HETATM   15  C18 UNL     1      -8.586  33.186   2.324  1.00  0.00     0.036 C
BRANCH  13  16
HETATM   16  C20 UNL     1      -6.473  33.132   1.158  1.00  0.00     0.254 C
HETATM   17  N4  UNL     1      -5.785  33.726   0.010  1.00  0.00    -0.060 NA
HETATM   18  O5  UNL     1      -5.793  32.980   2.167  1.00  0.00    -0.275 OA
ENDBRANCH  13  16
ENDBRANCH   5   9
ENDBRANCH   1   5
BRANCH   3  19
HETATM   19  C6  UNL     1      -8.419  27.668  -3.147  1.00  0.00     0.119 A
HETATM   20  C12 UNL     1      -9.488  27.751  -4.224  1.00  0.00     0.048 A
HETATM   21  C13 UNL     1      -9.292  26.500  -3.460  1.00  0.00     0.022 A
HETATM   22  C14 UNL     1     -10.435  26.106  -2.548  1.00  0.00     0.013 C
BRANCH  19  23
HETATM   23  N2  UNL     1      -7.032  27.554  -3.557  1.00  0.00    -0.318 N
HETATM   24  C7  UNL     1      -6.068  26.724  -2.960  1.00  0.00     0.362 C
HETATM   25  O2  UNL     1      -6.244  25.946  -1.990  1.00  0.00    -0.238 OA
ATOM     26  H2  UNL     1      -6.731  28.126  -4.345  1.00  0.00     0.166 HD
BRANCH  24  27
HETATM   27  O3  UNL     1      -4.766  26.745  -3.478  1.00  0.00    -0.294 OA
BRANCH  27  28
HETATM   28  C8  UNL     1      -4.509  26.467  -4.855  1.00  0.00     0.061 C
HETATM   29  C9  UNL     1      -4.554  27.764  -5.594  1.00  0.00     0.046 C
HETATM   30  C10 UNL     1      -3.165  25.778  -4.907  1.00  0.00     0.046 C
HETATM   31  C11 UNL     1      -5.594  25.507  -5.358  1.00  0.00     0.046 C
ENDBRANCH  27  28
ENDBRANCH  24  27
ENDBRANCH  19  23
ENDBRANCH   3  19
TORSDOF 8
ENDMDL