MODEL 2
REMARK VINA RESULT: -5.929926282      1.971      5.404
REMARK  13 active torsions:
REMARK  status: ('A' for Active; 'I' for Inactive)
REMARK    1  A    between atoms: C2_2  and  N1_3
REMARK    2  A    between atoms: N1_3  and  C4_5
REMARK    3  A    between atoms: N2_7  and  C5_9
REMARK    4  A    between atoms: C5_9  and  N3_10
REMARK    5  A    between atoms: C5_9  and  C12_23
REMARK    6  A    between atoms: N3_10  and  C6_11
REMARK    7  A    between atoms: C6_11  and  O1_12
REMARK    8  A    between atoms: C6_11  and  O2_14
REMARK    9  A    between atoms: O2_14  and  C7_15
REMARK   10  A    between atoms: C7_15  and  C8_16
REMARK       I    between atoms: C12_23  and  N5_25
REMARK   11  A    between atoms: N5_25  and  C13_27
REMARK   12  A    between atoms: C13_27  and  C14_28
REMARK   13  A    between atoms: C14_28  and  N6_29
ROOT
HETATM    1  C5  UNL     1      -7.044  28.154  -0.516  1.00  0.00     0.254 C
ENDROOT
BRANCH   1   2
HETATM    2  N2  UNL     1      -7.559  29.284   0.122  1.00  0.00    -0.306 N
HETATM    3  C4  UNL     1      -7.355  30.563   0.556  1.00  0.00     0.155 C
HETATM    4  S1  UNL     1      -8.775  31.264   1.333  1.00  0.00    -0.013 SA
ATOM      5  H2  UNL     1      -8.518  29.049   0.381  1.00  0.00     0.170 HD
BRANCH   3   6
HETATM    6  N1  UNL     1      -6.339  31.504   0.544  1.00  0.00    -0.366 N
HETATM    7  C3  UNL     1      -6.529  32.795  -0.195  1.00  0.00     0.151 C
BRANCH   6   8
HETATM    8  C2  UNL     1      -5.063  31.374   1.223  1.00  0.00     0.120 C
HETATM    9  C1  UNL     1      -5.253  31.868   2.677  1.00  0.00     0.026 C
ENDBRANCH   6   8
ENDBRANCH   3   6
ENDBRANCH   1   2
BRANCH   1  10
HETATM   10  N3  UNL     1      -5.861  28.038  -0.680  1.00  0.00    -0.335 NA
BRANCH  10  11
HETATM   11  C6  UNL     1      -4.587  27.879  -0.855  1.00  0.00     0.343 C
BRANCH  11  12
HETATM   12  O1  UNL     1      -3.665  28.797  -0.640  1.00  0.00    -0.315 OA
ATOM     13  H1  UNL     1      -3.297  29.021   0.207  1.00  0.00     0.222 HD
ENDBRANCH  11  12
BRANCH  11  14
HETATM   14  O2  UNL     1      -3.953  26.681  -1.318  1.00  0.00    -0.303 OA
BRANCH  14  15
HETATM   15  C7  UNL     1      -4.672  25.924  -2.315  1.00  0.00     0.213 C
BRANCH  15  16
HETATM   16  C8  UNL     1      -4.618  26.575  -3.635  1.00  0.00     0.210 C
HETATM   17  C9  UNL     1      -6.000  26.913  -4.152  1.00  0.00     0.037 C
HETATM   18  C10 UNL     1      -5.864  26.735  -5.642  1.00  0.00     0.029 C
HETATM   19  C11 UNL     1      -4.968  25.474  -5.646  1.00  0.00     0.233 C
HETATM   20  N4  UNL     1      -3.984  25.768  -4.657  1.00  0.00    -0.069 N
ATOM     21  H42 UNL     1      -3.148  26.205  -5.046  1.00  0.00     0.277 HD
ATOM     22  H41 UNL     1      -3.536  24.932  -4.282  1.00  0.00     0.277 HD
ENDBRANCH  15  16
ENDBRANCH  14  15
ENDBRANCH  11  14
ENDBRANCH  10  11
ENDBRANCH   1  10
BRANCH   1  23
HETATM   23  C12 UNL     1      -7.932  27.009  -0.923  1.00  0.00     0.303 C
HETATM   24  O3  UNL     1      -7.789  25.870  -0.472  1.00  0.00    -0.263 OA
HETATM   25  N5  UNL     1      -8.960  27.269  -1.862  1.00  0.00    -0.332 N
ATOM     26  H5  UNL     1      -9.008  28.240  -2.172  1.00  0.00     0.168 HD
BRANCH  25  27
HETATM   27  C13 UNL     1      -9.926  26.427  -2.443  1.00  0.00     0.084 C
BRANCH  27  28
HETATM   28  C14 UNL     1     -10.635  26.919  -3.664  1.00  0.00     0.166 C
BRANCH  28  29
HETATM   29  N6  UNL     1      -9.845  26.733  -4.848  1.00  0.00    -0.389 N
HETATM   30  C15 UNL     1     -10.152  25.674  -5.707  1.00  0.00     0.058 C
HETATM   31  C16 UNL     1      -9.251  25.912  -6.909  1.00  0.00     0.046 C
HETATM   32  C17 UNL     1      -9.355  27.435  -7.040  1.00  0.00     0.025 C
HETATM   33  C18 UNL     1      -9.414  27.854  -5.568  1.00  0.00     0.122 C
ENDBRANCH  28  29
ENDBRANCH  27  28
ENDBRANCH  25  27
ENDBRANCH   1  23
TORSDOF 13
ENDMDL