MODEL 2
REMARK VINA RESULT: -7.868587016      1.174      1.294
REMARK  6 active torsions:
REMARK  status: ('A' for Active; 'I' for Inactive)
REMARK    1  A    between atoms: S1_2  and  N1_5
REMARK       I    between atoms: N1_5  and  C2_7
REMARK    2  A    between atoms: C2_7  and  C3_9
REMARK    3  A    between atoms: C3_9  and  N2_10
REMARK       I    between atoms: N2_10  and  C4_12
REMARK    4  A    between atoms: C4_12  and  C5_14
REMARK    5  A    between atoms: C5_14  and  C6_15
REMARK       I    between atoms: N3_19  and  C10_20
REMARK       I    between atoms: C10_20  and  N4_22
REMARK    6  A    between atoms: N4_22  and  C11_24
ROOT
HETATM    1  C5  UNL     1      -7.483  26.262   0.364  1.00  0.00     0.109 C
ENDROOT
BRANCH   1   2
HETATM    2  C4  UNL     1      -7.845  27.533   0.989  1.00  0.00     0.219 C
HETATM    3  N2  UNL     1      -8.565  28.561   0.302  1.00  0.00    -0.343 N
ATOM      4  H2  UNL     1      -8.825  28.388  -0.669  1.00  0.00     0.163 HD
HETATM    5  O4  UNL     1      -7.534  27.794   2.186  1.00  0.00    -0.274 OA
BRANCH   3   6
HETATM    6  C3  UNL     1      -8.947  29.818   0.879  1.00  0.00     0.115 A
HETATM    7  C17 UNL     1      -9.891  29.822   2.054  1.00  0.00     0.044 A
HETATM    8  C18 UNL     1     -10.424  30.213   0.749  1.00  0.00     0.044 A
BRANCH   6   9
HETATM    9  C2  UNL     1      -8.036  30.965   0.777  1.00  0.00     0.259 C
HETATM   10  N1  UNL     1      -7.994  31.927  -0.244  1.00  0.00    -0.253 N
ATOM     11  H1  UNL     1      -8.657  31.844  -1.014  1.00  0.00     0.181 HD
HETATM   12  O3  UNL     1      -7.178  31.116   1.715  1.00  0.00    -0.270 OA
BRANCH  10  13
HETATM   13  S1  UNL     1      -6.880  33.243  -0.264  1.00  0.00     0.229 S
HETATM   14  C1  UNL     1      -7.144  34.347   1.091  1.00  0.00     0.186 C
HETATM   15  O1  UNL     1      -5.472  32.725  -0.238  1.00  0.00    -0.206 OA
HETATM   16  O2  UNL     1      -7.008  34.034  -1.559  1.00  0.00    -0.206 OA
ENDBRANCH  10  13
ENDBRANCH   6   9
ENDBRANCH   3   6
ENDBRANCH   1   2
BRANCH   1  17
HETATM   17  C6  UNL     1      -6.546  26.334  -0.784  1.00  0.00     0.012 C
HETATM   18  C7  UNL     1      -5.398  27.274  -0.648  1.00  0.00     0.008 C
HETATM   19  C8  UNL     1      -4.383  26.917  -1.730  1.00  0.00     0.020 C
HETATM   20  C9  UNL     1      -4.893  25.912  -2.715  1.00  0.00     0.127 C
HETATM   21  N3  UNL     1      -6.237  26.239  -3.135  1.00  0.00    -0.334 N
HETATM   22  C10 UNL     1      -6.569  26.232  -4.515  1.00  0.00     0.318 C
HETATM   23  C16 UNL     1      -7.224  26.568  -2.116  1.00  0.00     0.132 C
HETATM   24  O5  UNL     1      -5.698  25.943  -5.367  1.00  0.00    -0.247 OA
HETATM   25  N4  UNL     1      -7.879  26.546  -4.960  1.00  0.00    -0.338 N
ATOM     26  H4  UNL     1      -8.596  26.783  -4.273  1.00  0.00     0.164 HD
BRANCH  25  27
HETATM   27  C11 UNL     1      -8.218  26.539  -6.363  1.00  0.00     0.086 C
HETATM   28  C12 UNL     1      -8.922  27.781  -6.810  1.00  0.00     0.025 C
HETATM   29  C13 UNL     1     -10.057  27.367  -7.717  1.00  0.00     0.002 C
HETATM   30  C14 UNL     1      -9.768  25.905  -8.002  1.00  0.00     0.002 C
HETATM   31  C15 UNL     1      -9.259  25.453  -6.631  1.00  0.00     0.025 C
ENDBRANCH  25  27
ENDBRANCH   1  17
TORSDOF 6
ENDMDL