MODEL 2
REMARK VINA RESULT: -7.018262461      1.486      1.893
REMARK  8 active torsions:
REMARK  status: ('A' for Active; 'I' for Inactive)
REMARK    1  A    between atoms: C2_2  and  O1_5
REMARK    2  A    between atoms: O1_5  and  C5_6
REMARK       I    between atoms: C5_6  and  N1_8
REMARK    3  A    between atoms: C8_11  and  C9_12
REMARK       I    between atoms: C9_12  and  N2_14
REMARK    4  A    between atoms: N2_14  and  C10_16
REMARK    5  A    between atoms: C10_16  and  C11_17
REMARK       I    between atoms: C11_17  and  N3_19
REMARK    6  A    between atoms: N3_19  and  C12_21
REMARK    7  A    between atoms: C12_21  and  C13_22
REMARK       I    between atoms: C13_22  and  N4_24
REMARK    8  A    between atoms: N4_24  and  C14_26
ROOT
HETATM    1  C9  UNL     1      -4.737  26.159  -3.546  1.00  0.00     0.223 C
HETATM    2  O3  UNL     1      -4.277  26.952  -2.687  1.00  0.00    -0.273 OA
HETATM    3  N2  UNL     1      -5.400  24.991  -3.087  1.00  0.00    -0.352 N
ATOM      4  H2  UNL     1      -5.767  24.341  -3.782  1.00  0.00     0.162 HD
ENDROOT
BRANCH   3   5
HETATM    5  C10 UNL     1      -5.582  24.675  -1.700  1.00  0.00     0.225 C
BRANCH   5   6
HETATM    6  C11 UNL     1      -6.693  25.407  -1.102  1.00  0.00     0.235 C
HETATM    7  O4  UNL     1      -7.866  24.973  -1.374  1.00  0.00    -0.272 OA
HETATM    8  N3  UNL     1      -6.582  26.524  -0.276  1.00  0.00    -0.351 N
ATOM      9  H3  UNL     1      -5.652  26.886  -0.068  1.00  0.00     0.163 HD
BRANCH   8  10
HETATM   10  C12 UNL     1      -7.737  27.197   0.302  1.00  0.00     0.225 C
BRANCH  10  11
HETATM   11  C13 UNL     1      -7.706  28.645   0.059  1.00  0.00     0.235 C
HETATM   12  O5  UNL     1      -8.262  29.135  -0.949  1.00  0.00    -0.272 OA
HETATM   13  N4  UNL     1      -7.049  29.552   0.949  1.00  0.00    -0.355 N
ATOM     14  H4  UNL     1      -6.587  29.184   1.779  1.00  0.00     0.162 HD
BRANCH  13  15
HETATM   15  C14 UNL     1      -7.024  30.977   0.704  1.00  0.00     0.084 C
HETATM   16  C15 UNL     1      -8.127  31.663   1.455  1.00  0.00     0.025 C
HETATM   17  C16 UNL     1      -7.890  33.139   1.626  1.00  0.00     0.002 C
HETATM   18  C17 UNL     1      -6.572  33.465   2.258  1.00  0.00     0.000 C
HETATM   19  C18 UNL     1      -5.794  32.182   2.435  1.00  0.00     0.002 C
HETATM   20  C19 UNL     1      -5.671  31.550   1.057  1.00  0.00     0.025 C
ENDBRANCH  13  15
ENDBRANCH  10  11
ENDBRANCH   8  10
ENDBRANCH   5   6
ENDBRANCH   3   5
BRANCH   1  21
HETATM   21  C8  UNL     1      -4.573  26.467  -4.968  1.00  0.00     0.097 C
HETATM   22  C7  UNL     1      -5.185  25.421  -5.872  1.00  0.00     0.035 C
HETATM   23  C6  UNL     1      -6.525  25.968  -6.198  1.00  0.00     0.129 C
HETATM   24  N1  UNL     1      -6.544  27.354  -5.783  1.00  0.00    -0.327 N
HETATM   25  C5  UNL     1      -7.730  28.166  -5.751  1.00  0.00     0.363 C
HETATM   26  C20 UNL     1      -5.201  27.739  -5.427  1.00  0.00     0.142 C
HETATM   27  O2  UNL     1      -7.688  29.371  -5.380  1.00  0.00    -0.238 OA
BRANCH  25  28
HETATM   28  O1  UNL     1      -8.964  27.668  -6.124  1.00  0.00    -0.294 OA
BRANCH  28  29
HETATM   29  C2  UNL     1      -9.922  27.119  -5.268  1.00  0.00     0.061 C
HETATM   30  C1  UNL     1      -9.466  26.923  -3.858  1.00  0.00     0.046 C
HETATM   31  C3  UNL     1     -11.207  27.920  -5.235  1.00  0.00     0.046 C
HETATM   32  C4  UNL     1     -10.294  25.743  -5.831  1.00  0.00     0.046 C
ENDBRANCH  28  29
ENDBRANCH  25  28
ENDBRANCH   1  21
TORSDOF 8
ENDMDL