MODEL 5
REMARK VINA RESULT: -6.645151289      2.896      7.995
REMARK  7 active torsions:
REMARK  status: ('A' for Active; 'I' for Inactive)
REMARK    1  A    between atoms: C2_2  and  C5_5
REMARK       I    between atoms: C5_5  and  N1_7
REMARK    2  A    between atoms: N1_7  and  C6_9
REMARK    3  A    between atoms: C6_9  and  C7_10
REMARK       I    between atoms: C7_10  and  N2_12
REMARK    4  A    between atoms: N2_12  and  C8_14
REMARK    5  A    between atoms: C8_14  and  C9_15
REMARK       I    between atoms: C9_15  and  N3_17
REMARK    6  A    between atoms: C12_20  and  C13_21
REMARK    7  A    between atoms: C12_20  and  N4_24
ROOT
HETATM    1  C9  UNL     1      -8.258  27.747   1.793  1.00  0.00     0.237 C
HETATM    2  O3  UNL     1      -7.474  27.389   2.704  1.00  0.00    -0.272 OA
HETATM    3  N3  UNL     1      -7.858  27.660   0.448  1.00  0.00    -0.351 N
HETATM    4  C10 UNL     1      -8.720  28.056  -0.644  1.00  0.00     0.129 C
HETATM    5  C11 UNL     1      -8.134  27.811  -1.990  1.00  0.00     0.062 C
HETATM    6  C12 UNL     1      -7.441  26.486  -2.175  1.00  0.00     0.123 C
HETATM    7  C19 UNL     1      -6.633  26.093  -0.955  1.00  0.00     0.062 C
HETATM    8  C20 UNL     1      -6.557  27.168   0.099  1.00  0.00     0.129 C
ENDROOT
BRANCH   1   9
HETATM    9  C8  UNL     1      -9.597  28.257   2.111  1.00  0.00     0.225 C
BRANCH   9  10
HETATM   10  N2  UNL     1      -9.502  29.648   2.522  1.00  0.00    -0.351 N
HETATM   11  C7  UNL     1     -10.519  30.547   2.206  1.00  0.00     0.235 C
HETATM   12  O2  UNL     1     -11.525  30.096   1.547  1.00  0.00    -0.272 OA
ATOM     13  H2  UNL     1      -8.686  29.968   3.043  1.00  0.00     0.163 HD
BRANCH  11  14
HETATM   14  C6  UNL     1     -10.521  31.955   2.570  1.00  0.00     0.225 C
BRANCH  14  15
HETATM   15  N1  UNL     1      -9.223  32.496   2.833  1.00  0.00    -0.352 N
HETATM   16  C5  UNL     1      -8.503  33.119   1.752  1.00  0.00     0.225 C
HETATM   17  O1  UNL     1      -9.007  33.184   0.599  1.00  0.00    -0.273 OA
ATOM     18  H1  UNL     1      -8.815  32.442   3.767  1.00  0.00     0.162 HD
BRANCH  16  19
HETATM   19  C2  UNL     1      -7.165  33.673   2.042  1.00  0.00     0.030 C
HETATM   20  C1  UNL     1      -6.194  32.553   2.345  1.00  0.00     0.024 C
HETATM   21  C3  UNL     1      -6.662  34.546   0.907  1.00  0.00     0.024 C
HETATM   22  C4  UNL     1      -7.282  34.592   3.258  1.00  0.00     0.024 C
ENDBRANCH  16  19
ENDBRANCH  14  15
ENDBRANCH  11  14
ENDBRANCH   9  10
ENDBRANCH   1   9
BRANCH   6  23
HETATM   23  C13 UNL     1      -8.477  25.436  -2.301  1.00  0.00     0.202 C
HETATM   24  O4  UNL     1      -8.214  24.210  -2.235  1.00  0.00    -0.646 OA
HETATM   25  O5  UNL     1      -9.787  25.782  -2.499  1.00  0.00    -0.646 OA
ENDBRANCH   6  23
BRANCH   6  26
HETATM   26  N4  UNL     1      -6.577  26.446  -3.290  1.00  0.00    -0.374 N
HETATM   27  C14 UNL     1      -5.374  25.703  -3.201  1.00  0.00     0.123 C
HETATM   28  C15 UNL     1      -4.347  26.427  -4.086  1.00  0.00     0.020 C
HETATM   29  C16 UNL     1      -4.791  26.166  -5.509  1.00  0.00     0.007 C
HETATM   30  C17 UNL     1      -6.235  25.726  -5.608  1.00  0.00     0.044 C
HETATM   31  C18 UNL     1      -7.107  26.460  -4.593  1.00  0.00     0.059 C
ENDBRANCH   6  26
TORSDOF 7
ENDMDL