MODEL 1
REMARK VINA RESULT: -7.455650076      0.000      0.000
REMARK  8 active torsions:
REMARK  status: ('A' for Active; 'I' for Inactive)
REMARK    1  A    between atoms: O1_2  and  C2_3
REMARK    2  A    between atoms: N1_6  and  S1_7
REMARK    3  A    between atoms: S1_7  and  N2_10
REMARK    4  A    between atoms: C7_13  and  C8_14
REMARK    5  A    between atoms: C8_14  and  C9_15
REMARK    6  A    between atoms: C9_15  and  N3_16
REMARK       I    between atoms: N3_16  and  C10_18
REMARK       I    between atoms: C10_18  and  N4_20
REMARK    7  A    between atoms: N4_20  and  C11_22
REMARK    8  A    between atoms: C11_22  and  C12_26
ROOT
HETATM    1  N2  UNL     1      -5.407  25.728  -3.050  1.00  0.00    -0.193 NA
HETATM    2  C5  UNL     1      -6.362  24.698  -2.816  1.00  0.00     0.109 C
HETATM    3  C6  UNL     1      -6.671  24.643  -1.290  1.00  0.00     0.020 C
HETATM    4  C7  UNL     1      -7.367  25.881  -0.877  1.00  0.00    -0.007 C
HETATM    5  C16 UNL     1      -6.790  27.063  -1.616  1.00  0.00     0.020 C
HETATM    6  C17 UNL     1      -5.413  26.768  -2.080  1.00  0.00     0.109 C
ENDROOT
BRANCH   4   7
HETATM    7  C8  UNL     1      -7.310  26.183   0.587  1.00  0.00     0.049 C
BRANCH   7   8
HETATM    8  C9  UNL     1      -8.124  27.318   1.089  1.00  0.00     0.066 C
BRANCH   8   9
HETATM    9  N3  UNL     1      -7.497  28.368   1.775  1.00  0.00    -0.322 N
HETATM   10  C10 UNL     1      -7.398  29.675   1.123  1.00  0.00     0.325 C
HETATM   11  O4  UNL     1      -7.898  29.718  -0.019  1.00  0.00    -0.247 OA
HETATM   12  N4  UNL     1      -6.775  30.728   1.799  1.00  0.00    -0.298 N
ATOM     13  H4  UNL     1      -6.435  30.474   2.725  1.00  0.00     0.172 HD
ATOM     14  H3  UNL     1      -7.118  28.225   2.712  1.00  0.00     0.169 HD
BRANCH  12  15
HETATM   15  C11 UNL     1      -6.528  32.056   1.458  1.00  0.00     0.086 C
HETATM   16  N5  UNL     1      -5.696  32.254   0.456  1.00  0.00    -0.388 N
ATOM     17  H52 UNL     1      -5.296  31.429   0.008  1.00  0.00     0.157 HD
ATOM     18  H51 UNL     1      -5.514  33.226   0.207  1.00  0.00     0.157 HD
BRANCH  15  19
HETATM   19  C12 UNL     1      -7.095  33.225   2.093  1.00  0.00     0.007 C
HETATM   20  C13 UNL     1      -6.547  33.476   3.498  1.00  0.00     0.022 C
HETATM   21  C14 UNL     1      -8.631  33.108   2.225  1.00  0.00     0.022 C
HETATM   22  C15 UNL     1      -6.891  34.467   1.252  1.00  0.00     0.022 C
ENDBRANCH  15  19
ENDBRANCH  12  15
ENDBRANCH   8   9
ENDBRANCH   7   8
ENDBRANCH   4   7
BRANCH   1  23
HETATM   23  S1  UNL     1      -5.487  26.352  -4.633  1.00  0.00     0.304 S
HETATM   24  O2  UNL     1      -5.057  25.291  -5.653  1.00  0.00    -0.188 OA
HETATM   25  O3  UNL     1      -4.434  27.455  -4.789  1.00  0.00    -0.188 OA
BRANCH  23  26
HETATM   26  N1  UNL     1      -7.001  26.908  -5.120  1.00  0.00    -0.275 N
HETATM   27  C4  UNL     1      -7.055  28.237  -5.611  1.00  0.00     0.144 C
HETATM   28  C3  UNL     1      -8.130  28.279  -6.681  1.00  0.00     0.058 C
HETATM   29  C2  UNL     1      -8.847  26.955  -6.581  1.00  0.00     0.161 C
HETATM   30  C18 UNL     1      -7.829  26.070  -5.895  1.00  0.00     0.109 C
BRANCH  29  31
HETATM   31  O1  UNL     1     -10.042  27.029  -5.915  1.00  0.00    -0.385 OA
HETATM   32  C1  UNL     1     -10.485  25.827  -5.405  1.00  0.00     0.202 C
ENDBRANCH  29  31
ENDBRANCH  23  26
ENDBRANCH   1  23
TORSDOF 8
ENDMDL