MODEL 1
REMARK VINA RESULT: -7.675271230      0.000      0.000
REMARK  7 active torsions:
REMARK  status: ('A' for Active; 'I' for Inactive)
REMARK    1  A    between atoms: C4_10  and  C5_11
REMARK    2  A    between atoms: C5_11  and  N4_12
REMARK    3  A    between atoms: N8_22  and  C9_23
REMARK    4  A    between atoms: N9_24  and  O2_25
REMARK    5  A    between atoms: N9_24  and  C10_27
REMARK    6  A    between atoms: C10_27  and  C11_28
REMARK    7  A    between atoms: C11_28  and  O3_29
ROOT
HETATM    1  N1  UNL     1      21.837   5.916   7.026  1.00  0.00    -0.190 NA
HETATM    2  C1  UNL     1      22.115   6.179   8.092  1.00  0.00     0.120 C
HETATM    3  C2  UNL     1      22.436   6.503   9.445  1.00  0.00     0.142 A
HETATM    4  N2  UNL     1      23.713   6.446   9.939  1.00  0.00    -0.298 N
ATOM      5  H2  UNL     1      24.556   6.193   9.422  1.00  0.00     0.171 HD
HETATM    6  C3  UNL     1      23.642   6.784  11.224  1.00  0.00     0.325 A
HETATM    7  O1  UNL     1      24.661   6.831  11.977  1.00  0.00    -0.247 OA
HETATM    8  N3  UNL     1      22.380   7.043  11.525  1.00  0.00    -0.308 N
ATOM      9  H3  UNL     1      22.051   7.327  12.447  1.00  0.00     0.170 HD
HETATM   10  C4  UNL     1      21.571   6.878  10.424  1.00  0.00     0.069 A
ENDROOT
BRANCH  10  11
HETATM   11  C5  UNL     1      20.139   7.127  10.492  1.00  0.00     0.193 C
BRANCH  11  12
HETATM   12  N4  UNL     1      19.362   6.295  11.357  1.00  0.00    -0.303 N
HETATM   13  C6  UNL     1      18.764   6.851  12.459  1.00  0.00     0.188 A
HETATM   14  N5  UNL     1      17.987   6.155  13.298  1.00  0.00    -0.335 N
HETATM   15  C7  UNL     1      17.762   4.854  13.077  1.00  0.00     0.164 A
ATOM     16  H5  UNL     1      17.566   6.615  14.105  1.00  0.00     0.168 HD
HETATM   17  C8  UNL     1      18.330   4.234  11.990  1.00  0.00     0.164 A
HETATM   18  N8  UNL     1      17.049   3.894  13.708  1.00  0.00    -0.217 N
HETATM   19  N6  UNL     1      17.954   2.942  11.992  1.00  0.00    -0.277 N
HETATM   20  C12 UNL     1      19.129   5.007  11.154  1.00  0.00     0.281 A
HETATM   21  N7  UNL     1      17.189   2.770  13.033  1.00  0.00    -0.233 N
ATOM     22  H6  UNL     1      18.218   2.232  11.309  1.00  0.00     0.189 HD
ATOM     23  H7  UNL     1      16.755   1.883  13.291  1.00  0.00     0.209 HD
HETATM   24  O4  UNL     1      19.633   4.380  10.174  1.00  0.00    -0.265 OA
BRANCH  18  25
HETATM   25  C9  UNL     1      16.289   4.105  14.900  1.00  0.00     0.236 C
HETATM   26  N9  UNL     1      16.735   3.710  16.034  1.00  0.00    -0.252 N
BRANCH  26  27
HETATM   27  O2  UNL     1      17.951   3.083  16.086  1.00  0.00    -0.287 OA
ATOM     28  H2  UNL     1      18.184   2.598  16.868  1.00  0.00     0.244 HD
ENDBRANCH  26  27
BRANCH  26  29
HETATM   29  C10 UNL     1      15.987   3.914  17.246  1.00  0.00     0.182 C
BRANCH  29  30
HETATM   30  C11 UNL     1      14.856   2.947  17.409  1.00  0.00     0.186 C
BRANCH  30  31
HETATM   31  O3  UNL     1      15.302   1.619  17.252  1.00  0.00    -0.399 OA
ATOM     32  H3  UNL     1      15.557   1.451  16.353  1.00  0.00     0.209 HD
ENDBRANCH  30  31
ENDBRANCH  29  30
ENDBRANCH  26  29
ENDBRANCH  18  25
ENDBRANCH  11  12
ENDBRANCH  10  11
TORSDOF 7
ENDMDL