MODEL 5
REMARK VINA RESULT: -7.104318285      1.849      2.374
REMARK  8 active torsions:
REMARK  status: ('A' for Active; 'I' for Inactive)
REMARK    1  A    between atoms: N1_7  and  C6_8
REMARK    2  A    between atoms: C6_8  and  N2_9
REMARK    3  A    between atoms: N2_9  and  C7_11
REMARK    4  A    between atoms: N7_23  and  C11_24
REMARK    5  A    between atoms: C11_24  and  C12_25
REMARK    6  A    between atoms: C12_25  and  O2_26
REMARK    7  A    between atoms: C12_25  and  C13_28
REMARK    8  A    between atoms: C13_28  and  O3_29
ROOT
HETATM    1  C1  UNL     1      19.489  12.687  14.373  1.00  0.00     0.019 C
HETATM    2  C2  UNL     1      19.528  11.722  13.653  1.00  0.00    -0.059 C
HETATM    3  C3  UNL     1      19.562  10.570  12.774  1.00  0.00     0.092 A
HETATM    4  C4  UNL     1      20.531   9.596  12.910  1.00  0.00     0.113 A
HETATM    5  C5  UNL     1      20.540   8.510  12.062  1.00  0.00     0.252 A
HETATM    6  O1  UNL     1      21.416   7.591  12.156  1.00  0.00    -0.268 OA
HETATM    7  N1  UNL     1      19.592   8.426  11.110  1.00  0.00    -0.294 N
HETATM    8  C14 UNL     1      18.646   9.378  10.978  1.00  0.00     0.188 A
HETATM    9  N8  UNL     1      18.656  10.429  11.816  1.00  0.00    -0.345 N
ATOM     10  H8  UNL     1      17.937  11.145  11.712  1.00  0.00     0.167 HD
ENDROOT
BRANCH   7  11
HETATM   11  C6  UNL     1      19.587   7.295  10.213  1.00  0.00     0.257 C
BRANCH  11  12
HETATM   12  N2  UNL     1      19.468   6.041  10.875  1.00  0.00    -0.358 N
ATOM     13  H2  UNL     1      20.332   5.516  11.008  1.00  0.00     0.162 HD
BRANCH  12  14
HETATM   14  C7  UNL     1      18.402   5.502  11.322  1.00  0.00     0.136 A
HETATM   15  N3  UNL     1      17.466   4.915  10.594  1.00  0.00    -0.337 N
HETATM   16  C8  UNL     1      16.382   4.375  11.150  1.00  0.00     0.183 A
ATOM     17  H3  UNL     1      17.577   4.876   9.581  1.00  0.00     0.168 HD
HETATM   18  N4  UNL     1      16.211   4.413  12.472  1.00  0.00    -0.335 N
HETATM   19  C9  UNL     1      17.120   4.991  13.271  1.00  0.00     0.157 A
ATOM     20  H4  UNL     1      15.375   3.996  12.882  1.00  0.00     0.168 HD
HETATM   21  C10 UNL     1      18.225   5.541  12.703  1.00  0.00     0.139 A
HETATM   22  N7  UNL     1      17.211   5.172  14.597  1.00  0.00    -0.258 N
HETATM   23  N5  UNL     1      18.957   6.042  13.706  1.00  0.00    -0.279 N
HETATM   24  N6  UNL     1      18.334   5.814  14.848  1.00  0.00    -0.238 N
ATOM     25  H5  UNL     1      19.851   6.521  13.604  1.00  0.00     0.189 HD
ATOM     26  H6  UNL     1      18.668   6.088  15.772  1.00  0.00     0.208 HD
BRANCH  22  27
HETATM   27  C11 UNL     1      16.210   4.717  15.541  1.00  0.00     0.186 C
BRANCH  27  28
HETATM   28  C12 UNL     1      16.525   3.306  16.011  1.00  0.00     0.161 C
BRANCH  28  29
HETATM   29  O2  UNL     1      17.878   3.253  16.327  1.00  0.00    -0.392 OA
ATOM     30  H2  UNL     1      18.179   2.365  16.172  1.00  0.00     0.210 HD
ENDBRANCH  28  29
BRANCH  28  31
HETATM   31  C13 UNL     1      15.676   3.048  17.246  1.00  0.00     0.197 C
BRANCH  31  32
HETATM   32  O3  UNL     1      15.351   1.695  17.264  1.00  0.00    -0.398 OA
ATOM     33  H3  UNL     1      14.409   1.624  17.365  1.00  0.00     0.209 HD
ENDBRANCH  31  32
ENDBRANCH  28  31
ENDBRANCH  27  28
ENDBRANCH  22  27
ENDBRANCH  12  14
ENDBRANCH  11  12
ENDBRANCH   7  11
TORSDOF 8
ENDMDL