MODEL 3
REMARK VINA RESULT: -7.408038743      2.958      4.833
REMARK  7 active torsions:
REMARK  status: ('A' for Active; 'I' for Inactive)
REMARK    1  A    between atoms: C3_4  and  N2_5
REMARK    2  A    between atoms: C4_6  and  C5_7
REMARK    3  A    between atoms: C5_7  and  N3_8
REMARK    4  A    between atoms: C7_14  and  C8_15
REMARK    5  A    between atoms: C8_15  and  O3_16
REMARK    6  A    between atoms: C9_18  and  S1_19
REMARK    7  A    between atoms: C11_27  and  N7_28
ROOT
HETATM    1  N1  UNL     1      14.830   4.619  10.947  1.00  0.00    -0.191 NA
HETATM    2  C1  UNL     1      15.940   4.365  11.078  1.00  0.00     0.107 C
HETATM    3  C2  UNL     1      17.328   4.076  11.223  1.00  0.00     0.132 A
HETATM    4  C3  UNL     1      18.118   4.700  12.132  1.00  0.00     0.136 A
HETATM    5  N5  UNL     1      19.434   4.313  12.126  1.00  0.00    -0.337 N
ATOM      6  H5  UNL     1      20.077   4.747  12.788  1.00  0.00     0.168 HD
HETATM    7  C10 UNL     1      19.907   3.382  11.278  1.00  0.00     0.183 A
HETATM    8  N6  UNL     1      19.123   2.765  10.378  1.00  0.00    -0.338 N
ATOM      9  H6  UNL     1      19.501   2.062   9.744  1.00  0.00     0.168 HD
HETATM   10  C11 UNL     1      17.832   3.104  10.342  1.00  0.00     0.124 A
ENDROOT
BRANCH   4  11
HETATM   11  N2  UNL     1      17.782   5.671  13.083  1.00  0.00    -0.299 N
HETATM   12  C4  UNL     1      16.885   5.340  14.167  1.00  0.00     0.106 C
HETATM   13  N4  UNL     1      16.093   6.297  14.558  1.00  0.00    -0.377 N
HETATM   14  C6  UNL     1      16.008   7.619  14.045  1.00  0.00     0.130 C
ATOM     15  H4  UNL     1      15.457   6.070  15.323  1.00  0.00     0.160 HD
HETATM   16  C7  UNL     1      16.949   7.960  12.945  1.00  0.00     0.066 C
HETATM   17  C9  UNL     1      18.180   7.061  13.026  1.00  0.00     0.238 C
BRANCH  12  18
HETATM   18  C5  UNL     1      16.822   4.022  14.814  1.00  0.00     0.277 C
BRANCH  18  19
HETATM   19  N3  UNL     1      17.249   3.948  16.164  1.00  0.00    -0.148 N
HETATM   20  O1  UNL     1      18.439   3.842  16.471  1.00  0.00    -0.536 OA
HETATM   21  O2  UNL     1      16.319   3.997  17.168  1.00  0.00    -0.536 OA
ENDBRANCH  18  19
ENDBRANCH  12  18
BRANCH  16  22
HETATM   22  C8  UNL     1      16.325   8.063  11.605  1.00  0.00     0.173 C
BRANCH  22  23
HETATM   23  O3  UNL     1      15.334   9.077  11.723  1.00  0.00    -0.400 OA
ATOM     24  H3  UNL     1      14.593   8.661  12.145  1.00  0.00     0.209 HD
ENDBRANCH  22  23
ENDBRANCH  16  22
BRANCH  17  25
HETATM   25  S1  UNL     1      19.101   7.652  14.394  1.00  0.00     0.275 S
HETATM   26  O4  UNL     1      19.939   6.527  15.261  1.00  0.00    -0.210 OA
HETATM   27  O5  UNL     1      20.135   8.901  13.987  1.00  0.00    -0.210 OA
ENDBRANCH  17  25
ENDBRANCH   4  11
BRANCH  10  28
HETATM   28  N7  UNL     1      17.088   2.516   9.484  1.00  0.00    -0.384 N
ATOM     29  H72 UNL     1      16.582   3.099   8.818  1.00  0.00     0.157 HD
ATOM     30  H71 UNL     1      16.994   1.500   9.458  1.00  0.00     0.157 HD
ENDBRANCH  10  28
TORSDOF 7
ENDMDL