MODEL 2
REMARK VINA RESULT: -7.331114854      3.341      3.873
REMARK  8 active torsions:
REMARK  status: ('A' for Active; 'I' for Inactive)
REMARK    1  A    between atoms: N4_5  and  C2_6
REMARK    2  A    between atoms: C2_6  and  N5_7
REMARK    3  A    between atoms: N5_7  and  C3_9
REMARK    4  A    between atoms: C5_11  and  N6_12
REMARK    5  A    between atoms: C10_20  and  N8_21
REMARK    6  A    between atoms: N8_21  and  C11_23
REMARK    7  A    between atoms: C11_23  and  C12_24
REMARK    8  A    between atoms: C12_24  and  O2_25
ROOT
HETATM    1  C3  UNL     1      16.658   6.207  12.669  1.00  0.00     0.121 A
HETATM    2  C4  UNL     1      16.497   7.181  11.690  1.00  0.00     0.097 A
HETATM    3  C5  UNL     1      16.409   6.816  10.365  1.00  0.00     0.122 A
HETATM    4  N7  UNL     1      16.483   5.506  10.091  1.00  0.00    -0.177 N
ATOM      5  H7  UNL     1      16.420   5.205   9.118  1.00  0.00     0.185 HD
HETATM    6  C10 UNL     1      16.641   4.559  11.061  1.00  0.00     0.681 A
HETATM    7  N9  UNL     1      16.729   4.905  12.350  1.00  0.00    -0.177 N
ATOM      8  H9  UNL     1      16.846   4.196  13.075  1.00  0.00     0.185 HD
ENDROOT
BRANCH   1   9
HETATM    9  N5  UNL     1      16.741   6.545  13.914  1.00  0.00    -0.358 N
ATOM     10  H5  UNL     1      16.064   7.192  14.319  1.00  0.00     0.162 HD
BRANCH   9  11
HETATM   11  C2  UNL     1      17.788   6.002  14.716  1.00  0.00     0.274 C
BRANCH  11  12
HETATM   12  N4  UNL     1      17.290   4.857  15.492  1.00  0.00    -0.209 N
HETATM   13  N3  UNL     1      18.005   3.827  15.926  1.00  0.00    -0.001 NA
HETATM   14  N2  UNL     1      17.219   2.992  16.589  1.00  0.00    -0.002 NA
HETATM   15  N1  UNL     1      15.974   3.465  16.597  1.00  0.00    -0.232 N
HETATM   16  C1  UNL     1      14.809   2.841  17.224  1.00  0.00     0.180 C
HETATM   17  C13 UNL     1      16.034   4.622  15.913  1.00  0.00     0.355 A
HETATM   18  O3  UNL     1      15.048   5.374  15.702  1.00  0.00    -0.244 OA
ENDBRANCH  11  12
ENDBRANCH   9  11
ENDBRANCH   1   9
BRANCH   3  19
HETATM   19  N6  UNL     1      16.241   7.805   9.355  1.00  0.00    -0.363 N
HETATM   20  C6  UNL     1      15.005   8.513   9.276  1.00  0.00     0.150 C
HETATM   21  C7  UNL     1      14.738   9.224   7.996  1.00  0.00     0.187 C
HETATM   22  O1  UNL     1      15.815   9.323   7.149  1.00  0.00    -0.388 OA
HETATM   23  C8  UNL     1      17.026   9.428   7.787  1.00  0.00     0.187 C
HETATM   24  C9  UNL     1      17.320   8.076   8.436  1.00  0.00     0.150 C
ENDBRANCH   3  19
BRANCH   6  25
HETATM   25  N8  UNL     1      16.708   3.314  10.744  1.00  0.00    -0.224 N
ATOM     26  H8  UNL     1      15.977   2.940  10.139  1.00  0.00     0.177 HD
BRANCH  25  27
HETATM   27  C11 UNL     1      17.731   2.421  11.176  1.00  0.00     0.164 C
BRANCH  27  28
HETATM   28  C12 UNL     1      17.219   1.431  12.228  1.00  0.00     0.184 C
BRANCH  28  29
HETATM   29  O2  UNL     1      16.921   2.127  13.414  1.00  0.00    -0.399 OA
ATOM     30  H2  UNL     1      15.979   2.214  13.496  1.00  0.00     0.209 HD
ENDBRANCH  28  29
ENDBRANCH  27  28
ENDBRANCH  25  27
ENDBRANCH   6  25
TORSDOF 8
ENDMDL