MODEL 2
REMARK VINA RESULT: -6.788763421      3.006      4.438
REMARK  8 active torsions:
REMARK  status: ('A' for Active; 'I' for Inactive)
REMARK    1  A    between atoms: N1_2  and  C3_4
REMARK    2  A    between atoms: C4_7  and  N3_8
REMARK    3  A    between atoms: N3_8  and  C5_10
REMARK    4  A    between atoms: N5_14  and  C7_15
REMARK    5  A    between atoms: C11_26  and  N10_27
REMARK    6  A    between atoms: N10_27  and  C12_29
REMARK    7  A    between atoms: C12_29  and  C13_30
REMARK    8  A    between atoms: C13_30  and  O1_31
ROOT
HETATM    1  C3  UNL     1      17.290   3.145  12.768  1.00  0.00     0.708 A
HETATM    2  N2  UNL     1      17.508   4.462  12.708  1.00  0.00    -0.021 N
ATOM      3  H2  UNL     1      17.742   4.874  11.805  1.00  0.00     0.203 HD
HETATM    4  C4  UNL     1      17.433   5.271  13.780  1.00  0.00     0.712 A
HETATM    5  N9  UNL     1      17.126   4.727  14.970  1.00  0.00    -0.021 N
ATOM      6  H9  UNL     1      17.063   5.315  15.801  1.00  0.00     0.203 HD
HETATM    7  C11 UNL     1      16.902   3.406  15.062  1.00  0.00     0.707 A
HETATM    8  N11 UNL     1      16.980   2.615  13.981  1.00  0.00    -0.021 N
ATOM      9  H11 UNL     1      16.807   1.613  14.069  1.00  0.00     0.203 HD
ENDROOT
BRANCH   4  10
HETATM   10  N3  UNL     1      17.638   6.537  13.748  1.00  0.00    -0.178 N
ATOM     11  H3  UNL     1      17.128   7.142  14.393  1.00  0.00     0.185 HD
BRANCH  10  12
HETATM   12  C5  UNL     1      18.574   7.122  12.819  1.00  0.00     0.112 C
HETATM   13  N4  UNL     1      18.348   7.678  11.706  1.00  0.00    -0.362 N
HETATM   14  C6  UNL     1      19.556   8.150  11.048  1.00  0.00     0.249 C
ATOM     15  H4  UNL     1      17.414   7.783  11.309  1.00  0.00     0.162 HD
HETATM   16  N5  UNL     1      20.600   7.506  11.818  1.00  0.00    -0.342 N
HETATM   17  C10 UNL     1      20.019   7.145  13.084  1.00  0.00     0.203 C
BRANCH  16  18
HETATM   18  C7  UNL     1      21.928   7.282  11.394  1.00  0.00     0.138 A
HETATM   19  C8  UNL     1      22.302   6.919  10.135  1.00  0.00     0.160 A
HETATM   20  N6  UNL     1      23.643   6.811  10.152  1.00  0.00    -0.290 N
HETATM   21  C9  UNL     1      24.493   6.445   9.035  1.00  0.00     0.178 C
HETATM   22  N7  UNL     1      24.059   7.094  11.361  1.00  0.00    -0.240 N
HETATM   23  N8  UNL     1      23.037   7.384  12.135  1.00  0.00    -0.270 N
ATOM     24  H7  UNL     1      25.035   7.090  11.658  1.00  0.00     0.208 HD
ATOM     25  H8  UNL     1      23.082   7.640  13.122  1.00  0.00     0.190 HD
ENDBRANCH  16  18
ENDBRANCH  10  12
ENDBRANCH   4  10
BRANCH   1  26
HETATM   26  N1  UNL     1      17.371   2.311  11.639  1.00  0.00    -0.225 N
HETATM   27  C1  UNL     1      16.921   2.832  10.363  1.00  0.00     0.168 C
HETATM   28  C2  UNL     1      17.877   0.976  11.702  1.00  0.00     0.168 C
ENDBRANCH   1  26
BRANCH   7  29
HETATM   29  N10 UNL     1      16.605   2.876  16.205  1.00  0.00    -0.223 N
ATOM     30  H10 UNL     1      16.776   1.880  16.339  1.00  0.00     0.177 HD
BRANCH  29  31
HETATM   31  C12 UNL     1      16.048   3.625  17.288  1.00  0.00     0.164 C
BRANCH  31  32
HETATM   32  C13 UNL     1      14.545   3.759  17.066  1.00  0.00     0.184 C
BRANCH  32  33
HETATM   33  O1  UNL     1      13.977   2.528  16.816  1.00  0.00    -0.399 OA
ATOM     34  H1  UNL     1      14.622   1.837  16.899  1.00  0.00     0.209 HD
ENDBRANCH  32  33
ENDBRANCH  31  32
ENDBRANCH  29  31
ENDBRANCH   7  29
TORSDOF 8
ENDMDL