MODEL 5
REMARK VINA RESULT: -6.913364003      2.384      4.741
REMARK  6 active torsions:
REMARK  status: ('A' for Active; 'I' for Inactive)
REMARK    1  A    between atoms: C2_3  and  C3_4
REMARK    2  A    between atoms: C2_3  and  N5_12
REMARK    3  A    between atoms: C3_4  and  N2_5
REMARK    4  A    between atoms: C7_14  and  C8_15
REMARK    5  A    between atoms: C8_15  and  N6_16
REMARK    6  A    between atoms: N6_16  and  C9_18
ROOT
HETATM    1  N1  UNL     1      21.163   5.472   8.533  1.00  0.00    -0.195 NA
HETATM    2  C1  UNL     1      20.583   5.978   9.422  1.00  0.00     0.087 C
HETATM    3  C2  UNL     1      19.870   6.626  10.520  1.00  0.00     0.221 C
ENDROOT
BRANCH   3   4
HETATM    4  C3  UNL     1      20.592   6.403  11.829  1.00  0.00     0.190 C
BRANCH   4   5
HETATM    5  N2  UNL     1      21.855   7.144  11.809  1.00  0.00    -0.284 N
HETATM    6  C4  UNL     1      21.910   8.481  11.789  1.00  0.00     0.201 A
HETATM    7  N3  UNL     1      23.209   8.812  11.775  1.00  0.00    -0.346 N
HETATM    8  C5  UNL     1      23.917   7.678  11.786  1.00  0.00     0.198 A
ATOM      9  H3  UNL     1      23.589   9.759  11.760  1.00  0.00     0.167 HD
HETATM   10  N4  UNL     1      23.078   6.640  11.808  1.00  0.00    -0.293 N
ATOM     11  H4  UNL     1      23.331   5.652  11.821  1.00  0.00     0.188 HD
ENDBRANCH   4   5
ENDBRANCH   3   4
BRANCH   3  12
HETATM   12  N5  UNL     1      18.533   6.082  10.617  1.00  0.00    -0.287 N
HETATM   13  C6  UNL     1      18.334   4.945  11.329  1.00  0.00     0.125 A
HETATM   14  C7  UNL     1      17.063   4.414  11.430  1.00  0.00     0.059 A
HETATM   15  N10 UNL     1      16.067   5.069  10.803  1.00  0.00    -0.298 N
HETATM   16  N11 UNL     1      16.297   6.185  10.111  1.00  0.00    -0.251 N
ATOM     17  H10 UNL     1      15.117   4.703  10.858  1.00  0.00     0.187 HD
HETATM   18  C11 UNL     1      17.525   6.724   9.996  1.00  0.00     0.342 A
ATOM     19  H11 UNL     1      15.513   6.649   9.652  1.00  0.00     0.191 HD
HETATM   20  O2  UNL     1      17.738   7.787   9.336  1.00  0.00    -0.245 OA
BRANCH  14  21
HETATM   21  C8  UNL     1      16.792   3.170  12.198  1.00  0.00     0.198 C
BRANCH  21  22
HETATM   22  N6  UNL     1      17.467   3.212  13.467  1.00  0.00    -0.219 N
ATOM     23  H6  UNL     1      18.471   3.031  13.479  1.00  0.00     0.178 HD
BRANCH  22  24
HETATM   24  C9  UNL     1      16.887   3.464  14.592  1.00  0.00     0.697 A
HETATM   25  N7  UNL     1      16.231   4.564  14.985  1.00  0.00    -0.128 N
HETATM   26  N8  UNL     1      15.811   4.354  16.220  1.00  0.00    -0.237 N
ATOM     27  H7  UNL     1      16.084   5.408  14.433  1.00  0.00     0.205 HD
HETATM   28  C10 UNL     1      16.203   3.124  16.600  1.00  0.00     0.353 A
ATOM     29  H8  UNL     1      15.279   5.014  16.789  1.00  0.00     0.192 HD
HETATM   30  O1  UNL     1      15.959   2.607  17.741  1.00  0.00    -0.245 OA
HETATM   31  N9  UNL     1      16.873   2.564  15.592  1.00  0.00    -0.139 N
ATOM     32  H9  UNL     1      17.293   1.635  15.582  1.00  0.00     0.189 HD
ENDBRANCH  22  24
ENDBRANCH  21  22
ENDBRANCH  14  21
ENDBRANCH   3  12
TORSDOF 6
ENDMDL