MODEL 2
REMARK VINA RESULT: -7.048714001      2.920      4.054
REMARK  8 active torsions:
REMARK  status: ('A' for Active; 'I' for Inactive)
REMARK    1  A    between atoms: O1_3  and  N1_4
REMARK    2  A    between atoms: N1_4  and  C3_6
REMARK    3  A    between atoms: C5_8  and  N2_9
REMARK    4  A    between atoms: N2_9  and  C6_11
REMARK    5  A    between atoms: C7_14  and  N4_15
REMARK    6  A    between atoms: C10_20  and  N6_21
REMARK    7  A    between atoms: C11_23  and  C12_24
REMARK    8  A    between atoms: C12_24  and  O2_25
ROOT
HETATM    1  C1  UNL     1      14.275   4.085  17.348  1.00  0.00     0.047 C
HETATM    2  C2  UNL     1      14.978   3.195  16.944  1.00  0.00     0.073 C
HETATM    3  O1  UNL     1      15.814   2.184  16.469  1.00  0.00    -0.185 OA
ENDROOT
BRANCH   3   4
HETATM    4  N1  UNL     1      16.993   2.616  15.901  1.00  0.00    -0.234 N
ATOM      5  H1  UNL     1      17.857   2.605  16.441  1.00  0.00     0.197 HD
BRANCH   4   6
HETATM    6  C3  UNL     1      16.997   3.037  14.674  1.00  0.00     0.145 A
HETATM    7  C4  UNL     1      17.044   4.357  14.305  1.00  0.00     0.102 A
HETATM    8  C5  UNL     1      17.042   4.741  12.979  1.00  0.00     0.142 A
HETATM    9  N8  UNL     1      16.993   3.794  12.007  1.00  0.00    -0.266 N
HETATM   10  C13 UNL     1      16.992   4.179  10.601  1.00  0.00     0.181 C
HETATM   11  N9  UNL     1      16.948   2.530  12.385  1.00  0.00    -0.238 N
HETATM   12  N10 UNL     1      16.949   2.147  13.643  1.00  0.00    -0.269 N
ATOM     13  H9  UNL     1      16.911   1.812  11.662  1.00  0.00     0.208 HD
ATOM     14  H10 UNL     1      16.912   1.149  13.854  1.00  0.00     0.190 HD
BRANCH   8  15
HETATM   15  N2  UNL     1      17.099   6.100  12.592  1.00  0.00    -0.174 N
ATOM     16  H2  UNL     1      16.248   6.552  12.257  1.00  0.00     0.186 HD
BRANCH  15  17
HETATM   17  C6  UNL     1      18.189   6.790  12.647  1.00  0.00     0.713 A
HETATM   18  N3  UNL     1      18.147   8.048  13.133  1.00  0.00    -0.021 N
HETATM   19  C7  UNL     1      19.238   8.841  13.211  1.00  0.00     0.708 A
ATOM     20  H3  UNL     1      17.253   8.416  13.456  1.00  0.00     0.203 HD
HETATM   21  N5  UNL     1      20.421   8.370  12.787  1.00  0.00    -0.021 N
HETATM   22  C10 UNL     1      20.515   7.089  12.279  1.00  0.00     0.711 A
ATOM     23  H5  UNL     1      21.252   8.960  12.840  1.00  0.00     0.203 HD
HETATM   24  N7  UNL     1      19.370   6.339  12.231  1.00  0.00    -0.021 N
ATOM     25  H7  UNL     1      19.425   5.391  11.859  1.00  0.00     0.203 HD
BRANCH  19  26
HETATM   26  N4  UNL     1      19.185  10.156  13.725  1.00  0.00    -0.225 N
HETATM   27  C8  UNL     1      19.144  10.479  15.137  1.00  0.00     0.168 C
HETATM   28  C9  UNL     1      19.185  11.280  12.791  1.00  0.00     0.168 C
ENDBRANCH  19  26
BRANCH  22  29
HETATM   29  N6  UNL     1      21.589   6.667  11.865  1.00  0.00    -0.202 N
HETATM   30  C11 UNL     1      22.382   6.003  11.006  1.00  0.00     0.105 C
ATOM     31  H6  UNL     1      22.250   7.013  12.561  1.00  0.00     0.183 HD
BRANCH  30  32
HETATM   32  C12 UNL     1      21.880   5.857   9.553  1.00  0.00     0.209 C
BRANCH  32  33
HETATM   33  O2  UNL     1      20.771   5.007   9.534  1.00  0.00    -0.396 OA
ATOM     34  H2  UNL     1      20.147   5.323   8.891  1.00  0.00     0.209 HD
ENDBRANCH  32  33
ENDBRANCH  30  32
ENDBRANCH  22  29
ENDBRANCH  15  17
ENDBRANCH   8  15
ENDBRANCH   4   6
ENDBRANCH   3   4
TORSDOF 8
ENDMDL