MODEL 1
REMARK VINA RESULT: -6.742589175      0.000      0.000
REMARK  8 active torsions:
REMARK  status: ('A' for Active; 'I' for Inactive)
REMARK    1  A    between atoms: C2_2  and  O1_3
REMARK    2  A    between atoms: C2_2  and  N1_5
REMARK    3  A    between atoms: N1_5  and  C3_7
REMARK    4  A    between atoms: C4_10  and  N3_11
REMARK    5  A    between atoms: C7_16  and  N5_17
REMARK    6  A    between atoms: N5_17  and  C8_19
REMARK    7  A    between atoms: C8_19  and  C9_20
REMARK    8  A    between atoms: C11_24  and  O2_25
ROOT
HETATM    1  C3  UNL     1      17.099   4.314  14.060  1.00  0.00     0.709 A
HETATM    2  N2  UNL     1      17.021   3.261  13.196  1.00  0.00    -0.021 N
ATOM      3  H2  UNL     1      16.348   2.510  13.350  1.00  0.00     0.203 HD
HETATM    4  C4  UNL     1      17.844   3.233  12.145  1.00  0.00     0.708 A
HETATM    5  N4  UNL     1      18.731   4.233  11.956  1.00  0.00    -0.021 N
ATOM      6  H4  UNL     1      19.351   4.192  11.148  1.00  0.00     0.203 HD
HETATM    7  C7  UNL     1      18.828   5.277  12.789  1.00  0.00     0.707 A
HETATM    8  N8  UNL     1      17.987   5.299  13.855  1.00  0.00    -0.021 N
ATOM      9  H8  UNL     1      18.031   6.078  14.512  1.00  0.00     0.203 HD
ENDROOT
BRANCH   7  10
HETATM   10  N5  UNL     1      19.663   6.249  12.681  1.00  0.00    -0.219 N
ATOM     11  H5  UNL     1      20.670   6.089  12.705  1.00  0.00     0.178 HD
BRANCH  10  12
HETATM   12  C8  UNL     1      19.114   7.583  12.524  1.00  0.00     0.196 C
BRANCH  12  13
HETATM   13  C9  UNL     1      18.289   7.716  11.305  1.00  0.00     0.048 A
HETATM   14  C10 UNL     1      18.813   7.482  10.043  1.00  0.00     0.117 A
HETATM   15  N6  UNL     1      18.071   7.608   8.929  1.00  0.00    -0.341 N
HETATM   16  C11 UNL     1      16.775   7.970   8.989  1.00  0.00     0.210 A
ATOM     17  H6  UNL     1      18.498   7.426   8.021  1.00  0.00     0.167 HD
HETATM   18  C12 UNL     1      16.247   8.204  10.233  1.00  0.00     0.298 A
HETATM   19  O3  UNL     1      15.028   8.546  10.312  1.00  0.00    -0.263 OA
HETATM   20  N7  UNL     1      16.996   8.076  11.365  1.00  0.00    -0.316 N
HETATM   21  C13 UNL     1      16.374   8.333  12.640  1.00  0.00     0.159 C
BRANCH  16  22
HETATM   22  O2  UNL     1      15.999   8.102   7.826  1.00  0.00    -0.342 OA
ATOM     23  H2  UNL     1      15.050   8.120   7.865  1.00  0.00     0.219 HD
ENDBRANCH  16  22
ENDBRANCH  12  13
ENDBRANCH  10  12
ENDBRANCH   7  10
BRANCH   4  24
HETATM   24  N3  UNL     1      17.760   2.131  11.248  1.00  0.00    -0.225 N
HETATM   25  C5  UNL     1      18.188   0.804  11.569  1.00  0.00     0.168 C
HETATM   26  C6  UNL     1      17.187   2.419   9.940  1.00  0.00     0.168 C
ENDBRANCH   4  24
BRANCH   1  27
HETATM   27  N1  UNL     1      16.303   4.327  15.064  1.00  0.00    -0.199 N
ATOM     28  H1  UNL     1      15.345   4.652  14.940  1.00  0.00     0.180 HD
BRANCH  27  29
HETATM   29  C2  UNL     1      16.738   3.891  16.358  1.00  0.00     0.230 C
HETATM   30  C1  UNL     1      15.646   3.036  16.961  1.00  0.00     0.063 C
BRANCH  29  31
HETATM   31  O1  UNL     1      17.903   3.117  16.334  1.00  0.00    -0.377 OA
ATOM     32  H1  UNL     1      18.371   3.338  15.537  1.00  0.00     0.212 HD
ENDBRANCH  29  31
ENDBRANCH  27  29
ENDBRANCH   1  27
TORSDOF 8
ENDMDL