MODEL 4
REMARK VINA RESULT: -7.159797199      2.345      7.202
REMARK  6 active torsions:
REMARK  status: ('A' for Active; 'I' for Inactive)
REMARK    1  A    between atoms: C11_17  and  N4_18
REMARK    2  A    between atoms: N4_18  and  N5_20
REMARK    3  A    between atoms: C12_22  and  C13_23
REMARK    4  A    between atoms: C12_22  and  C15_27
REMARK    5  A    between atoms: C13_23  and  C14_24
REMARK    6  A    between atoms: C14_24  and  O2_25
ROOT
HETATM    1  N4  UNL     1      18.518   6.135  13.804  1.00  0.00    -0.302 N
ATOM      2  H4  UNL     1      18.851   5.667  12.961  1.00  0.00     0.186 HD
ENDROOT
BRANCH   1   3
HETATM    3  C11 UNL     1      18.760   7.534  14.003  1.00  0.00     0.058 A
HETATM    4  C4  UNL     1      19.760   8.197  13.443  1.00  0.00     0.044 A
HETATM    5  C3  UNL     1      20.776   7.787  12.583  1.00  0.00     0.063 A
HETATM    6  C5  UNL     1      19.739   9.526  13.818  1.00  0.00     0.043 A
HETATM    7  N2  UNL     1      20.864   6.507  12.174  1.00  0.00    -0.351 N
HETATM    8  C8  UNL     1      21.738   8.652  12.106  1.00  0.00     0.060 A
HETATM    9  C2  UNL     1      21.836   6.090  11.343  1.00  0.00     0.186 A
ATOM     10  H2  UNL     1      20.172   5.834  12.503  1.00  0.00     0.166 HD
HETATM   11  N1  UNL     1      22.780   6.917  10.870  1.00  0.00    -0.314 N
HETATM   12  C1  UNL     1      23.803   6.406   9.977  1.00  0.00     0.160 C
HETATM   13  C9  UNL     1      22.728   8.204  11.254  1.00  0.00     0.260 A
HETATM   14  O1  UNL     1      23.595   8.986  10.825  1.00  0.00    -0.267 OA
HETATM   15  C7  UNL     1      21.660   9.967  12.518  1.00  0.00     0.022 A
HETATM   16  C6  UNL     1      20.684  10.438  13.366  1.00  0.00     0.031 A
HETATM   17  N3  UNL     1      18.742   9.735  14.610  1.00  0.00    -0.383 N
HETATM   18  C10 UNL     1      18.013   8.500  14.815  1.00  0.00     0.179 A
ATOM     19  H3  UNL     1      18.503  10.634  15.028  1.00  0.00     0.160 HD
ENDBRANCH   1   3
BRANCH   1  20
HETATM   20  N5  UNL     1      17.822   5.425  14.779  1.00  0.00    -0.301 N
HETATM   21  C12 UNL     1      16.954   4.500  14.475  1.00  0.00     0.074 C
ATOM     22  H5  UNL     1      17.996   5.634  15.762  1.00  0.00     0.186 HD
BRANCH  21  23
HETATM   23  C13 UNL     1      16.660   4.154  13.066  1.00  0.00     0.088 C
BRANCH  23  24
HETATM   24  C14 UNL     1      17.685   3.217  12.492  1.00  0.00     0.170 C
BRANCH  24  25
HETATM   25  O2  UNL     1      18.885   3.863  12.201  1.00  0.00    -0.400 OA
ATOM     26  H2  UNL     1      19.381   4.069  12.985  1.00  0.00     0.209 HD
ENDBRANCH  24  25
ENDBRANCH  23  24
ENDBRANCH  21  23
BRANCH  21  27
HETATM   27  C15 UNL     1      16.311   3.837  15.601  1.00  0.00     0.161 A
HETATM   28  N6  UNL     1      15.262   4.299  16.278  1.00  0.00    -0.267 N
HETATM   29  N7  UNL     1      14.972   3.435  17.213  1.00  0.00    -0.227 N
ATOM     30  H6  UNL     1      14.770   5.174  16.099  1.00  0.00     0.190 HD
HETATM   31  N8  UNL     1      15.803   2.412  17.172  1.00  0.00    -0.227 N
ATOM     32  H7  UNL     1      14.209   3.536  17.882  1.00  0.00     0.210 HD
HETATM   33  N9  UNL     1      16.629   2.662  16.176  1.00  0.00    -0.267 N
ATOM     34  H8  UNL     1      15.806   1.596  17.784  1.00  0.00     0.210 HD
ATOM     35  H9  UNL     1      17.395   2.055  15.884  1.00  0.00     0.190 HD
ENDBRANCH  21  27
ENDBRANCH   1  20
TORSDOF 6
ENDMDL