MODEL 5
REMARK VINA RESULT: -7.016161741      1.808      2.887
REMARK  6 active torsions:
REMARK  status: ('A' for Active; 'I' for Inactive)
REMARK    1  A    between atoms: C3_3  and  C4_4
REMARK    2  A    between atoms: C5_7  and  O1_8
REMARK    3  A    between atoms: O1_8  and  C6_9
REMARK    4  A    between atoms: C6_9  and  C7_10
REMARK    5  A    between atoms: C8_21  and  N7_22
REMARK    6  A    between atoms: N11_30  and  N12_31
ROOT
HETATM    1  C4  UNL     1      18.363   6.543  11.821  1.00  0.00     0.154 A
HETATM    2  N1  UNL     1      18.102   5.953  13.029  1.00  0.00    -0.305 N
ATOM      3  H1  UNL     1      18.663   5.150  13.313  1.00  0.00     0.171 HD
HETATM    4  C5  UNL     1      17.144   6.389  13.851  1.00  0.00     0.239 A
HETATM    5  N6  UNL     1      16.424   7.450  13.446  1.00  0.00    -0.155 N
ATOM      6  H6  UNL     1      15.686   7.798  14.058  1.00  0.00     0.188 HD
HETATM    7  C8  UNL     1      16.627   8.072  12.280  1.00  0.00     0.680 A
HETATM    8  N8  UNL     1      17.603   7.599  11.485  1.00  0.00    -0.174 N
ATOM      9  H8  UNL     1      17.773   8.060  10.591  1.00  0.00     0.186 HD
ENDROOT
BRANCH   4  10
HETATM   10  O1  UNL     1      16.859   5.812  15.075  1.00  0.00    -0.314 OA
BRANCH  10  11
HETATM   11  C6  UNL     1      17.488   4.636  15.541  1.00  0.00     0.260 C
BRANCH  11  12
HETATM   12  C7  UNL     1      16.508   3.639  16.013  1.00  0.00     0.165 A
HETATM   13  N2  UNL     1      16.731   2.371  16.051  1.00  0.00    -0.226 N
HETATM   14  O2  UNL     1      15.662   1.681  16.529  1.00  0.00    -0.139 OA
ATOM     15  H2  UNL     1      17.606   1.936  15.757  1.00  0.00     0.198 HD
HETATM   16  N3  UNL     1      14.654   2.571  16.830  1.00  0.00     0.071 NA
HETATM   17  N4  UNL     1      15.193   3.839  16.500  1.00  0.00    -0.163 N
HETATM   18  N5  UNL     1      14.630   4.962  16.607  1.00  0.00    -0.324 N
ATOM     19  H52 UNL     1      15.019   5.875  16.369  1.00  0.00     0.178 HD
ATOM     20  H51 UNL     1      13.683   5.106  16.957  1.00  0.00     0.178 HD
ENDBRANCH  11  12
ENDBRANCH  10  11
ENDBRANCH   4  10
BRANCH   1  21
HETATM   21  C3  UNL     1      19.416   6.038  10.957  1.00  0.00     0.118 A
HETATM   22  C2  UNL     1      20.448   6.746  10.383  1.00  0.00     0.078 A
HETATM   23  C1  UNL     1      20.727   8.204  10.516  1.00  0.00     0.074 C
HETATM   24  N11 UNL     1      21.196   5.876   9.652  1.00  0.00    -0.185 N
HETATM   25  N10 UNL     1      20.628   4.688   9.786  1.00  0.00     0.003 NA
HETATM   26  N9  UNL     1      19.557   4.771  10.568  1.00  0.00    -0.273 N
HETATM   27  C9  UNL     1      18.713   3.674  10.919  1.00  0.00     0.176 C
BRANCH  24  28
HETATM   28  N12 UNL     1      22.335   6.135   8.900  1.00  0.00    -0.317 N
HETATM   29  C10 UNL     1      23.654   6.294   9.475  1.00  0.00     0.172 C
HETATM   30  C11 UNL     1      22.217   6.256   7.462  1.00  0.00     0.172 C
ENDBRANCH  24  28
ENDBRANCH   1  21
BRANCH   7  31
HETATM   31  N7  UNL     1      15.934   9.098  11.882  1.00  0.00    -0.234 N
ATOM     32  H72 UNL     1      15.193   8.957  11.196  1.00  0.00     0.174 HD
ATOM     33  H71 UNL     1      16.089  10.048  12.221  1.00  0.00     0.174 HD
ENDBRANCH   7  31
TORSDOF 6
ENDMDL