MODEL 4
REMARK VINA RESULT: -7.714801389      2.099      3.267
REMARK  13 active torsions:
REMARK  status: ('A' for Active; 'I' for Inactive)
REMARK    1  A    between atoms: N1_2  and  C1_4
REMARK    2  A    between atoms: C1_4  and  C2_5
REMARK    3  A    between atoms: C2_5  and  N5_19
REMARK    4  A    between atoms: N2_6  and  N3_8
REMARK    5  A    between atoms: N3_8  and  C3_9
REMARK    6  A    between atoms: C3_9  and  C4_10
REMARK    7  A    between atoms: C7_13  and  N4_14
REMARK    8  A    between atoms: N5_19  and  N6_21
REMARK    9  A    between atoms: C10_23  and  C11_24
REMARK   10  A    between atoms: C11_24  and  N7_25
REMARK   11  A    between atoms: N9_28  and  O6_29
REMARK   12  A    between atoms: C12_31  and  C13_32
REMARK   13  A    between atoms: N10_33  and  O7_35
ROOT
HETATM    1  C2  UNL     1      18.535   5.414  10.994  1.00  0.00     0.146 C
HETATM    2  N2  UNL     1      17.750   5.370  12.014  1.00  0.00    -0.221 N
ATOM      3  H2  UNL     1      16.801   5.677  11.803  1.00  0.00     0.203 HD
ENDROOT
BRANCH   1   4
HETATM    4  C1  UNL     1      19.943   5.004  11.104  1.00  0.00     0.281 C
BRANCH   4   5
HETATM    5  N1  UNL     1      20.144   3.583  11.010  1.00  0.00    -0.148 N
HETATM    6  O1  UNL     1      19.650   2.948  10.077  1.00  0.00    -0.536 OA
HETATM    7  O2  UNL     1      20.880   2.941  11.955  1.00  0.00    -0.536 OA
ENDBRANCH   4   5
ENDBRANCH   1   4
BRANCH   1   8
HETATM    8  N5  UNL     1      18.038   5.860   9.747  1.00  0.00    -0.286 N
ATOM      9  H5  UNL     1      17.202   6.444   9.736  1.00  0.00     0.188 HD
BRANCH   8  10
HETATM   10  N6  UNL     1      18.643   5.535   8.531  1.00  0.00    -0.313 N
HETATM   11  C10 UNL     1      17.990   5.133   7.493  1.00  0.00     0.101 C
ATOM     12  H6  UNL     1      19.657   5.621   8.460  1.00  0.00     0.185 HD
BRANCH  11  13
HETATM   13  C11 UNL     1      16.517   4.990   7.535  1.00  0.00     0.195 C
BRANCH  13  14
HETATM   14  N7  UNL     1      16.164   3.594   7.367  1.00  0.00    -0.243 N
HETATM   15  N8  UNL     1      15.928   2.965   6.200  1.00  0.00     0.054 NA
HETATM   16  O5  UNL     1      15.633   1.723   6.425  1.00  0.00    -0.112 OA
HETATM   17  N9  UNL     1      15.658   1.476   7.686  1.00  0.00    -0.085 N
HETATM   18  C12 UNL     1      15.993   2.652   8.297  1.00  0.00     0.193 A
BRANCH  17  19
HETATM   19  O6  UNL     1      15.406   0.296   8.321  1.00  0.00    -0.260 OA
ATOM     20  H6  UNL     1      15.731  -0.000   9.163  1.00  0.00     0.247 HD
ENDBRANCH  17  19
BRANCH  18  21
HETATM   21  C13 UNL     1      16.140   2.803   9.748  1.00  0.00     0.168 C
HETATM   22  N10 UNL     1      16.958   2.135  10.453  1.00  0.00    -0.277 N
ATOM     23  H10 UNL     1      17.562   1.443  10.011  1.00  0.00     0.193 HD
BRANCH  22  24
HETATM   24  O7  UNL     1      17.031   2.340  11.804  1.00  0.00    -0.290 OA
ATOM     25  H7  UNL     1      17.873   2.332  12.244  1.00  0.00     0.244 HD
ENDBRANCH  22  24
ENDBRANCH  18  21
ENDBRANCH  13  14
ENDBRANCH  11  13
ENDBRANCH   8  10
ENDBRANCH   1   8
BRANCH   2  26
HETATM   26  N3  UNL     1      17.908   5.023  13.231  1.00  0.00    -0.336 NA
BRANCH  26  27
HETATM   27  C3  UNL     1      18.056   4.698  14.366  1.00  0.00     0.220 C
BRANCH  27  28
HETATM   28  C4  UNL     1      17.242   3.662  15.056  1.00  0.00    -0.005 A
HETATM   29  C5  UNL     1      17.797   2.504  15.555  1.00  0.00     0.016 A
HETATM   30  C6  UNL     1      17.036   1.549  16.193  1.00  0.00     0.037 A
HETATM   31  C7  UNL     1      15.671   1.735  16.351  1.00  0.00     0.102 A
HETATM   32  C8  UNL     1      15.112   2.892  15.853  1.00  0.00     0.037 A
HETATM   33  C9  UNL     1      15.886   3.834  15.220  1.00  0.00     0.016 A
BRANCH  31  34
HETATM   34  N4  UNL     1      14.888   0.753  17.007  1.00  0.00    -0.116 N
HETATM   35  O3  UNL     1      13.672   0.916  17.164  1.00  0.00    -0.532 OA
HETATM   36  O4  UNL     1      15.485  -0.383  17.468  1.00  0.00    -0.532 OA
ENDBRANCH  31  34
ENDBRANCH  27  28
ENDBRANCH  26  27
ENDBRANCH   2  26
TORSDOF 13
ENDMDL