MODEL 4
REMARK VINA RESULT: -7.457669003      3.070      7.806
REMARK  11 active torsions:
REMARK  status: ('A' for Active; 'I' for Inactive)
REMARK    1  A    between atoms: C2_5  and  C3_6
REMARK    2  A    between atoms: C2_5  and  C14_29
REMARK    3  A    between atoms: C3_6  and  C4_7
REMARK    4  A    between atoms: C4_7  and  N3_8
REMARK    5  A    between atoms: C6_10  and  C7_11
REMARK    6  A    between atoms: N6_22  and  O1_23
REMARK       I    between atoms: C14_29  and  N9_31
REMARK    7  A    between atoms: C15_33  and  C16_34
REMARK    8  A    between atoms: C16_34  and  O3_35
REMARK    9  A    between atoms: O3_35  and  C17_36
REMARK   10  A    between atoms: C17_36  and  C18_37
REMARK   11  A    between atoms: C18_37  and  O4_38
ROOT
HETATM    1  N1  UNL     1      15.498   1.870   6.575  1.00  0.00    -0.172 NA
HETATM    2  C1  UNL     1      15.957   1.327   7.497  1.00  0.00     0.182 C
HETATM    3  N2  UNL     1      16.527   0.681   8.592  1.00  0.00    -0.292 N
ATOM      4  H2  UNL     1      17.003  -0.213   8.467  1.00  0.00     0.178 HD
HETATM    5  C2  UNL     1      16.452   1.216   9.763  1.00  0.00     0.088 C
ENDROOT
BRANCH   5   6
HETATM    6  C3  UNL     1      15.778   2.492   9.984  1.00  0.00     0.085 C
BRANCH   6   7
HETATM    7  C4  UNL     1      16.666   3.678  10.154  1.00  0.00     0.156 C
BRANCH   7   8
HETATM    8  N3  UNL     1      16.150   4.808   9.365  1.00  0.00    -0.286 N
HETATM    9  C5  UNL     1      15.675   5.968   9.799  1.00  0.00     0.146 A
HETATM   10  C6  UNL     1      15.305   6.723   8.716  1.00  0.00     0.114 A
HETATM   11  N7  UNL     1      15.582   5.959   7.634  1.00  0.00    -0.281 N
HETATM   12  N8  UNL     1      16.079   4.836   8.052  1.00  0.00    -0.240 N
ATOM     13  H7  UNL     1      15.427   6.220   6.660  1.00  0.00     0.188 HD
ATOM     14  H8  UNL     1      16.375   4.074   7.442  1.00  0.00     0.208 HD
BRANCH  10  15
HETATM   15  C7  UNL     1      14.732   8.056   8.611  1.00  0.00     0.177 A
HETATM   16  N4  UNL     1      15.477   9.145   8.944  1.00  0.00    -0.281 N
HETATM   17  N5  UNL     1      15.041  10.384   8.881  1.00  0.00    -0.297 N
ATOM     18  H4  UNL     1      16.433   8.990   9.263  1.00  0.00     0.188 HD
HETATM   19  C8  UNL     1      13.797  10.673   8.471  1.00  0.00     0.077 A
ATOM     20  H5  UNL     1      15.666  11.145   9.151  1.00  0.00     0.187 HD
HETATM   21  C9  UNL     1      13.341  11.979   8.405  1.00  0.00     0.033 A
HETATM   22  C13 UNL     1      13.010   9.600   8.124  1.00  0.00     0.092 A
HETATM   23  C10 UNL     1      12.055  12.244   7.980  1.00  0.00     0.002 A
HETATM   24  C11 UNL     1      11.262  11.170   7.631  1.00  0.00     0.002 A
HETATM   25  C12 UNL     1      11.724   9.866   7.700  1.00  0.00     0.034 A
HETATM   26  N6  UNL     1      13.483   8.320   8.198  1.00  0.00    -0.202 N
BRANCH  26  27
HETATM   27  O1  UNL     1      12.647   7.293   7.838  1.00  0.00    -0.281 OA
ATOM     28  H1  UNL     1      12.253   6.744   8.504  1.00  0.00     0.245 HD
ENDBRANCH  26  27
ENDBRANCH  10  15
ENDBRANCH   7   8
ENDBRANCH   6   7
ENDBRANCH   5   6
BRANCH   5  29
HETATM   29  C14 UNL     1      17.057   0.504  10.873  1.00  0.00     0.268 C
HETATM   30  O2  UNL     1      17.943  -0.376  10.724  1.00  0.00    -0.266 OA
HETATM   31  N9  UNL     1      16.678   0.762  12.224  1.00  0.00    -0.334 N
HETATM   32  C15 UNL     1      17.452   1.425  13.004  1.00  0.00     0.090 C
ATOM     33  H9  UNL     1      15.784   0.417  12.573  1.00  0.00     0.168 HD
BRANCH  32  34
HETATM   34  C16 UNL     1      17.058   1.692  14.401  1.00  0.00     0.212 C
BRANCH  34  35
HETATM   35  O3  UNL     1      16.464   0.569  14.977  1.00  0.00    -0.384 OA
BRANCH  35  36
HETATM   36  C17 UNL     1      16.525   0.719  16.377  1.00  0.00     0.194 C
BRANCH  36  37
HETATM   37  C18 UNL     1      15.244   1.415  16.790  1.00  0.00     0.190 C
BRANCH  37  38
HETATM   38  O4  UNL     1      14.211   0.489  16.901  1.00  0.00    -0.399 OA
ATOM     39  H4  UNL     1      14.335  -0.049  17.675  1.00  0.00     0.209 HD
ENDBRANCH  37  38
ENDBRANCH  36  37
ENDBRANCH  35  36
ENDBRANCH  34  35
ENDBRANCH  32  34
ENDBRANCH   5  29
TORSDOF 11
ENDMDL