MODEL 1
REMARK VINA RESULT: -8.047245151      0.000      0.000
REMARK  10 active torsions:
REMARK  status: ('A' for Active; 'I' for Inactive)
REMARK    1  A    between atoms: N1_4  and  C3_5
REMARK    2  A    between atoms: N3_8  and  C4_9
REMARK    3  A    between atoms: C4_9  and  C5_10
REMARK    4  A    between atoms: N5_19  and  C11_20
REMARK    5  A    between atoms: C11_20  and  C12_21
REMARK    6  A    between atoms: C12_21  and  C13_22
REMARK    7  A    between atoms: C13_22  and  N6_23
REMARK    8  A    between atoms: N8_31  and  C19_32
REMARK    9  A    between atoms: C19_32  and  C20_33
REMARK   10  A    between atoms: C20_33  and  O3_34
ROOT
HETATM    1  C3  UNL     1      17.129   1.068  12.004  1.00  0.00     0.702 A
HETATM    2  N2  UNL     1      16.026   1.162  11.210  1.00  0.00    -0.125 N
ATOM      3  H2  UNL     1      15.110   1.477  11.533  1.00  0.00     0.206 HD
HETATM    4  N3  UNL     1      16.289   0.797   9.981  1.00  0.00    -0.222 N
HETATM    5  C10 UNL     1      17.603   0.456   9.995  1.00  0.00     0.358 A
HETATM    6  O2  UNL     1      18.204   0.044   8.969  1.00  0.00    -0.244 OA
HETATM    7  N5  UNL     1      18.112   0.628  11.242  1.00  0.00    -0.130 N
ENDROOT
BRANCH   1   8
HETATM    8  N1  UNL     1      17.082   1.441  13.377  1.00  0.00    -0.206 N
HETATM    9  C2  UNL     1      17.247   0.542  14.463  1.00  0.00     0.244 C
HETATM   10  C1  UNL     1      16.820   1.156  15.757  1.00  0.00     0.238 C
HETATM   11  O1  UNL     1      17.276   0.743  16.843  1.00  0.00    -0.272 OA
HETATM   12  N8  UNL     1      15.876   2.224  15.744  1.00  0.00    -0.347 N
HETATM   13  C18 UNL     1      15.623   2.989  14.536  1.00  0.00     0.146 C
HETATM   14  C17 UNL     1      16.858   2.865  13.635  1.00  0.00     0.161 C
BRANCH  12  15
HETATM   15  C19 UNL     1      15.163   2.568  16.952  1.00  0.00     0.151 C
BRANCH  15  16
HETATM   16  C20 UNL     1      13.941   1.713  17.187  1.00  0.00     0.183 C
BRANCH  16  17
HETATM   17  O3  UNL     1      14.221   0.359  17.002  1.00  0.00    -0.399 OA
ATOM     18  H3  UNL     1      14.988   0.233  16.456  1.00  0.00     0.209 HD
ENDBRANCH  16  17
ENDBRANCH  15  16
ENDBRANCH  12  15
ENDBRANCH   1   8
BRANCH   7  19
HETATM   19  C11 UNL     1      19.479   0.387  11.580  1.00  0.00     0.154 C
BRANCH  19  20
HETATM   20  C12 UNL     1      20.378   1.577  11.380  1.00  0.00     0.041 C
BRANCH  20  21
HETATM   21  C13 UNL     1      19.705   2.818  10.891  1.00  0.00     0.131 C
BRANCH  21  22
HETATM   22  N6  UNL     1      20.333   3.941  11.605  1.00  0.00    -0.352 N
HETATM   23  C14 UNL     1      19.744   4.838  12.429  1.00  0.00     0.108 A
HETATM   24  C15 UNL     1      20.697   5.724  12.885  1.00  0.00     0.106 A
HETATM   25  N7  UNL     1      21.860   5.364  12.338  1.00  0.00    -0.361 N
HETATM   26  C16 UNL     1      21.636   4.306  11.581  1.00  0.00     0.182 A
ATOM     27  H7  UNL     1      22.759   5.824  12.480  1.00  0.00     0.166 HD
ENDBRANCH  21  22
ENDBRANCH  20  21
ENDBRANCH  19  20
ENDBRANCH   7  19
BRANCH   4  28
HETATM   28  C4  UNL     1      15.429   0.764   8.800  1.00  0.00     0.211 C
BRANCH  28  29
HETATM   29  C5  UNL     1      15.750   1.904   7.895  1.00  0.00     0.029 A
HETATM   30  C6  UNL     1      15.757   1.782   6.536  1.00  0.00     0.027 A
HETATM   31  C7  UNL     1      16.035   2.913   5.777  1.00  0.00     0.003 A
HETATM   32  C8  UNL     1      16.286   4.091   6.422  1.00  0.00     0.017 A
HETATM   33  C9  UNL     1      16.271   4.185   7.816  1.00  0.00     0.088 A
HETATM   34  N4  UNL     1      16.002   3.088   8.528  1.00  0.00    -0.368 N
ATOM     35  H4  UNL     1      15.984   3.133   9.547  1.00  0.00     0.165 HD
ENDBRANCH  28  29
ENDBRANCH   4  28
TORSDOF 10
ENDMDL