MODEL 1
REMARK VINA RESULT: -8.699095530      0.000      0.000
REMARK  9 active torsions:
REMARK  status: ('A' for Active; 'I' for Inactive)
REMARK    1  A    between atoms: C2_2  and  C3_3
REMARK    2  A    between atoms: C2_2  and  C19_31
REMARK    3  A    between atoms: C3_3  and  N1_4
REMARK    4  A    between atoms: C4_9  and  C5_10
REMARK    5  A    between atoms: C5_10  and  N4_11
REMARK    6  A    between atoms: N5_14  and  C8_15
REMARK    7  A    between atoms: C8_15  and  C9_16
REMARK       I    between atoms: C9_16  and  N6_18
REMARK    8  A    between atoms: N6_18  and  C10_20
REMARK    9  A    between atoms: C10_20  and  C11_21
ROOT
HETATM    1  N1  UNL     1      13.466   7.639   8.124  1.00  0.00    -0.217 N
HETATM    2  N2  UNL     1      14.175   7.145   7.138  1.00  0.00    -0.224 N
ATOM      3  H2  UNL     1      13.947   7.245   6.149  1.00  0.00     0.210 HD
HETATM    4  N3  UNL     1      15.238   6.493   7.611  1.00  0.00    -0.267 N
ATOM      5  H3  UNL     1      15.946   6.020   7.049  1.00  0.00     0.190 HD
HETATM    6  C4  UNL     1      15.217   6.566   8.934  1.00  0.00     0.152 A
HETATM    7  N7  UNL     1      14.099   7.287   9.236  1.00  0.00    -0.265 N
ATOM      8  H7  UNL     1      13.795   7.523  10.180  1.00  0.00     0.190 HD
ENDROOT
BRANCH   6   9
HETATM    9  C5  UNL     1      16.097   6.058   9.999  1.00  0.00     0.137 C
BRANCH   9  10
HETATM   10  N4  UNL     1      16.749   4.844   9.704  1.00  0.00    -0.384 N
HETATM   11  C6  UNL     1      15.969   3.662   9.654  1.00  0.00     0.137 C
HETATM   12  C7  UNL     1      16.034   3.004  11.044  1.00  0.00     0.114 C
HETATM   13  N5  UNL     1      17.384   2.685  11.337  1.00  0.00    -0.285 NA
HETATM   14  C17 UNL     1      18.337   3.222  10.381  1.00  0.00     0.114 C
HETATM   15  C18 UNL     1      18.097   4.692  10.120  1.00  0.00     0.137 C
BRANCH  13  16
HETATM   16  C8  UNL     1      17.722   1.339  11.581  1.00  0.00     0.134 C
BRANCH  16  17
HETATM   17  C9  UNL     1      17.448   0.779  12.896  1.00  0.00     0.251 C
HETATM   18  O1  UNL     1      16.932  -0.390  12.978  1.00  0.00    -0.268 OA
HETATM   19  N6  UNL     1      17.724   1.460  14.098  1.00  0.00    -0.353 N
ATOM     20  H6  UNL     1      18.134   2.393  14.062  1.00  0.00     0.163 HD
BRANCH  19  21
HETATM   21  C10 UNL     1      17.435   0.856  15.392  1.00  0.00     0.161 C
BRANCH  21  22
HETATM   22  C11 UNL     1      16.351   1.582  16.058  1.00  0.00    -0.041 A
HETATM   23  C12 UNL     1      15.834   2.737  15.451  1.00  0.00     0.009 A
HETATM   24  C13 UNL     1      14.815   3.427  16.061  1.00  0.00     0.001 A
HETATM   25  C14 UNL     1      14.294   2.999  17.261  1.00  0.00     0.000 A
HETATM   26  C15 UNL     1      14.802   1.853  17.869  1.00  0.00     0.001 A
HETATM   27  C16 UNL     1      15.821   1.168  17.251  1.00  0.00     0.009 A
ENDBRANCH  21  22
ENDBRANCH  19  21
ENDBRANCH  16  17
ENDBRANCH  13  16
ENDBRANCH   9  10
ENDBRANCH   6   9
BRANCH   1  28
HETATM   28  C3  UNL     1      12.226   8.422   8.094  1.00  0.00     0.183 C
BRANCH  28  29
HETATM   29  C2  UNL     1      12.496   9.673   7.248  1.00  0.00     0.074 C
HETATM   30  C1  UNL     1      13.143  10.748   8.090  1.00  0.00     0.020 C
BRANCH  29  31
HETATM   31  C19 UNL     1      11.282  10.129   6.562  1.00  0.00     0.125 A
HETATM   32  N8  UNL     1      10.085  10.318   7.133  1.00  0.00    -0.266 N
HETATM   33  N9  UNL     1       9.254  10.730   6.204  1.00  0.00    -0.181 N
ATOM     34  H8  UNL     1       9.859  10.169   8.117  1.00  0.00     0.190 HD
HETATM   35  O2  UNL     1       9.914  10.790   5.105  1.00  0.00    -0.140 OA
ATOM     36  H9  UNL     1       8.268  10.958   6.331  1.00  0.00     0.218 HD
HETATM   37  N10 UNL     1      11.149  10.437   5.265  1.00  0.00    -0.226 N
ATOM     38  H10 UNL     1      11.874  10.400   4.550  1.00  0.00     0.198 HD
ENDBRANCH  29  31
ENDBRANCH  28  29
ENDBRANCH   1  28
TORSDOF 9
ENDMDL