MODEL 5
REMARK VINA RESULT: -7.620519953      2.653      3.828
REMARK  10 active torsions:
REMARK  status: ('A' for Active; 'I' for Inactive)
REMARK    1  A    between atoms: C3_3  and  N1_4
REMARK    2  A    between atoms: N1_4  and  C4_5
REMARK    3  A    between atoms: N1_4  and  C5_7
REMARK    4  A    between atoms: C6_10  and  N3_11
REMARK    5  A    between atoms: N3_11  and  C7_13
REMARK    6  A    between atoms: C7_13  and  C8_14
REMARK    7  A    between atoms: C8_14  and  C9_15
REMARK    8  A    between atoms: C9_15  and  S1_16
REMARK    9  A    between atoms: S1_16  and  C10_17
REMARK   10  A    between atoms: C12_27  and  N9_28
ROOT
HETATM    1  C1  UNL     1      14.070   1.472  17.155  1.00  0.00     0.014 C
HETATM    2  C2  UNL     1      14.687   2.156  16.378  1.00  0.00    -0.097 C
HETATM    3  C3  UNL     1      15.466   2.985  15.433  1.00  0.00     0.242 C
ENDROOT
BRANCH   3   4
HETATM    4  N1  UNL     1      16.763   2.397  15.195  1.00  0.00    -0.147 N
BRANCH   4   5
HETATM    5  C4  UNL     1      17.548   1.996  16.294  1.00  0.00     0.371 C
HETATM    6  O1  UNL     1      18.213   0.930  16.267  1.00  0.00    -0.283 OA
ENDBRANCH   4   5
BRANCH   4   7
HETATM    7  C5  UNL     1      17.243   2.225  13.877  1.00  0.00     0.716 A
HETATM    8  N2  UNL     1      16.639   1.376  13.008  1.00  0.00    -0.021 N
HETATM    9  C6  UNL     1      17.116   1.230  11.761  1.00  0.00     0.707 A
ATOM     10  H2  UNL     1      15.818   0.846  13.302  1.00  0.00     0.203 HD
HETATM   11  N8  UNL     1      18.187   1.947  11.435  1.00  0.00    -0.021 N
HETATM   12  C12 UNL     1      18.827   2.811  12.272  1.00  0.00     0.709 A
ATOM     13  H8  UNL     1      18.556   1.843  10.490  1.00  0.00     0.203 HD
HETATM   14  N10 UNL     1      18.327   2.936  13.515  1.00  0.00    -0.021 N
ATOM     15  H10 UNL     1      18.769   3.569  14.181  1.00  0.00     0.203 HD
BRANCH   9  16
HETATM   16  N3  UNL     1      16.531   0.415  10.943  1.00  0.00    -0.225 N
ATOM     17  H3  UNL     1      16.261  -0.520  11.249  1.00  0.00     0.177 HD
BRANCH  16  18
HETATM   18  C7  UNL     1      16.265   0.848   9.586  1.00  0.00     0.139 C
BRANCH  18  19
HETATM   19  C8  UNL     1      15.426   2.104   9.589  1.00  0.00     0.031 C
BRANCH  19  20
HETATM   20  C9  UNL     1      15.983   3.028   8.535  1.00  0.00     0.084 C
BRANCH  20  21
HETATM   21  S1  UNL     1      16.915   4.398   9.262  1.00  0.00    -0.091 SA
BRANCH  21  22
HETATM   22  C10 UNL     1      15.864   5.727   9.777  1.00  0.00     0.175 A
HETATM   23  N4  UNL     1      14.909   6.404   9.116  1.00  0.00    -0.266 N
HETATM   24  N5  UNL     1      14.367   7.319   9.870  1.00  0.00    -0.224 N
ATOM     25  H4  UNL     1      14.642   6.224   8.148  1.00  0.00     0.190 HD
HETATM   26  N6  UNL     1      14.980   7.236  11.045  1.00  0.00    -0.003 NA
ATOM     27  H5  UNL     1      13.623   7.967   9.610  1.00  0.00     0.205 HD
HETATM   28  N7  UNL     1      15.900   6.268  11.007  1.00  0.00    -0.257 N
HETATM   29  C11 UNL     1      16.775   5.877  12.098  1.00  0.00     0.177 C
ENDBRANCH  21  22
ENDBRANCH  20  21
ENDBRANCH  19  20
ENDBRANCH  18  19
ENDBRANCH  16  18
ENDBRANCH   9  16
BRANCH  12  30
HETATM   30  N9  UNL     1      19.959   3.518  11.814  1.00  0.00    -0.213 N
HETATM   31  C13 UNL     1      20.750   3.115  10.686  1.00  0.00     0.167 C
HETATM   32  C14 UNL     1      21.002   4.417   9.904  1.00  0.00     0.188 C
HETATM   33  O2  UNL     1      21.824   5.231  10.626  1.00  0.00    -0.388 OA
HETATM   34  C15 UNL     1      21.632   5.307  11.970  1.00  0.00     0.188 C
HETATM   35  C16 UNL     1      20.365   4.720  12.503  1.00  0.00     0.167 C
ENDBRANCH  12  30
ENDBRANCH   4   7
ENDBRANCH   3   4
TORSDOF 10
ENDMDL