MODEL 4
REMARK VINA RESULT: -7.522768354      1.501      2.005
REMARK  10 active torsions:
REMARK  status: ('A' for Active; 'I' for Inactive)
REMARK    1  A    between atoms: O1_2  and  C2_3
REMARK    2  A    between atoms: C2_3  and  C3_4
REMARK    3  A    between atoms: N4_11  and  C4_12
REMARK    4  A    between atoms: C4_12  and  C5_13
REMARK    5  A    between atoms: C5_13  and  N5_14
REMARK    6  A    between atoms: N6_17  and  C8_18
REMARK    7  A    between atoms: C8_18  and  C9_19
REMARK    8  A    between atoms: C10_20  and  C11_21
REMARK    9  A    between atoms: C11_21  and  N7_22
REMARK   10  A    between atoms: C12_23  and  O2_24
ROOT
HETATM    1  N5  UNL     1      16.056   2.400   8.895  1.00  0.00    -0.331 N
HETATM    2  C6  UNL     1      16.151   3.106   7.609  1.00  0.00     0.147 C
HETATM    3  C7  UNL     1      16.849   4.381   8.054  1.00  0.00     0.148 C
HETATM    4  N6  UNL     1      16.118   4.692   9.267  1.00  0.00    -0.329 N
HETATM    5  C19 UNL     1      15.771   3.444   9.844  1.00  0.00     0.320 C
HETATM    6  O4  UNL     1      15.300   3.263  10.978  1.00  0.00    -0.247 OA
ENDROOT
BRANCH   4   7
HETATM    7  C8  UNL     1      15.811   5.991   9.774  1.00  0.00     0.154 C
BRANCH   7   8
HETATM    8  C9  UNL     1      16.054   6.157  11.212  1.00  0.00    -0.009 C
HETATM    9  C10 UNL     1      17.264   6.117  11.758  1.00  0.00    -0.009 C
BRANCH   9  10
HETATM   10  C11 UNL     1      17.542   6.280  13.185  1.00  0.00     0.163 C
BRANCH  10  11
HETATM   11  N7  UNL     1      17.158   5.141  13.986  1.00  0.00    -0.274 N
HETATM   12  C12 UNL     1      15.937   4.896  14.486  1.00  0.00     0.174 A
HETATM   13  C13 UNL     1      15.959   3.698  15.204  1.00  0.00     0.094 A
HETATM   14  C14 UNL     1      15.015   2.995  15.903  1.00  0.00     0.034 A
HETATM   15  N8  UNL     1      17.224   3.253  15.109  1.00  0.00    -0.270 N
HETATM   16  C15 UNL     1      15.329   1.816  16.526  1.00  0.00     0.004 A
HETATM   17  C16 UNL     1      16.618   1.358  16.432  1.00  0.00     0.018 A
HETATM   18  C17 UNL     1      17.534   2.088  15.726  1.00  0.00     0.102 A
HETATM   19  C18 UNL     1      17.942   4.121  14.377  1.00  0.00     0.335 A
HETATM   20  O3  UNL     1      19.174   3.946  14.128  1.00  0.00    -0.246 OA
BRANCH  12  21
HETATM   21  O2  UNL     1      14.792   5.658  14.354  1.00  0.00    -0.344 OA
ATOM     22  H2  UNL     1      14.700   6.599  14.443  1.00  0.00     0.219 HD
ENDBRANCH  12  21
ENDBRANCH  10  11
ENDBRANCH   9  10
ENDBRANCH   7   8
ENDBRANCH   4   7
BRANCH   1  23
HETATM   23  C5  UNL     1      16.234   1.007   9.093  1.00  0.00     0.149 C
BRANCH  23  24
HETATM   24  C4  UNL     1      17.606   0.510   9.347  1.00  0.00     0.172 C
BRANCH  24  25
HETATM   25  N4  UNL     1      18.283   1.050  10.480  1.00  0.00    -0.260 N
HETATM   26  C3  UNL     1      18.121   0.658  11.749  1.00  0.00     0.139 A
HETATM   27  N1  UNL     1      18.969   1.420  12.502  1.00  0.00    -0.270 N
HETATM   28  N2  UNL     1      19.620   2.244  11.728  1.00  0.00    -0.227 N
ATOM     29  H1  UNL     1      19.076   1.356  13.515  1.00  0.00     0.190 HD
HETATM   30  N3  UNL     1      19.192   2.006  10.500  1.00  0.00    -0.224 N
ATOM     31  H2  UNL     1      20.318   2.931  12.013  1.00  0.00     0.210 HD
ATOM     32  H3  UNL     1      19.523   2.501   9.671  1.00  0.00     0.210 HD
BRANCH  26  33
HETATM   33  C2  UNL     1      17.241  -0.349  12.346  1.00  0.00     0.246 C
BRANCH  33  34
HETATM   34  O1  UNL     1      17.376  -1.619  11.856  1.00  0.00    -0.389 OA
HETATM   35  C1  UNL     1      18.645  -2.044  11.577  1.00  0.00     0.202 C
ENDBRANCH  33  34
ENDBRANCH  26  33
ENDBRANCH  24  25
ENDBRANCH  23  24
ENDBRANCH   1  23
TORSDOF 10
ENDMDL