MODEL 4
REMARK VINA RESULT: -7.425235323      2.167      3.493
REMARK  10 active torsions:
REMARK  status: ('A' for Active; 'I' for Inactive)
REMARK    1  A    between atoms: C3_10  and  S1_11
REMARK    2  A    between atoms: S1_11  and  C4_12
REMARK    3  A    between atoms: C4_12  and  C5_13
REMARK    4  A    between atoms: C5_13  and  N5_14
REMARK    5  A    between atoms: N6_17  and  C9_19
REMARK    6  A    between atoms: C9_19  and  C10_20
REMARK    7  A    between atoms: C10_20  and  O1_21
REMARK    8  A    between atoms: C10_20  and  C11_23
REMARK    9  A    between atoms: C11_23  and  N7_24
REMARK   10  A    between atoms: C14_29  and  N9_30
ROOT
HETATM    1  C1  UNL     1      14.439   8.185  11.100  1.00  0.00     0.039 C
HETATM    2  C2  UNL     1      14.652   7.672  10.033  1.00  0.00     0.027 C
HETATM    3  N1  UNL     1      14.909   7.095   8.795  1.00  0.00    -0.173 N
HETATM    4  N2  UNL     1      14.406   7.524   7.638  1.00  0.00    -0.212 N
ATOM      5  H2  UNL     1      13.779   8.317   7.505  1.00  0.00     0.211 HD
HETATM    6  N3  UNL     1      14.871   6.732   6.705  1.00  0.00    -0.225 N
ATOM      7  H3  UNL     1      14.664   6.807   5.709  1.00  0.00     0.210 HD
HETATM    8  N4  UNL     1      15.652   5.818   7.257  1.00  0.00    -0.262 N
ATOM      9  H4  UNL     1      16.144   5.076   6.760  1.00  0.00     0.190 HD
HETATM   10  C3  UNL     1      15.688   6.034   8.589  1.00  0.00     0.191 A
ENDROOT
BRANCH  10  11
HETATM   11  S1  UNL     1      16.624   5.029   9.735  1.00  0.00    -0.088 SA
BRANCH  11  12
HETATM   12  C4  UNL     1      18.389   5.414   9.396  1.00  0.00     0.102 C
BRANCH  12  13
HETATM   13  C5  UNL     1      18.603   6.894   9.566  1.00  0.00     0.127 C
BRANCH  13  14
HETATM   14  N5  UNL     1      19.211   7.240  10.801  1.00  0.00    -0.408 N
HETATM   15  C6  UNL     1      19.947   6.166  11.401  1.00  0.00     0.144 C
HETATM   16  C7  UNL     1      19.362   5.523  12.594  1.00  0.00     0.256 C
HETATM   17  N6  UNL     1      18.693   6.420  13.494  1.00  0.00    -0.065 N
HETATM   18  C8  UNL     1      19.532   7.348  14.184  1.00  0.00     0.272 C
HETATM   19  C15 UNL     1      17.747   7.217  12.694  1.00  0.00     0.256 C
HETATM   20  C16 UNL     1      18.484   8.059  11.696  1.00  0.00     0.144 C
BRANCH  17  21
HETATM   21  C9  UNL     1      17.872   5.630  14.402  1.00  0.00     0.270 C
BRANCH  21  22
HETATM   22  C10 UNL     1      18.179   4.153  14.315  1.00  0.00     0.162 C
BRANCH  22  23
HETATM   23  O1  UNL     1      18.884   3.700  15.400  1.00  0.00    -0.392 OA
ATOM     24  H1  UNL     1      19.626   3.161  15.152  1.00  0.00     0.210 HD
ENDBRANCH  22  23
BRANCH  22  25
HETATM   25  C11 UNL     1      16.896   3.403  14.042  1.00  0.00     0.165 C
BRANCH  25  26
HETATM   26  N7  UNL     1      17.047   2.124  13.455  1.00  0.00    -0.320 N
HETATM   27  C12 UNL     1      17.083   1.894  12.118  1.00  0.00     0.111 A
HETATM   28  C13 UNL     1      17.199   0.562  11.888  1.00  0.00     0.108 A
HETATM   29  N8  UNL     1      17.236  -0.036  13.068  1.00  0.00    -0.332 N
HETATM   30  C14 UNL     1      17.144   0.928  14.034  1.00  0.00     0.252 A
ATOM     31  H8  UNL     1      17.320  -1.040  13.229  1.00  0.00     0.168 HD
BRANCH  30  32
HETATM   32  N9  UNL     1      17.207   0.597  15.413  1.00  0.00    -0.079 N
HETATM   33  O2  UNL     1      16.300  -0.145  15.914  1.00  0.00    -0.529 OA
HETATM   34  O3  UNL     1      18.183   1.028  16.275  1.00  0.00    -0.529 OA
ENDBRANCH  30  32
ENDBRANCH  25  26
ENDBRANCH  22  25
ENDBRANCH  21  22
ENDBRANCH  17  21
ENDBRANCH  13  14
ENDBRANCH  12  13
ENDBRANCH  11  12
ENDBRANCH  10  11
TORSDOF 10
ENDMDL