MODEL 4
REMARK VINA RESULT: -6.883678595      1.820      2.223
REMARK  11 active torsions:
REMARK  status: ('A' for Active; 'I' for Inactive)
REMARK    1  A    between atoms: C3_4  and  C4_5
REMARK    2  A    between atoms: C7_8  and  N1_9
REMARK    3  A    between atoms: N2_12  and  C10_13
REMARK    4  A    between atoms: C10_13  and  C11_14
REMARK    5  A    between atoms: C11_14  and  O2_15
REMARK    6  A    between atoms: C14_19  and  N3_20
REMARK    7  A    between atoms: N6_28  and  C16_29
REMARK    8  A    between atoms: C16_29  and  C17_30
REMARK    9  A    between atoms: C17_30  and  C18_31
REMARK   10  A    between atoms: C18_31  and  O5_32
REMARK   11  A    between atoms: O5_32  and  O6_33
ROOT
HETATM    1  C4  UNL     1      15.818   6.293  10.408  1.00  0.00    -0.005 A
HETATM    2  C5  UNL     1      15.746   5.186   9.592  1.00  0.00     0.016 A
HETATM    3  C6  UNL     1      16.277   3.990  10.008  1.00  0.00     0.033 A
HETATM    4  C7  UNL     1      16.887   3.899  11.254  1.00  0.00     0.063 A
HETATM    5  C14 UNL     1      16.962   4.981  12.057  1.00  0.00     0.130 A
HETATM    6  C15 UNL     1      16.418   6.203  11.634  1.00  0.00     0.052 A
ENDROOT
BRANCH   1   7
HETATM    7  C3  UNL     1      15.245   7.576   9.961  1.00  0.00     0.065 A
HETATM    8  C2  UNL     1      15.581   8.756  10.541  1.00  0.00     0.107 A
HETATM    9  C1  UNL     1      14.982   9.922  10.032  1.00  0.00     0.265 A
HETATM   10  O1  UNL     1      15.247  11.040  10.518  1.00  0.00    -0.267 OA
HETATM   11  N6  UNL     1      14.106   9.888   9.006  1.00  0.00    -0.243 N
HETATM   12  N5  UNL     1      13.824   8.706   8.488  1.00  0.00    -0.237 N
HETATM   13  N4  UNL     1      14.372   7.586   8.947  1.00  0.00    -0.285 N
ATOM     14  H5  UNL     1      13.165   8.652   7.712  1.00  0.00     0.208 HD
ATOM     15  H4  UNL     1      14.118   6.700   8.510  1.00  0.00     0.188 HD
BRANCH  11  16
HETATM   16  C16 UNL     1      13.513  11.102   8.508  1.00  0.00     0.156 C
BRANCH  16  17
HETATM   17  C17 UNL     1      12.828  10.900   7.152  1.00  0.00     0.051 C
BRANCH  17  18
HETATM   18  C18 UNL     1      11.322  10.955   7.383  1.00  0.00     0.211 C
BRANCH  18  19
HETATM   19  O5  UNL     1      10.841   9.654   7.594  1.00  0.00    -0.243 OA
BRANCH  19  20
HETATM   20  O6  UNL     1       9.527   9.659   7.731  1.00  0.00    -0.251 OA
ATOM     21  H6  UNL     1       9.183   8.775   7.696  1.00  0.00     0.253 HD
ENDBRANCH  19  20
ENDBRANCH  18  19
ENDBRANCH  17  18
ENDBRANCH  16  17
ENDBRANCH  11  16
ENDBRANCH   1   7
BRANCH   5  22
HETATM   22  N3  UNL     1      17.592   4.930  13.332  1.00  0.00    -0.113 N
HETATM   23  O3  UNL     1      16.897   4.737  14.373  1.00  0.00    -0.532 OA
HETATM   24  O4  UNL     1      18.910   5.080  13.483  1.00  0.00    -0.532 OA
ENDBRANCH   5  22
BRANCH   4  25
HETATM   25  N1  UNL     1      17.364   2.616  11.646  1.00  0.00    -0.376 N
HETATM   26  C8  UNL     1      18.694   2.246  11.276  1.00  0.00     0.142 C
HETATM   27  C9  UNL     1      18.993   0.790  11.277  1.00  0.00     0.136 C
HETATM   28  N2  UNL     1      18.238  -0.026  12.158  1.00  0.00    -0.407 N
HETATM   29  C12 UNL     1      17.315   0.617  13.018  1.00  0.00     0.136 C
HETATM   30  C13 UNL     1      16.541   1.733  12.407  1.00  0.00     0.142 C
BRANCH  28  31
HETATM   31  C10 UNL     1      17.781  -1.268  11.623  1.00  0.00     0.143 C
BRANCH  31  32
HETATM   32  C11 UNL     1      18.885  -2.271  11.422  1.00  0.00     0.183 C
BRANCH  32  33
HETATM   33  O2  UNL     1      18.391  -3.560  11.526  1.00  0.00    -0.399 OA
ATOM     34  H2  UNL     1      18.499  -3.885  12.412  1.00  0.00     0.209 HD
ENDBRANCH  32  33
ENDBRANCH  31  32
ENDBRANCH  28  31
ENDBRANCH   4  25
TORSDOF 11
ENDMDL