MODEL 3
REMARK VINA RESULT: -7.218433958      2.733      4.352
REMARK  10 active torsions:
REMARK  status: ('A' for Active; 'I' for Inactive)
REMARK    1  A    between atoms: O1_2  and  C2_3
REMARK    2  A    between atoms: C2_3  and  C3_4
REMARK    3  A    between atoms: C3_4  and  O2_5
REMARK    4  A    between atoms: O2_5  and  C4_6
REMARK    5  A    between atoms: C4_6  and  N1_7
REMARK    6  A    between atoms: C4_6  and  C16_30
REMARK    7  A    between atoms: N1_7  and  C5_9
REMARK    8  A    between atoms: C6_12  and  N3_13
REMARK    9  A    between atoms: C11_21  and  N5_22
REMARK   10  A    between atoms: C16_30  and  O5_32
ROOT
HETATM    1  O5  UNL     1      16.328   0.342  10.710  1.00  0.00    -0.274 OA
HETATM    2  C18 UNL     1      15.591   1.476  10.532  1.00  0.00     0.229 C
HETATM    3  N7  UNL     1      14.966   2.440  10.361  1.00  0.00    -0.164 NA
ENDROOT
BRANCH   1   4
HETATM    4  C16 UNL     1      17.393   0.260  11.640  1.00  0.00     0.187 C
HETATM    5  C17 UNL     1      17.640  -1.201  11.937  1.00  0.00     0.046 C
BRANCH   4   6
HETATM    6  C4  UNL     1      17.010   0.981  12.941  1.00  0.00     0.267 C
BRANCH   6   7
HETATM    7  O2  UNL     1      16.844   0.104  13.975  1.00  0.00    -0.361 OA
BRANCH   7   8
HETATM    8  C3  UNL     1      17.254   0.563  15.208  1.00  0.00     0.196 C
BRANCH   8   9
HETATM    9  C2  UNL     1      16.173   1.241  16.010  1.00  0.00     0.193 C
BRANCH   9  10
HETATM   10  O1  UNL     1      15.242   0.408  16.569  1.00  0.00    -0.394 OA
HETATM   11  C1  UNL     1      14.212   1.091  17.182  1.00  0.00     0.201 C
ENDBRANCH   9  10
ENDBRANCH   8   9
ENDBRANCH   7   8
ENDBRANCH   6   7
BRANCH   6  12
HETATM   12  N1  UNL     1      18.085   1.900  13.219  1.00  0.00    -0.196 N
ATOM     13  H1  UNL     1      18.701   1.683  14.004  1.00  0.00     0.180 HD
BRANCH  12  14
HETATM   14  C5  UNL     1      18.324   2.965  12.555  1.00  0.00     0.709 A
HETATM   15  N2  UNL     1      17.395   3.862  12.182  1.00  0.00    -0.021 N
HETATM   16  C6  UNL     1      17.690   4.971  11.482  1.00  0.00     0.709 A
ATOM     17  H2  UNL     1      16.423   3.693  12.441  1.00  0.00     0.203 HD
HETATM   18  N4  UNL     1      18.967   5.211  11.133  1.00  0.00    -0.021 N
HETATM   19  C11 UNL     1      19.928   4.333  11.489  1.00  0.00     0.709 A
ATOM     20  H4  UNL     1      19.207   6.048  10.602  1.00  0.00     0.203 HD
HETATM   21  N6  UNL     1      19.598   3.215  12.200  1.00  0.00    -0.021 N
ATOM     22  H6  UNL     1      20.330   2.557  12.465  1.00  0.00     0.203 HD
BRANCH  16  23
HETATM   23  N3  UNL     1      16.723   5.931  11.078  1.00  0.00    -0.213 N
HETATM   24  C7  UNL     1      16.020   5.780   9.809  1.00  0.00     0.167 C
HETATM   25  C8  UNL     1      16.204   7.082   9.058  1.00  0.00     0.188 C
HETATM   26  O3  UNL     1      15.798   8.162   9.793  1.00  0.00    -0.388 OA
HETATM   27  C9  UNL     1      15.331   7.861  11.057  1.00  0.00     0.188 C
HETATM   28  C10 UNL     1      16.376   7.092  11.872  1.00  0.00     0.167 C
ENDBRANCH  16  23
BRANCH  19  29
HETATM   29  N5  UNL     1      21.285   4.581  11.121  1.00  0.00    -0.213 N
HETATM   30  C12 UNL     1      21.750   3.987   9.890  1.00  0.00     0.167 C
HETATM   31  C13 UNL     1      23.229   3.885   9.771  1.00  0.00     0.188 C
HETATM   32  O4  UNL     1      23.944   4.448  10.798  1.00  0.00    -0.388 OA
HETATM   33  C14 UNL     1      23.428   5.689  11.171  1.00  0.00     0.188 C
HETATM   34  C15 UNL     1      22.151   5.394  11.952  1.00  0.00     0.167 C
ENDBRANCH  19  29
ENDBRANCH  12  14
ENDBRANCH   6  12
ENDBRANCH   4   6
ENDBRANCH   1   4
TORSDOF 10
ENDMDL