MODEL 1
REMARK VINA RESULT: -7.870594308      0.000      0.000
REMARK  10 active torsions:
REMARK  status: ('A' for Active; 'I' for Inactive)
REMARK    1  A    between atoms: N1_2  and  C2_3
REMARK       I    between atoms: N1_2  and  C15_23
REMARK    2  A    between atoms: C2_3  and  C3_4
REMARK    3  A    between atoms: C3_4  and  O1_5
REMARK    4  A    between atoms: C3_4  and  C4_7
REMARK    5  A    between atoms: C4_7  and  N2_8
REMARK    6  A    between atoms: N3_11  and  C7_12
REMARK    7  A    between atoms: C11_18  and  C12_19
REMARK    8  A    between atoms: C15_23  and  C16_25
REMARK    9  A    between atoms: C16_25  and  N5_26
REMARK   10  A    between atoms: C18_30  and  N7_31
ROOT
HETATM    1  C3  UNL     1      15.951   2.980   9.561  1.00  0.00     0.164 C
ENDROOT
BRANCH   1   2
HETATM    2  C2  UNL     1      15.953   1.470   9.345  1.00  0.00     0.158 C
BRANCH   2   3
HETATM    3  N1  UNL     1      16.952   0.922  10.234  1.00  0.00    -0.352 N
HETATM    4  C1  UNL     1      18.090   0.234   9.691  1.00  0.00     0.152 C
HETATM    5  C15 UNL     1      16.812   1.070  11.638  1.00  0.00     0.240 C
HETATM    6  O3  UNL     1      15.789   1.669  12.107  1.00  0.00    -0.271 OA
BRANCH   5   7
HETATM    7  C16 UNL     1      17.780   0.575  12.615  1.00  0.00     0.272 C
BRANCH   7   8
HETATM    8  N5  UNL     1      17.434   1.025  13.947  1.00  0.00    -0.224 N
HETATM    9  N6  UNL     1      17.889   2.111  14.558  1.00  0.00    -0.291 N
HETATM   10  C17 UNL     1      17.347   2.188  15.789  1.00  0.00     0.165 A
ATOM     11  H6  UNL     1      18.546   2.781  14.160  1.00  0.00     0.188 HD
HETATM   12  C18 UNL     1      16.524   1.100  15.934  1.00  0.00     0.206 A
HETATM   13  N8  UNL     1      16.612   0.421  14.783  1.00  0.00    -0.262 N
ATOM     14  H8  UNL     1      16.111  -0.444  14.580  1.00  0.00     0.190 HD
BRANCH  12  15
HETATM   15  N7  UNL     1      15.741   0.752  17.060  1.00  0.00    -0.095 N
HETATM   16  O4  UNL     1      16.213   0.698  18.202  1.00  0.00    -0.530 OA
HETATM   17  O5  UNL     1      14.413   0.462  16.884  1.00  0.00    -0.530 OA
ENDBRANCH  12  15
ENDBRANCH   7   8
ENDBRANCH   5   7
ENDBRANCH   2   3
ENDBRANCH   1   2
BRANCH   1  18
HETATM   18  O1  UNL     1      14.763   3.375  10.126  1.00  0.00    -0.392 OA
ATOM     19  H1  UNL     1      14.883   4.185  10.607  1.00  0.00     0.210 HD
ENDBRANCH   1  18
BRANCH   1  20
HETATM   20  C4  UNL     1      16.330   3.738   8.310  1.00  0.00     0.305 C
BRANCH  20  21
HETATM   21  N2  UNL     1      17.451   4.603   8.654  1.00  0.00     0.094 N
HETATM   22  C5  UNL     1      18.130   4.111   9.842  1.00  0.00     0.292 C
HETATM   23  C6  UNL     1      18.848   5.278  10.458  1.00  0.00     0.154 C
HETATM   24  N3  UNL     1      17.777   6.071  11.135  1.00  0.00    -0.363 N
HETATM   25  C13 UNL     1      16.641   6.239  10.297  1.00  0.00     0.154 C
HETATM   26  C14 UNL     1      17.021   5.976   8.819  1.00  0.00     0.292 C
BRANCH  24  27
HETATM   27  C7  UNL     1      18.079   6.529  12.419  1.00  0.00     0.116 A
HETATM   28  N4  UNL     1      19.078   7.478  12.537  1.00  0.00    -0.352 N
HETATM   29  C8  UNL     1      19.448   8.027  13.692  1.00  0.00     0.089 A
ATOM     30  H4  UNL     1      19.560   7.775  11.688  1.00  0.00     0.166 HD
HETATM   31  C9  UNL     1      18.854   7.689  14.886  1.00  0.00     0.018 A
HETATM   32  C10 UNL     1      17.853   6.746  14.814  1.00  0.00     0.020 A
HETATM   33  C11 UNL     1      17.470   6.172  13.596  1.00  0.00     0.045 A
BRANCH  33  34
HETATM   34  C12 UNL     1      16.443   5.165  13.640  1.00  0.00     0.273 C
HETATM   35  O2  UNL     1      15.292   5.543  14.094  1.00  0.00    -0.301 OA
ENDBRANCH  33  34
ENDBRANCH  24  27
ENDBRANCH  20  21
ENDBRANCH   1  20
TORSDOF 10
ENDMDL