MODEL 3
REMARK VINA RESULT: -6.001277427      3.296      6.232
REMARK  6 active torsions:
REMARK  status: ('A' for Active; 'I' for Inactive)
REMARK    1  A    between atoms: S1_2  and  N1_3
REMARK    2  A    between atoms: N1_3  and  N2_5
REMARK    3  A    between atoms: N2_5  and  C2_7
REMARK    4  A    between atoms: N4_12  and  C4_13
REMARK    5  A    between atoms: C6_19  and  N7_20
REMARK    6  A    between atoms: N7_20  and  N8_22
ROOT
HETATM    1  C2  UNL     1      16.943   0.137  15.479  1.00  0.00     0.717 A
HETATM    2  N3  UNL     1      16.811  -0.848  14.539  1.00  0.00    -0.136 N
ATOM      3  H3  UNL     1      16.537  -1.816  14.706  1.00  0.00     0.189 HD
HETATM    4  C3  UNL     1      17.108  -0.302  13.370  1.00  0.00     0.375 A
HETATM    5  O1  UNL     1      17.099  -0.905  12.247  1.00  0.00    -0.244 OA
HETATM    6  N4  UNL     1      17.427   1.011  13.555  1.00  0.00    -0.016 N
HETATM    7  N10 UNL     1      17.316   1.242  14.841  1.00  0.00    -0.105 N
ATOM      8  H10 UNL     1      17.492   2.142  15.288  1.00  0.00     0.207 HD
ENDROOT
BRANCH   6   9
HETATM    9  C4  UNL     1      17.795   1.840  12.462  1.00  0.00     0.723 A
HETATM   10  N5  UNL     1      18.902   1.537  11.749  1.00  0.00    -0.185 N
HETATM   11  C5  UNL     1      19.283   2.285  10.684  1.00  0.00     0.215 A
ATOM     12  H5  UNL     1      19.462   0.727  12.017  1.00  0.00     0.185 HD
HETATM   13  N6  UNL     1      18.574   3.354  10.299  1.00  0.00    -0.185 N
HETATM   14  C6  UNL     1      17.461   3.680  10.997  1.00  0.00     0.713 A
ATOM     15  H6  UNL     1      18.867   3.912   9.497  1.00  0.00     0.185 HD
HETATM   16  N9  UNL     1      17.094   2.913  12.067  1.00  0.00    -0.019 N
ATOM     17  H9  UNL     1      16.253   3.167  12.586  1.00  0.00     0.203 HD
BRANCH  14  18
HETATM   18  N7  UNL     1      16.663   4.782  10.625  1.00  0.00    -0.134 N
HETATM   19  C7  UNL     1      16.273   5.782  11.588  1.00  0.00     0.197 C
BRANCH  18  20
HETATM   20  N8  UNL     1      16.224   4.913   9.318  1.00  0.00    -0.329 N
ATOM     21  H82 UNL     1      15.872   4.087   8.834  1.00  0.00     0.177 HD
ATOM     22  H81 UNL     1      16.267   5.820   8.852  1.00  0.00     0.177 HD
ENDBRANCH  18  20
ENDBRANCH  14  18
ENDBRANCH   6   9
BRANCH   1  23
HETATM   23  N2  UNL     1      16.712  -0.117  16.705  1.00  0.00    -0.125 N
ATOM     24  H2  UNL     1      17.508   0.001  17.332  1.00  0.00     0.206 HD
BRANCH  23  25
HETATM   25  N1  UNL     1      15.552  -0.528  17.307  1.00  0.00    -0.260 N
ATOM     26  H1  UNL     1      15.552  -1.323  17.945  1.00  0.00     0.195 HD
BRANCH  25  27
HETATM   27  S1  UNL     1      14.059   0.345  16.958  1.00  0.00    -0.043 SA
HETATM   28  C1  UNL     1      14.350   2.136  16.842  1.00  0.00     0.116 C
ENDBRANCH  25  27
ENDBRANCH  23  25
ENDBRANCH   1  23
TORSDOF 6
ENDMDL