MODEL 5
REMARK VINA RESULT: -6.446330361      2.436      5.214
REMARK  6 active torsions:
REMARK  status: ('A' for Active; 'I' for Inactive)
REMARK    1  A    between atoms: N1_1  and  C1_4
REMARK    2  A    between atoms: N4_10  and  C4_12
REMARK    3  A    between atoms: C4_12  and  C5_13
REMARK    4  A    between atoms: C5_13  and  O1_14
REMARK    5  A    between atoms: O1_14  and  C6_15
REMARK    6  A    between atoms: C6_15  and  C7_16
ROOT
HETATM    1  C1  UNL     1      20.567   2.651  10.191  1.00  0.00     0.692 A
HETATM    2  N2  UNL     1      19.893   1.514  10.004  1.00  0.00    -0.170 N
ATOM      3  H2  UNL     1      20.039   0.982   9.146  1.00  0.00     0.186 HD
HETATM    4  C2  UNL     1      19.027   1.057  10.921  1.00  0.00     0.216 A
HETATM    5  N3  UNL     1      18.819   1.752  12.069  1.00  0.00    -0.061 N
HETATM    6  C3  UNL     1      19.484   2.915  12.303  1.00  0.00     0.719 A
HETATM    7  N4  UNL     1      19.350   3.615  13.332  1.00  0.00    -0.201 N
ATOM      8  H4  UNL     1      19.941   4.446  13.301  1.00  0.00     0.183 HD
HETATM    9  N7  UNL     1      20.352   3.315  11.317  1.00  0.00    -0.021 N
ATOM     10  H7  UNL     1      20.866   4.183  11.461  1.00  0.00     0.203 HD
HETATM   11  N8  UNL     1      17.882   1.075  12.850  1.00  0.00    -0.240 N
ATOM     12  H8  UNL     1      17.546   1.381  13.763  1.00  0.00     0.191 HD
HETATM   13  C10 UNL     1      17.468  -0.109  12.175  1.00  0.00     0.315 A
HETATM   14  O2  UNL     1      16.641  -0.979  12.550  1.00  0.00    -0.262 OA
HETATM   15  C11 UNL     1      18.187  -0.163  10.914  1.00  0.00     0.287 A
HETATM   16  O3  UNL     1      18.145  -1.013  10.004  1.00  0.00    -0.278 OA
ENDROOT
BRANCH   7  17
HETATM   17  C4  UNL     1      18.601   3.558  14.517  1.00  0.00     0.105 C
BRANCH  17  18
HETATM   18  C5  UNL     1      17.211   4.172  14.348  1.00  0.00     0.213 C
BRANCH  18  19
HETATM   19  O1  UNL     1      16.310   3.228  14.012  1.00  0.00    -0.379 OA
BRANCH  19  20
HETATM   20  C6  UNL     1      15.123   3.224  14.696  1.00  0.00     0.243 C
BRANCH  20  21
HETATM   21  C7  UNL     1      15.157   2.072  15.684  1.00  0.00     0.097 C
HETATM   22  N5  UNL     1      15.938   1.067  15.546  1.00  0.00    -0.377 N
HETATM   23  C8  UNL     1      15.737   0.128  16.657  1.00  0.00     0.140 C
ATOM     24  H5  UNL     1      16.599   0.938  14.781  1.00  0.00     0.160 HD
HETATM   25  C9  UNL     1      14.950   0.912  17.685  1.00  0.00     0.140 C
HETATM   26  N6  UNL     1      14.357   1.960  16.850  1.00  0.00    -0.377 N
ATOM     27  H6  UNL     1      13.524   2.508  17.067  1.00  0.00     0.160 HD
ENDBRANCH  20  21
ENDBRANCH  19  20
ENDBRANCH  18  19
ENDBRANCH  17  18
ENDBRANCH   7  17
BRANCH   1  28
HETATM   28  N1  UNL     1      21.413   3.107   9.308  1.00  0.00    -0.234 N
ATOM     29  H12 UNL     1      21.487   2.669   8.390  1.00  0.00     0.174 HD
ATOM     30  H11 UNL     1      22.020   3.904   9.501  1.00  0.00     0.174 HD
ENDBRANCH   1  28
TORSDOF 6
ENDMDL