MODEL 3
REMARK VINA RESULT: -6.992098026      2.835      5.470
REMARK  6 active torsions:
REMARK  status: ('A' for Active; 'I' for Inactive)
REMARK    1  A    between atoms: C2_2  and  C3_3
REMARK    2  A    between atoms: C2_2  and  C4_6
REMARK    3  A    between atoms: C2_2  and  N6_22
REMARK    4  A    between atoms: C3_3  and  O1_4
REMARK    5  A    between atoms: C4_6  and  N1_7
REMARK    6  A    between atoms: N6_22  and  C9_24
ROOT
HETATM    1  C9  UNL     1      19.030   1.715  11.073  1.00  0.00     0.294 C
HETATM    2  C10 UNL     1      18.917   0.265  11.138  1.00  0.00     0.099 C
HETATM    3  N7  UNL     1      18.845  -0.904  11.160  1.00  0.00    -0.194 NA
HETATM    4  C11 UNL     1      20.191   2.072  10.213  1.00  0.00     0.099 C
HETATM    5  N8  UNL     1      21.081   2.352   9.528  1.00  0.00    -0.194 NA
ENDROOT
BRANCH   1   6
HETATM    6  N6  UNL     1      19.137   2.316  12.329  1.00  0.00    -0.383 N
ATOM      7  H6  UNL     1      20.020   2.256  12.835  1.00  0.00     0.156 HD
BRANCH   6   8
HETATM    8  C2  UNL     1      18.054   3.003  12.915  1.00  0.00     0.063 C
HETATM    9  C1  UNL     1      18.335   3.576  14.256  1.00  0.00     0.042 C
BRANCH   8  10
HETATM   10  C3  UNL     1      17.812   4.225  11.991  1.00  0.00     0.196 C
BRANCH  10  11
HETATM   11  O1  UNL     1      16.451   4.118  11.634  1.00  0.00    -0.398 OA
ATOM     12  H1  UNL     1      16.315   3.185  11.524  1.00  0.00     0.209 HD
ENDBRANCH  10  11
ENDBRANCH   8  10
BRANCH   8  13
HETATM   13  C4  UNL     1      16.837   2.112  12.849  1.00  0.00     0.184 C
BRANCH  13  14
HETATM   14  N1  UNL     1      16.708   1.196  13.955  1.00  0.00    -0.257 N
HETATM   15  N2  UNL     1      17.289   0.017  14.060  1.00  0.00    -0.238 N
HETATM   16  N3  UNL     1      16.975  -0.595  15.187  1.00  0.00    -0.278 N
ATOM     17  H2  UNL     1      17.910  -0.377  13.352  1.00  0.00     0.208 HD
HETATM   18  C5  UNL     1      16.152   0.213  15.854  1.00  0.00     0.163 A
ATOM     19  H3  UNL     1      17.300  -1.512  15.491  1.00  0.00     0.189 HD
HETATM   20  C6  UNL     1      15.527   0.064  17.096  1.00  0.00     0.281 A
HETATM   21  C8  UNL     1      15.991   1.321  15.083  1.00  0.00     0.161 A
HETATM   22  O2  UNL     1      15.673  -0.951  17.802  1.00  0.00    -0.265 OA
HETATM   23  N4  UNL     1      14.742   1.072  17.516  1.00  0.00    -0.273 N
HETATM   24  C7  UNL     1      14.579   2.177  16.753  1.00  0.00     0.328 A
ATOM     25  H4  UNL     1      14.267   1.003  18.416  1.00  0.00     0.173 HD
HETATM   26  O3  UNL     1      13.836   3.113  17.169  1.00  0.00    -0.247 OA
HETATM   27  N5  UNL     1      15.196   2.297  15.555  1.00  0.00    -0.291 N
ATOM     28  H5  UNL     1      15.054   3.142  15.000  1.00  0.00     0.172 HD
ENDBRANCH  13  14
ENDBRANCH   8  13
ENDBRANCH   6   8
ENDBRANCH   1   6
TORSDOF 6
ENDMDL