MODEL 3
REMARK VINA RESULT: -6.578476376      1.588      1.604
REMARK  8 active torsions:
REMARK  status: ('A' for Active; 'I' for Inactive)
REMARK    1  A    between atoms: O1_2  and  N1_3
REMARK    2  A    between atoms: N1_3  and  C2_5
REMARK    3  A    between atoms: C5_11  and  S1_12
REMARK    4  A    between atoms: S1_12  and  N4_13
REMARK    5  A    between atoms: C7_19  and  N7_20
REMARK    6  A    between atoms: N7_20  and  C8_22
REMARK    7  A    between atoms: C8_22  and  C9_23
REMARK    8  A    between atoms: C9_23  and  O2_24
ROOT
HETATM    1  C2  UNL     1      16.890   0.386  14.804  1.00  0.00     0.731 A
HETATM    2  N2  UNL     1      16.839   1.728  14.836  1.00  0.00    -0.019 N
ATOM      3  H2  UNL     1      16.738   2.189  15.741  1.00  0.00     0.203 HD
HETATM    4  C3  UNL     1      16.915   2.496  13.728  1.00  0.00     0.722 A
HETATM    5  N3  UNL     1      16.883   3.837  13.553  1.00  0.00    -0.175 N
HETATM    6  C4  UNL     1      16.750   4.841  14.602  1.00  0.00     0.176 C
HETATM    7  C5  UNL     1      16.995   4.105  12.241  1.00  0.00     0.151 A
HETATM    8  C6  UNL     1      17.097   2.879  11.611  1.00  0.00     0.193 A
HETATM    9  N5  UNL     1      17.233   2.710  10.203  1.00  0.00    -0.078 NA
HETATM   10  N6  UNL     1      17.048   1.889  12.521  1.00  0.00     0.040 N
HETATM   11  C7  UNL     1      17.102   0.547  12.456  1.00  0.00     0.715 A
HETATM   12  N8  UNL     1      17.023  -0.188  13.595  1.00  0.00    -0.019 N
ATOM     13  H8  UNL     1      17.066  -1.205  13.532  1.00  0.00     0.203 HD
ENDROOT
BRANCH  11  14
HETATM   14  N7  UNL     1      17.229  -0.001  11.293  1.00  0.00    -0.223 N
ATOM     15  H7  UNL     1      16.508   0.111  10.580  1.00  0.00     0.177 HD
BRANCH  14  16
HETATM   16  C8  UNL     1      18.415  -0.771  11.029  1.00  0.00     0.164 C
BRANCH  16  17
HETATM   17  C9  UNL     1      19.613   0.166  11.062  1.00  0.00     0.184 C
BRANCH  17  18
HETATM   18  O2  UNL     1      19.636   0.819   9.823  1.00  0.00    -0.399 OA
ATOM     19  H2  UNL     1      20.304   0.385   9.306  1.00  0.00     0.209 HD
ENDBRANCH  17  18
ENDBRANCH  16  17
ENDBRANCH  14  16
ENDBRANCH  11  14
BRANCH   1  20
HETATM   20  N1  UNL     1      16.817  -0.355  15.868  1.00  0.00    -0.096 N
ATOM     21  H1  UNL     1      17.687  -0.598  16.343  1.00  0.00     0.213 HD
BRANCH  20  22
HETATM   22  O1  UNL     1      15.659  -0.822  16.386  1.00  0.00    -0.271 OA
HETATM   23  C1  UNL     1      14.756  -0.040  17.120  1.00  0.00     0.238 C
ENDBRANCH  20  22
ENDBRANCH   1  20
BRANCH   7  24
HETATM   24  S1  UNL     1      17.012   5.715  11.439  1.00  0.00     0.001 SA
BRANCH  24  25
HETATM   25  N4  UNL     1      16.037   5.647   9.979  1.00  0.00    -0.368 N
ATOM     26  H42 UNL     1      16.378   5.338   9.070  1.00  0.00     0.164 HD
ATOM     27  H41 UNL     1      15.091   5.964  10.190  1.00  0.00     0.164 HD
ENDBRANCH  24  25
ENDBRANCH   7  24
TORSDOF 8
ENDMDL