MODEL 1
REMARK VINA RESULT: -7.254198499      0.000      0.000
REMARK  8 active torsions:
REMARK  status: ('A' for Active; 'I' for Inactive)
REMARK    1  A    between atoms: O1_1  and  N1_3
REMARK    2  A    between atoms: C2_5  and  O2_6
REMARK    3  A    between atoms: C3_10  and  N3_11
REMARK    4  A    between atoms: N7_24  and  C9_25
REMARK    5  A    between atoms: C9_25  and  O3_26
REMARK    6  A    between atoms: O3_26  and  C10_27
REMARK    7  A    between atoms: C10_27  and  C11_28
REMARK    8  A    between atoms: C11_28  and  O4_29
ROOT
HETATM    1  N3  UNL     1      16.763   2.240  14.846  1.00  0.00    -0.315 N
ATOM      2  H3  UNL     1      16.879   3.236  15.030  1.00  0.00     0.170 HD
HETATM    3  C4  UNL     1      17.257   1.719  13.777  1.00  0.00     0.139 A
HETATM    4  N4  UNL     1      17.148   0.416  13.462  1.00  0.00    -0.337 N
ATOM      5  H4  UNL     1      16.647  -0.206  14.097  1.00  0.00     0.168 HD
HETATM    6  C5  UNL     1      17.679  -0.095  12.333  1.00  0.00     0.183 A
HETATM    7  N5  UNL     1      18.350   0.672  11.453  1.00  0.00    -0.336 N
ATOM      8  H5  UNL     1      18.745   0.272  10.602  1.00  0.00     0.168 HD
HETATM    9  C6  UNL     1      18.484   1.995  11.732  1.00  0.00     0.142 A
HETATM   10  C7  UNL     1      17.944   2.521  12.883  1.00  0.00     0.122 A
HETATM   11  N6  UNL     1      18.218   3.816  12.906  1.00  0.00    -0.346 N
ATOM     12  H6  UNL     1      17.946   4.471  13.639  1.00  0.00     0.167 HD
HETATM   13  C8  UNL     1      18.917   4.123  11.798  1.00  0.00     0.187 A
HETATM   14  N7  UNL     1      19.088   3.007  11.065  1.00  0.00    -0.305 N
ENDROOT
BRANCH   1  15
HETATM   15  C3  UNL     1      16.056   1.420  15.769  1.00  0.00     0.183 C
HETATM   16  N1  UNL     1      16.511   0.160  16.242  1.00  0.00    -0.129 NA
HETATM   17  C1  UNL     1      15.861   0.066  17.532  1.00  0.00     0.183 C
HETATM   18  C2  UNL     1      14.485   0.652  17.186  1.00  0.00     0.235 C
HETATM   19  N2  UNL     1      14.915   1.727  16.282  1.00  0.00    -0.337 N
ATOM     20  H2  UNL     1      14.392   2.582  16.090  1.00  0.00     0.164 HD
BRANCH  16  21
HETATM   21  O1  UNL     1      17.859   0.111  16.344  1.00  0.00    -0.305 OA
ATOM     22  H1  UNL     1      18.253  -0.411  15.655  1.00  0.00     0.237 HD
ENDBRANCH  16  21
BRANCH  18  23
HETATM   23  O2  UNL     1      13.778  -0.331  16.498  1.00  0.00    -0.376 OA
ATOM     24  H2  UNL     1      13.679  -0.031  15.601  1.00  0.00     0.212 HD
ENDBRANCH  18  23
ENDBRANCH   1  15
BRANCH  14  25
HETATM   25  C9  UNL     1      19.791   2.921   9.799  1.00  0.00     0.301 C
BRANCH  25  26
HETATM   26  O3  UNL     1      20.968   2.242   9.996  1.00  0.00    -0.369 OA
BRANCH  26  27
HETATM   27  C10 UNL     1      22.098   2.980   9.740  1.00  0.00     0.196 C
BRANCH  27  28
HETATM   28  C11 UNL     1      22.499   3.891  10.874  1.00  0.00     0.190 C
BRANCH  28  29
HETATM   29  O4  UNL     1      23.387   3.143  11.682  1.00  0.00    -0.399 OA
ATOM     30  H4  UNL     1      23.690   2.422  11.142  1.00  0.00     0.209 HD
ENDBRANCH  28  29
ENDBRANCH  27  28
ENDBRANCH  26  27
ENDBRANCH  25  26
ENDBRANCH  14  25
TORSDOF 8
ENDMDL