MODEL 2
REMARK VINA RESULT: -7.337727112      1.058      1.182
REMARK  6 active torsions:
REMARK  status: ('A' for Active; 'I' for Inactive)
REMARK    1  A    between atoms: N2_7  and  C5_8
REMARK    2  A    between atoms: C5_8  and  C6_9
REMARK    3  A    between atoms: C6_9  and  N3_10
REMARK    4  A    between atoms: C8_17  and  N7_18
REMARK    5  A    between atoms: N7_18  and  O1_20
REMARK    6  A    between atoms: N8_24  and  N9_25
ROOT
HETATM    1  C5  UNL     1      15.141   3.120  13.804  1.00  0.00     0.176 C
ENDROOT
BRANCH   1   2
HETATM    2  N2  UNL     1      16.366   2.693  13.170  1.00  0.00    -0.238 N
HETATM    3  N1  UNL     1      16.484   1.551  12.375  1.00  0.00    -0.278 N
HETATM    4  C4  UNL     1      17.833   1.466  11.933  1.00  0.00     0.148 A
ATOM      5  H1  UNL     1      15.735   0.895  12.150  1.00  0.00     0.189 HD
HETATM    6  C2  UNL     1      18.297   0.502  11.158  1.00  0.00    -0.040 C
HETATM    7  N8  UNL     1      18.579   2.554  12.446  1.00  0.00    -0.193 N
HETATM    8  C1  UNL     1      17.435  -0.598  10.671  1.00  0.00     0.047 C
HETATM    9  C3  UNL     1      19.729   0.499  10.747  1.00  0.00     0.047 C
HETATM   10  C10 UNL     1      17.632   3.317  13.223  1.00  0.00     0.363 A
HETATM   11  O2  UNL     1      17.954   4.362  13.828  1.00  0.00    -0.243 OA
BRANCH   7  12
HETATM   12  N9  UNL     1      19.930   2.873  12.272  1.00  0.00    -0.333 N
ATOM     13  H92 UNL     1      20.357   3.191  11.401  1.00  0.00     0.177 HD
ATOM     14  H91 UNL     1      20.698   2.846  12.943  1.00  0.00     0.177 HD
ENDBRANCH   7  12
ENDBRANCH   1   2
BRANCH   1  15
HETATM   15  C6  UNL     1      15.324   3.316  15.296  1.00  0.00     0.174 C
BRANCH  15  16
HETATM   16  N3  UNL     1      15.112   2.040  15.957  1.00  0.00    -0.260 N
HETATM   17  N4  UNL     1      14.012   1.901  16.734  1.00  0.00    -0.238 N
HETATM   18  N5  UNL     1      13.970   0.743  17.272  1.00  0.00    -0.270 N
ATOM     19  H4  UNL     1      13.309   2.627  16.873  1.00  0.00     0.208 HD
HETATM   20  C7  UNL     1      15.035   0.059  16.880  1.00  0.00     0.174 A
ATOM     21  H5  UNL     1      13.240   0.403  17.899  1.00  0.00     0.190 HD
HETATM   22  N6  UNL     1      15.347  -1.268  17.260  1.00  0.00    -0.078 NA
HETATM   23  C8  UNL     1      15.771   0.914  16.022  1.00  0.00     0.167 A
BRANCH  23  24
HETATM   24  N7  UNL     1      16.948   0.470  15.420  1.00  0.00    -0.148 NA
HETATM   25  C9  UNL     1      16.965  -0.750  14.705  1.00  0.00     0.152 C
BRANCH  24  26
HETATM   26  O1  UNL     1      17.951   0.434  16.387  1.00  0.00    -0.307 OA
ATOM     27  H1  UNL     1      18.750   0.122  15.979  1.00  0.00     0.237 HD
ENDBRANCH  24  26
ENDBRANCH  23  24
ENDBRANCH  15  16
ENDBRANCH   1  15
TORSDOF 6
ENDMDL