MODEL 3
REMARK VINA RESULT: -7.655139665      1.543      3.286
REMARK  6 active torsions:
REMARK  status: ('A' for Active; 'I' for Inactive)
REMARK    1  A    between atoms: N3_8  and  C5_10
REMARK    2  A    between atoms: C5_10  and  C6_11
REMARK    3  A    between atoms: N4_12  and  C7_14
REMARK    4  A    between atoms: C7_14  and  C9_17
REMARK    5  A    between atoms: C9_17  and  O1_18
REMARK    6  A    between atoms: C10_22  and  N7_23
ROOT
HETATM    1  C7  UNL     1      15.180   0.739  16.142  1.00  0.00     0.212 C
HETATM    2  C8  UNL     1      16.680   0.611  16.173  1.00  0.00     0.086 C
HETATM    3  N5  UNL     1      17.829   0.522  16.179  1.00  0.00    -0.195 NA
ENDROOT
BRANCH   1   4
HETATM    4  N4  UNL     1      14.867   2.102  16.203  1.00  0.00    -0.379 N
HETATM    5  C6  UNL     1      15.425   3.102  15.460  1.00  0.00     0.102 C
ATOM      6  H4  UNL     1      14.148   2.376  16.871  1.00  0.00     0.160 HD
BRANCH   5   7
HETATM    7  C5  UNL     1      15.126   3.216  13.969  1.00  0.00     0.123 C
BRANCH   7   8
HETATM    8  N3  UNL     1      16.230   2.901  13.194  1.00  0.00    -0.198 N
HETATM    9  C4  UNL     1      16.881   2.016  12.643  1.00  0.00     0.719 A
HETATM   10  N2  UNL     1      17.990   2.460  11.959  1.00  0.00    -0.065 N
HETATM   11  N6  UNL     1      16.615   0.684  12.663  1.00  0.00    -0.021 N
HETATM   12  N1  UNL     1      18.283   3.758  11.913  1.00  0.00    -0.288 N
HETATM   13  C11 UNL     1      18.767   1.568  11.338  1.00  0.00     0.211 A
HETATM   14  C3  UNL     1      19.345   4.272  11.266  1.00  0.00     0.123 A
ATOM     15  H1  UNL     1      17.663   4.404  12.401  1.00  0.00     0.187 HD
HETATM   16  C2  UNL     1      20.173   3.388  10.615  1.00  0.00     0.025 A
HETATM   17  C1  UNL     1      21.231   3.860   9.971  1.00  0.00     0.029 C
HETATM   18  C12 UNL     1      19.888   2.048  10.648  1.00  0.00     0.229 A
HETATM   19  O2  UNL     1      20.616   1.209  10.065  1.00  0.00    -0.283 OA
HETATM   20  N8  UNL     1      18.472   0.241  11.376  1.00  0.00    -0.170 N
HETATM   21  C10 UNL     1      17.395  -0.213  12.038  1.00  0.00     0.692 A
ATOM     22  H8  UNL     1      19.079  -0.421  10.892  1.00  0.00     0.186 HD
ATOM     23  H6  UNL     1      15.794   0.354  13.171  1.00  0.00     0.203 HD
ATOM     24  H3  UNL     1      16.707   3.780  12.994  1.00  0.00     0.183 HD
BRANCH  21  25
HETATM   25  N7  UNL     1      17.102  -1.480  12.078  1.00  0.00    -0.234 N
ATOM     26  H72 UNL     1      16.608  -1.890  12.871  1.00  0.00     0.174 HD
ATOM     27  H71 UNL     1      17.367  -2.094  11.308  1.00  0.00     0.174 HD
ENDBRANCH  21  25
ENDBRANCH   7   8
ENDBRANCH   5   7
ENDBRANCH   1   4
BRANCH   1  28
HETATM   28  C9  UNL     1      14.666  -0.118  17.274  1.00  0.00     0.204 C
BRANCH  28  29
HETATM   29  O1  UNL     1      15.406  -1.322  17.260  1.00  0.00    -0.398 OA
ATOM     30  H1  UNL     1      16.253  -1.138  17.651  1.00  0.00     0.209 HD
ENDBRANCH  28  29
ENDBRANCH   1  28
TORSDOF 6
ENDMDL