MODEL 2
REMARK VINA RESULT: -7.687345859      2.555      5.680
REMARK  4 active torsions:
REMARK  status: ('A' for Active; 'I' for Inactive)
REMARK    1  A    between atoms: N1_2  and  N2_3
REMARK    2  A    between atoms: N1_2  and  N5_16
REMARK    3  A    between atoms: N2_3  and  C2_5
REMARK    4  A    between atoms: N6_18  and  C7_20
ROOT
HETATM    1  C1  UNL     1      18.141  -2.184  11.398  1.00  0.00     0.201 C
HETATM    2  N1  UNL     1      18.041  -0.755  11.074  1.00  0.00    -0.225 N
ENDROOT
BRANCH   2   3
HETATM    3  N2  UNL     1      19.077  -0.013  10.826  1.00  0.00    -0.294 N
ATOM      4  H2  UNL     1      19.266  -0.279   9.859  1.00  0.00     0.187 HD
BRANCH   3   5
HETATM    5  C2  UNL     1      19.962   0.791  11.006  1.00  0.00     0.127 C
HETATM    6  C3  UNL     1      20.047   2.224  10.841  1.00  0.00     0.064 A
HETATM    7  C4  UNL     1      21.224   2.874  11.139  1.00  0.00     0.111 A
HETATM    8  C6  UNL     1      19.002   2.982  10.398  1.00  0.00     0.262 A
HETATM    9  N3  UNL     1      21.371   4.223  11.005  1.00  0.00    -0.318 N
HETATM   10  C5  UNL     1      20.307   4.927  10.563  1.00  0.00     0.327 A
ATOM     11  H3  UNL     1      22.252   4.683  11.231  1.00  0.00     0.170 HD
HETATM   12  O1  UNL     1      20.396   6.172  10.424  1.00  0.00    -0.247 OA
HETATM   13  N4  UNL     1      19.144   4.340  10.261  1.00  0.00    -0.275 N
ATOM     14  H4  UNL     1      18.361   4.902   9.929  1.00  0.00     0.173 HD
HETATM   15  O2  UNL     1      17.910   2.476  10.108  1.00  0.00    -0.267 OA
ENDBRANCH   3   5
ENDBRANCH   2   3
BRANCH   2  16
HETATM   16  N5  UNL     1      16.725  -0.240  11.033  1.00  0.00    -0.225 N
HETATM   17  N6  UNL     1      16.219   0.485  11.909  1.00  0.00    -0.265 N
ATOM     18  H6  UNL     1      15.258   0.785  11.747  1.00  0.00     0.190 HD
ATOM     19  H5  UNL     1      16.148  -0.481  10.227  1.00  0.00     0.210 HD
BRANCH  17  20
HETATM   20  C7  UNL     1      16.820   0.939  13.094  1.00  0.00     0.194 A
HETATM   21  N7  UNL     1      17.279   2.192  13.182  1.00  0.00    -0.266 N
HETATM   22  N8  UNL     1      17.852   2.676  14.265  1.00  0.00    -0.238 N
ATOM     23  H7  UNL     1      17.181   2.803  12.371  1.00  0.00     0.190 HD
HETATM   24  N9  UNL     1      17.991   1.906  15.331  1.00  0.00    -0.248 N
ATOM     25  H8  UNL     1      18.187   3.639  14.282  1.00  0.00     0.208 HD
HETATM   26  C8  UNL     1      17.550   0.626  15.315  1.00  0.00     0.315 A
ATOM     27  H9  UNL     1      18.433   2.279  16.171  1.00  0.00     0.192 HD
HETATM   28  O3  UNL     1      17.690  -0.096  16.339  1.00  0.00    -0.262 OA
HETATM   29  C9  UNL     1      16.952   0.117  14.189  1.00  0.00     0.287 A
HETATM   30  O4  UNL     1      16.547  -1.078  14.189  1.00  0.00    -0.278 OA
ENDBRANCH  17  20
ENDBRANCH   2  16
TORSDOF 4
ENDMDL