MODEL 2
REMARK VINA RESULT: -6.009707937      2.223      5.166
REMARK  8 active torsions:
REMARK  status: ('A' for Active; 'I' for Inactive)
REMARK    1  A    between atoms: N1_2  and  C3_4
REMARK    2  A    between atoms: C5_10  and  N4_11
REMARK    3  A    between atoms: N6_16  and  O1_17
REMARK    4  A    between atoms: N7_22  and  C8_23
REMARK    5  A    between atoms: C8_23  and  C9_24
REMARK    6  A    between atoms: C8_23  and  C10_27
REMARK    7  A    between atoms: C9_24  and  O3_25
REMARK    8  A    between atoms: C10_27  and  O4_28
ROOT
HETATM    1  C3  UNL     1      17.911   3.322  13.571  1.00  0.00     0.686 A
HETATM    2  N2  UNL     1      17.427   2.988  14.793  1.00  0.00    -0.173 N
ATOM      3  H2  UNL     1      17.347   3.707  15.512  1.00  0.00     0.186 HD
HETATM    4  C4  UNL     1      17.052   1.732  15.075  1.00  0.00     0.173 A
HETATM    5  N3  UNL     1      16.574   1.392  16.281  1.00  0.00    -0.172 N
ATOM      6  H3  UNL     1      16.487   2.096  17.014  1.00  0.00     0.186 HD
HETATM    7  C5  UNL     1      16.212   0.128  16.517  1.00  0.00     0.694 A
HETATM    8  N5  UNL     1      16.335  -0.788  15.534  1.00  0.00    -0.105 N
ATOM      9  H5  UNL     1      16.058  -1.751  15.721  1.00  0.00     0.208 HD
HETATM   10  N6  UNL     1      16.804  -0.478  14.338  1.00  0.00    -0.140 N
HETATM   11  C6  UNL     1      17.168   0.784  14.095  1.00  0.00     0.195 A
HETATM   12  C7  UNL     1      17.666   1.167  12.860  1.00  0.00     0.297 A
HETATM   13  O2  UNL     1      17.757   0.290  11.996  1.00  0.00    -0.265 OA
HETATM   14  N7  UNL     1      18.044   2.437  12.579  1.00  0.00    -0.136 N
ENDROOT
BRANCH  14  15
HETATM   15  C8  UNL     1      18.557   2.826  11.309  1.00  0.00     0.158 C
BRANCH  15  16
HETATM   16  C9  UNL     1      17.563   2.627  10.176  1.00  0.00     0.192 C
BRANCH  16  17
HETATM   17  O3  UNL     1      16.447   3.381  10.384  1.00  0.00    -0.399 OA
ATOM     18  H3  UNL     1      15.858   3.314   9.641  1.00  0.00     0.209 HD
ENDBRANCH  16  17
ENDBRANCH  15  16
BRANCH  15  19
HETATM   19  C10 UNL     1      19.845   2.061  10.969  1.00  0.00     0.192 C
BRANCH  19  20
HETATM   20  O4  UNL     1      19.684   1.203   9.907  1.00  0.00    -0.399 OA
ATOM     21  H4  UNL     1      20.400   0.584   9.826  1.00  0.00     0.209 HD
ENDBRANCH  19  20
ENDBRANCH  15  19
ENDBRANCH  14  15
BRANCH   1  22
HETATM   22  N1  UNL     1      18.260   4.675  13.404  1.00  0.00    -0.226 N
HETATM   23  C1  UNL     1      19.583   5.148  13.706  1.00  0.00     0.168 C
HETATM   24  C2  UNL     1      17.269   5.615  12.944  1.00  0.00     0.168 C
ENDBRANCH   1  22
BRANCH  10  25
HETATM   25  O1  UNL     1      16.921  -1.448  13.340  1.00  0.00    -0.267 OA
ATOM     26  H1  UNL     1      16.154  -1.902  13.008  1.00  0.00     0.247 HD
ENDBRANCH  10  25
BRANCH   7  27
HETATM   27  N4  UNL     1      15.741  -0.266  17.664  1.00  0.00    -0.233 N
ATOM     28  H42 UNL     1      15.537   0.443  18.368  1.00  0.00     0.174 HD
ATOM     29  H41 UNL     1      15.568  -1.248  17.882  1.00  0.00     0.174 HD
ENDBRANCH   7  27
TORSDOF 8
ENDMDL