MODEL 3
REMARK VINA RESULT: -6.600430961      1.988      3.126
REMARK  5 active torsions:
REMARK  status: ('A' for Active; 'I' for Inactive)
REMARK    1  A    between atoms: N4_14  and  C7_15
REMARK    2  A    between atoms: C7_15  and  C8_16
REMARK    3  A    between atoms: C8_16  and  C9_17
REMARK    4  A    between atoms: C9_17  and  N5_18
REMARK    5  A    between atoms: C11_25  and  N9_26
ROOT
HETATM    1  C7  UNL     1      16.938   4.423  12.216  1.00  0.00     0.131 C
ENDROOT
BRANCH   1   2
HETATM    2  N4  UNL     1      16.956   3.021  11.938  1.00  0.00    -0.335 N
HETATM    3  C4  UNL     1      16.956   2.008  12.831  1.00  0.00     0.149 A
HETATM    4  C3  UNL     1      16.965   2.014  14.206  1.00  0.00     0.280 A
HETATM    5  C5  UNL     1      16.951   0.787  12.167  1.00  0.00     0.145 A
HETATM    6  N2  UNL     1      16.968   0.844  14.849  1.00  0.00    -0.273 N
HETATM    7  O2  UNL     1      16.971   3.124  14.788  1.00  0.00    -0.265 OA
HETATM    8  C2  UNL     1      16.962  -0.343  14.186  1.00  0.00     0.330 A
ATOM      9  H2  UNL     1      16.975   0.841  15.869  1.00  0.00     0.173 HD
HETATM   10  N1  UNL     1      16.953  -0.374  12.848  1.00  0.00    -0.288 N
HETATM   11  O1  UNL     1      16.969  -1.399  14.874  1.00  0.00    -0.246 OA
HETATM   12  C1  UNL     1      16.940  -1.629  12.147  1.00  0.00     0.163 C
HETATM   13  N3  UNL     1      16.946   1.098  10.859  1.00  0.00    -0.336 N
HETATM   14  C6  UNL     1      16.949   2.442  10.737  1.00  0.00     0.185 A
ATOM     15  H3  UNL     1      16.940   0.430  10.088  1.00  0.00     0.168 HD
ENDBRANCH   1   2
BRANCH   1  16
HETATM   16  C8  UNL     1      17.925   5.150  11.294  1.00  0.00     0.036 C
BRANCH  16  17
HETATM   17  C9  UNL     1      19.148   5.445  12.095  1.00  0.00     0.119 C
BRANCH  17  18
HETATM   18  N5  UNL     1      20.307   4.654  11.742  1.00  0.00    -0.182 NA
HETATM   19  N6  UNL     1      20.079   3.931  10.560  1.00  0.00    -0.289 N
HETATM   20  C10 UNL     1      20.331   2.567  10.811  1.00  0.00     0.201 A
ATOM     21  H6  UNL     1      19.781   4.328   9.669  1.00  0.00     0.183 HD
HETATM   22  N7  UNL     1      20.199   1.529   9.829  1.00  0.00    -0.062 NA
HETATM   23  N8  UNL     1      20.687   2.410  12.032  1.00  0.00    -0.323 N
HETATM   24  C11 UNL     1      20.696   3.669  12.684  1.00  0.00     0.382 A
ATOM     25  H8  UNL     1      20.928   1.519  12.467  1.00  0.00     0.165 HD
BRANCH  24  26
HETATM   26  N9  UNL     1      19.994   3.701  13.950  1.00  0.00    -0.044 N
ATOM     27  H93 UNL     1      20.662   3.662  14.720  1.00  0.00     0.278 HD
ATOM     28  H92 UNL     1      19.595   4.627  14.104  1.00  0.00     0.278 HD
ATOM     29  H91 UNL     1      19.276   2.988  14.075  1.00  0.00     0.278 HD
ENDBRANCH  24  26
ENDBRANCH  17  18
ENDBRANCH  16  17
ENDBRANCH   1  16
TORSDOF 5
ENDMDL