MODEL 4
REMARK VINA RESULT: -7.256124008      2.004      4.630
REMARK  8 active torsions:
REMARK  status: ('A' for Active; 'I' for Inactive)
REMARK    1  A    between atoms: C3_5  and  N2_6
REMARK    2  A    between atoms: C5_12  and  C6_13
REMARK    3  A    between atoms: C6_13  and  N4_14
REMARK    4  A    between atoms: C10_22  and  C11_23
REMARK    5  A    between atoms: C11_23  and  O1_24
REMARK    6  A    between atoms: C11_23  and  N7_26
REMARK    7  A    between atoms: N7_26  and  C12_28
REMARK    8  A    between atoms: N10_33  and  O2_34
ROOT
HETATM    1  C12 UNL     1      15.017   2.684  16.833  1.00  0.00     0.241 C
HETATM    2  C13 UNL     1      15.074   3.511  18.030  1.00  0.00     0.078 C
HETATM    3  N8  UNL     1      15.083   4.166  18.981  1.00  0.00    -0.196 NA
ENDROOT
BRANCH   1   4
HETATM    4  N7  UNL     1      15.854   3.057  15.761  1.00  0.00    -0.379 N
ATOM      5  H7  UNL     1      15.555   2.890  14.800  1.00  0.00     0.157 HD
BRANCH   4   6
HETATM    6  C11 UNL     1      17.092   3.655  16.013  1.00  0.00     0.284 C
BRANCH   6   7
HETATM    7  C10 UNL     1      17.561   4.548  14.924  1.00  0.00     0.149 A
HETATM    8  N6  UNL     1      17.351   4.300  13.630  1.00  0.00    -0.324 N
HETATM    9  C9  UNL     1      17.778   5.120  12.648  1.00  0.00     0.157 A
ATOM     10  H6  UNL     1      16.845   3.453  13.373  1.00  0.00     0.169 HD
HETATM   11  N4  UNL     1      17.706   5.087  11.320  1.00  0.00    -0.270 N
HETATM   12  C8  UNL     1      18.476   6.284  12.998  1.00  0.00     0.143 A
HETATM   13  N5  UNL     1      18.344   6.199  10.853  1.00  0.00    -0.305 N
HETATM   14  C7  UNL     1      18.811   6.931  11.838  1.00  0.00     0.145 A
ATOM     15  H5  UNL     1      18.445   6.433   9.865  1.00  0.00     0.186 HD
HETATM   16  N10 UNL     1      18.674   6.512  14.303  1.00  0.00    -0.157 N
HETATM   17  N9  UNL     1      18.242   5.689  15.234  1.00  0.00    -0.258 N
ATOM     18  H9  UNL     1      18.421   5.909  16.214  1.00  0.00     0.191 HD
BRANCH  11  19
HETATM   19  C6  UNL     1      17.062   4.142  10.432  1.00  0.00     0.193 C
BRANCH  19  20
HETATM   20  C5  UNL     1      17.538   2.779  10.697  1.00  0.00     0.000 A
HETATM   21  C2  UNL     1      18.800   2.331  10.695  1.00  0.00     0.032 A
HETATM   22  C1  UNL     1      19.936   3.144  10.279  1.00  0.00     0.069 C
HETATM   23  N1  UNL     1      19.060   1.033  11.048  1.00  0.00    -0.196 N
HETATM   24  C3  UNL     1      18.086   0.181  11.400  1.00  0.00     0.675 A
ATOM     25  H1  UNL     1      20.025   0.704  11.044  1.00  0.00     0.184 HD
HETATM   26  N3  UNL     1      16.807   0.605  11.409  1.00  0.00    -0.202 N
HETATM   27  C4  UNL     1      16.535   1.865  11.069  1.00  0.00     0.117 A
ATOM     28  H3  UNL     1      16.055  -0.032  11.673  1.00  0.00     0.183 HD
BRANCH  24  29
HETATM   29  N2  UNL     1      18.441  -1.017  11.718  1.00  0.00    -0.234 N
ATOM     30  H22 UNL     1      17.816  -1.692  12.160  1.00  0.00     0.174 HD
ATOM     31  H21 UNL     1      19.403  -1.287  11.511  1.00  0.00     0.174 HD
ENDBRANCH  24  29
ENDBRANCH  19  20
ENDBRANCH  11  19
BRANCH  16  32
HETATM   32  O2  UNL     1      19.364   7.669  14.606  1.00  0.00    -0.267 OA
ATOM     33  H2  UNL     1      19.454   7.860  15.532  1.00  0.00     0.247 HD
ENDBRANCH  16  32
ENDBRANCH   6   7
BRANCH   6  34
HETATM   34  O1  UNL     1      18.075   2.632  16.219  1.00  0.00    -0.370 OA
ATOM     35  H1  UNL     1      18.004   2.321  17.114  1.00  0.00     0.212 HD
ENDBRANCH   6  34
ENDBRANCH   4   6
ENDBRANCH   1   4
TORSDOF 8
ENDMDL