MODEL 4
REMARK VINA RESULT: -7.503967164      3.011      4.143
REMARK  5 active torsions:
REMARK  status: ('A' for Active; 'I' for Inactive)
REMARK    1  A    between atoms: N1_1  and  C1_4
REMARK    2  A    between atoms: C2_7  and  C3_8
REMARK    3  A    between atoms: C3_8  and  N3_9
REMARK    4  A    between atoms: C7_21  and  N7_22
REMARK    5  A    between atoms: C12_28  and  C13_29
ROOT
HETATM    1  C1  UNL     1      19.328   6.426  13.021  1.00  0.00     0.117 A
HETATM    2  N2  UNL     1      18.882   5.222  13.419  1.00  0.00    -0.330 N
ATOM      3  H2  UNL     1      19.501   4.632  13.976  1.00  0.00     0.168 HD
HETATM    4  C2  UNL     1      17.646   4.757  13.114  1.00  0.00     0.104 A
HETATM    5  N6  UNL     1      16.834   5.529  12.382  1.00  0.00    -0.330 N
ATOM      6  H6  UNL     1      15.904   5.180  12.151  1.00  0.00     0.168 HD
HETATM    7  C7  UNL     1      17.201   6.766  11.931  1.00  0.00     0.122 A
HETATM    8  C12 UNL     1      18.465   7.196  12.269  1.00  0.00     0.089 A
ENDROOT
BRANCH   4   9
HETATM    9  C3  UNL     1      17.221   3.394  13.595  1.00  0.00     0.229 C
BRANCH   9  10
HETATM   10  N3  UNL     1      16.446   3.549  14.826  1.00  0.00    -0.245 N
HETATM   11  N4  UNL     1      15.493   4.493  14.884  1.00  0.00    -0.291 N
HETATM   12  C4  UNL     1      14.756   4.673  16.001  1.00  0.00     0.200 A
ATOM     13  H4  UNL     1      15.323   5.084  14.071  1.00  0.00     0.188 HD
HETATM   14  N5  UNL     1      14.951   3.909  17.094  1.00  0.00    -0.314 N
HETATM   15  C5  UNL     1      15.890   2.959  17.070  1.00  0.00     0.316 A
ATOM     16  H5  UNL     1      14.386   4.054  17.931  1.00  0.00     0.170 HD
HETATM   17  O1  UNL     1      16.085   2.237  18.076  1.00  0.00    -0.262 OA
HETATM   18  C6  UNL     1      16.632   2.801  15.910  1.00  0.00     0.330 A
HETATM   19  O2  UNL     1      17.510   1.910  15.898  1.00  0.00    -0.260 OA
ENDBRANCH   9  10
ENDBRANCH   4   9
BRANCH   1  20
HETATM   20  N1  UNL     1      20.501   6.856  13.319  1.00  0.00    -0.385 N
ATOM     21  H12 UNL     1      21.334   6.361  13.001  1.00  0.00     0.157 HD
ATOM     22  H11 UNL     1      20.648   7.698  13.876  1.00  0.00     0.157 HD
ENDBRANCH   1  20
BRANCH   7  23
HETATM   23  N7  UNL     1      16.311   7.548  11.138  1.00  0.00    -0.362 N
HETATM   24  C8  UNL     1      15.445   8.524  11.785  1.00  0.00     0.150 C
HETATM   25  C9  UNL     1      14.757   9.333  10.711  1.00  0.00     0.187 C
HETATM   26  O3  UNL     1      14.198   8.415   9.800  1.00  0.00    -0.388 OA
HETATM   27  C10 UNL     1      15.184   7.925   8.968  1.00  0.00     0.187 C
HETATM   28  C11 UNL     1      16.333   7.312   9.711  1.00  0.00     0.150 C
ENDBRANCH   7  23
BRANCH   8  29
HETATM   29  C13 UNL     1      18.877   8.506  11.800  1.00  0.00     0.277 C
HETATM   30  O4  UNL     1      18.927   9.442  12.634  1.00  0.00    -0.301 OA
ENDBRANCH   8  29
TORSDOF 5
ENDMDL