MODEL 3
REMARK VINA RESULT: -6.324805882      1.309      1.930
REMARK  7 active torsions:
REMARK  status: ('A' for Active; 'I' for Inactive)
REMARK    1  A    between atoms: N1_2  and  C3_4
REMARK    2  A    between atoms: C4_7  and  N3_8
REMARK    3  A    between atoms: C9_17  and  N6_18
REMARK    4  A    between atoms: C11_20  and  C12_21
REMARK    5  A    between atoms: C11_20  and  N8_26
REMARK    6  A    between atoms: C12_21  and  O1_22
REMARK    7  A    between atoms: O1_22  and  N7_23
ROOT
HETATM    1  C3  UNL     1      17.683   2.838  12.382  1.00  0.00     0.708 A
HETATM    2  N2  UNL     1      16.954   2.824  13.512  1.00  0.00    -0.021 N
ATOM      3  H2  UNL     1      16.390   2.005  13.739  1.00  0.00     0.203 HD
HETATM    4  C4  UNL     1      16.961   3.890  14.351  1.00  0.00     0.709 A
HETATM    5  N5  UNL     1      17.726   4.937  13.992  1.00  0.00    -0.021 N
ATOM      6  H5  UNL     1      17.740   5.746  14.614  1.00  0.00     0.203 HD
HETATM    7  C9  UNL     1      18.469   4.999  12.881  1.00  0.00     0.709 A
HETATM    8  N9  UNL     1      18.431   3.907  12.072  1.00  0.00    -0.021 N
ATOM      9  H9  UNL     1      18.982   3.901  11.214  1.00  0.00     0.203 HD
ENDROOT
BRANCH   7  10
HETATM   10  N6  UNL     1      19.230   6.126  12.481  1.00  0.00    -0.212 N
HETATM   11  C10 UNL     1      20.455   6.767  12.897  1.00  0.00     0.176 C
HETATM   12  C11 UNL     1      20.101   8.010  12.159  1.00  0.00     0.084 C
HETATM   13  C15 UNL     1      19.110   7.095  11.422  1.00  0.00     0.176 C
BRANCH  12  14
HETATM   14  C12 UNL     1      19.345   9.012  13.015  1.00  0.00     0.234 C
BRANCH  14  15
HETATM   15  O1  UNL     1      20.224   9.783  13.772  1.00  0.00    -0.285 OA
BRANCH  15  16
HETATM   16  N7  UNL     1      19.830   9.958  15.041  1.00  0.00    -0.311 N
ATOM     17  H72 UNL     1      20.342  10.551  15.693  1.00  0.00     0.184 HD
ATOM     18  H71 UNL     1      18.982   9.445  15.280  1.00  0.00     0.184 HD
ENDBRANCH  15  16
ENDBRANCH  14  15
ENDBRANCH  12  14
BRANCH  12  19
HETATM   19  N8  UNL     1      21.065   8.495  11.260  1.00  0.00    -0.407 N
HETATM   20  C13 UNL     1      20.699   9.465  10.303  1.00  0.00     0.143 C
HETATM   21  C14 UNL     1      22.433   8.280  11.522  1.00  0.00     0.143 C
ENDBRANCH  12  19
ENDBRANCH   7  10
BRANCH   4  22
HETATM   22  N3  UNL     1      16.179   3.896  15.531  1.00  0.00    -0.214 N
HETATM   23  C5  UNL     1      16.510   3.062  16.695  1.00  0.00     0.160 C
HETATM   24  C6  UNL     1      15.239   2.264  16.953  1.00  0.00     0.134 C
HETATM   25  N4  UNL     1      14.159   3.122  17.344  1.00  0.00    -0.418 N
HETATM   26  C7  UNL     1      14.314   4.503  16.979  1.00  0.00     0.134 C
ATOM     27  H4  UNL     1      13.340   2.777  17.844  1.00  0.00     0.153 HD
HETATM   28  C8  UNL     1      15.022   4.721  15.660  1.00  0.00     0.160 C
ENDBRANCH   4  22
BRANCH   1  29
HETATM   29  N1  UNL     1      17.687   1.751  11.464  1.00  0.00    -0.225 N
HETATM   30  C1  UNL     1      17.299   0.440  11.900  1.00  0.00     0.168 C
HETATM   31  C2  UNL     1      18.072   1.983  10.099  1.00  0.00     0.168 C
ENDBRANCH   1  29
TORSDOF 7
ENDMDL