MODEL 3
REMARK VINA RESULT: -6.626132066      0.158      2.518
REMARK  8 active torsions:
REMARK  status: ('A' for Active; 'I' for Inactive)
REMARK    1  A    between atoms: N1_2  and  C2_4
REMARK    2  A    between atoms: C3_7  and  N3_8
REMARK    3  A    between atoms: N4_11  and  C6_12
REMARK    4  A    between atoms: C6_12  and  C7_13
REMARK    5  A    between atoms: C7_13  and  N5_14
REMARK    6  A    between atoms: C8_21  and  C9_22
REMARK    7  A    between atoms: C9_22  and  N9_23
REMARK    8  A    between atoms: C12_31  and  N11_32
ROOT
HETATM    1  N3  UNL     1      18.630   6.461  12.578  1.00  0.00    -0.210 N
HETATM    2  C4  UNL     1      18.818   6.470  14.015  1.00  0.00     0.186 C
HETATM    3  C5  UNL     1      17.649   6.979  14.790  1.00  0.00     0.083 C
HETATM    4  N4  UNL     1      16.442   7.143  14.110  1.00  0.00    -0.369 N
HETATM    5  C10 UNL     1      16.403   7.223  12.702  1.00  0.00     0.147 C
HETATM    6  C11 UNL     1      17.746   7.485  12.067  1.00  0.00     0.161 C
ENDROOT
BRANCH   1   7
HETATM    7  C3  UNL     1      19.289   5.489  11.780  1.00  0.00     0.709 A
HETATM    8  N2  UNL     1      18.870   4.216  11.849  1.00  0.00    -0.021 N
HETATM    9  C2  UNL     1      19.407   3.208  11.142  1.00  0.00     0.706 A
ATOM     10  H2  UNL     1      18.095   4.001  12.477  1.00  0.00     0.203 HD
HETATM   11  N12 UNL     1      20.426   3.502  10.320  1.00  0.00    -0.022 N
HETATM   12  C12 UNL     1      20.869   4.768  10.230  1.00  0.00     0.706 A
ATOM     13  H12 UNL     1      20.863   2.767   9.765  1.00  0.00     0.203 HD
HETATM   14  N10 UNL     1      20.306   5.773  10.958  1.00  0.00    -0.021 N
ATOM     15  H10 UNL     1      20.655   6.728  10.877  1.00  0.00     0.203 HD
BRANCH   9  16
HETATM   16  N1  UNL     1      18.965   1.978  11.242  1.00  0.00    -0.229 N
HETATM   17  C1  UNL     1      17.571   1.830  11.600  1.00  0.00     0.165 C
ATOM     18  H1  UNL     1      19.569   1.172  11.078  1.00  0.00     0.177 HD
ENDBRANCH   9  16
BRANCH  12  19
HETATM   19  N11 UNL     1      21.842   5.060   9.447  1.00  0.00    -0.229 N
HETATM   20  C13 UNL     1      22.973   5.769   9.955  1.00  0.00     0.165 C
ATOM     21  H11 UNL     1      21.808   4.787   8.464  1.00  0.00     0.177 HD
ENDBRANCH  12  19
ENDBRANCH   1   7
BRANCH   4  22
HETATM   22  C6  UNL     1      15.301   6.542  14.646  1.00  0.00     0.085 C
BRANCH  22  23
HETATM   23  C7  UNL     1      15.120   5.089  14.688  1.00  0.00     0.197 C
BRANCH  23  24
HETATM   24  N5  UNL     1      15.198   4.394  15.937  1.00  0.00    -0.257 N
HETATM   25  N6  UNL     1      14.397   4.581  17.003  1.00  0.00    -0.224 N
HETATM   26  N7  UNL     1      14.762   3.749  17.936  1.00  0.00    -0.227 N
ATOM     27  H6  UNL     1      13.636   5.257  17.070  1.00  0.00     0.210 HD
HETATM   28  N8  UNL     1      15.768   3.026  17.525  1.00  0.00    -0.271 N
ATOM     29  H7  UNL     1      14.325   3.673  18.854  1.00  0.00     0.210 HD
HETATM   30  C8  UNL     1      16.053   3.428  16.263  1.00  0.00     0.141 A
ATOM     31  H8  UNL     1      16.249   2.298  18.054  1.00  0.00     0.190 HD
BRANCH  30  32
HETATM   32  C9  UNL     1      17.172   2.891  15.408  1.00  0.00     0.308 C
BRANCH  32  33
HETATM   33  N9  UNL     1      16.968   1.488  15.208  1.00  0.00    -0.073 N
ATOM     34  H93 UNL     1      16.240   1.110  15.813  1.00  0.00     0.274 HD
ATOM     35  H92 UNL     1      16.527   1.282  14.312  1.00  0.00     0.274 HD
ATOM     36  H91 UNL     1      17.860   1.007  15.323  1.00  0.00     0.274 HD
ENDBRANCH  32  33
ENDBRANCH  30  32
ENDBRANCH  23  24
ENDBRANCH  22  23
ENDBRANCH   4  22
TORSDOF 8
ENDMDL