MODEL 1
REMARK VINA RESULT: -7.860018372      0.000      0.000
REMARK  7 active torsions:
REMARK  status: ('A' for Active; 'I' for Inactive)
REMARK    1  A    between atoms: N1_5  and  O2_6
REMARK    2  A    between atoms: C4_8  and  C5_9
REMARK    3  A    between atoms: C5_9  and  N2_10
REMARK    4  A    between atoms: C6_13  and  N4_14
REMARK    5  A    between atoms: N6_23  and  C12_25
REMARK    6  A    between atoms: C12_25  and  C13_26
REMARK    7  A    between atoms: C13_26  and  O4_27
ROOT
HETATM    1  N2  UNL     1      17.842   4.442  11.897  1.00  0.00    -0.102 N
HETATM    2  N3  UNL     1      18.766   5.382  11.706  1.00  0.00    -0.115 N
ATOM      3  H3  UNL     1      18.634   6.373  11.909  1.00  0.00     0.206 HD
HETATM    4  C6  UNL     1      19.897   4.850  11.211  1.00  0.00     0.710 A
HETATM    5  N5  UNL     1      19.636   3.539  11.103  1.00  0.00    -0.020 N
ATOM      6  H5  UNL     1      20.292   2.839  10.755  1.00  0.00     0.203 HD
HETATM    7  C11 UNL     1      18.383   3.282  11.520  1.00  0.00     0.710 A
HETATM    8  N6  UNL     1      17.880   2.094  11.512  1.00  0.00    -0.222 N
ATOM      9  H6  UNL     1      16.921   1.958  11.835  1.00  0.00     0.177 HD
ENDROOT
BRANCH   1  10
HETATM   10  C5  UNL     1      16.511   4.606  12.416  1.00  0.00     0.247 C
BRANCH  10  11
HETATM   11  C4  UNL     1      16.336   4.354  13.834  1.00  0.00     0.132 A
HETATM   12  N1  UNL     1      15.357   4.920  14.541  1.00  0.00    -0.222 N
HETATM   13  C3  UNL     1      15.272   4.598  15.861  1.00  0.00     0.130 A
HETATM   14  C2  UNL     1      16.133   3.730  16.488  1.00  0.00     0.094 A
HETATM   15  C1  UNL     1      17.131   3.166  15.721  1.00  0.00     0.248 A
HETATM   16  O1  UNL     1      17.957   2.354  16.257  1.00  0.00    -0.268 OA
HETATM   17  N7  UNL     1      17.184   3.503  14.440  1.00  0.00    -0.310 N
ATOM     18  H7  UNL     1      17.921   3.085  13.872  1.00  0.00     0.170 HD
BRANCH  12  19
HETATM   19  O2  UNL     1      14.459   5.817  14.003  1.00  0.00    -0.282 OA
ATOM     20  H2  UNL     1      13.748   5.496  13.461  1.00  0.00     0.245 HD
ENDBRANCH  12  19
ENDBRANCH  10  11
ENDBRANCH   1  10
BRANCH   4  21
HETATM   21  N4  UNL     1      21.111   5.531  10.875  1.00  0.00    -0.212 N
HETATM   22  C7  UNL     1      21.933   5.107   9.772  1.00  0.00     0.167 C
HETATM   23  C8  UNL     1      23.281   5.787   9.844  1.00  0.00     0.188 C
HETATM   24  O3  UNL     1      23.728   5.839  11.184  1.00  0.00    -0.388 OA
HETATM   25  C9  UNL     1      22.990   6.859  11.782  1.00  0.00     0.188 C
HETATM   26  C10 UNL     1      21.515   6.665  11.661  1.00  0.00     0.167 C
ENDBRANCH   4  21
BRANCH   8  27
HETATM   27  C12 UNL     1      18.636   0.958  11.060  1.00  0.00     0.164 C
BRANCH  27  28
HETATM   28  C13 UNL     1      18.081  -0.350  11.608  1.00  0.00     0.184 C
BRANCH  28  29
HETATM   29  O4  UNL     1      18.856  -1.415  11.116  1.00  0.00    -0.399 OA
ATOM     30  H4  UNL     1      19.172  -1.929  11.849  1.00  0.00     0.209 HD
ENDBRANCH  28  29
ENDBRANCH  27  28
ENDBRANCH   8  27
TORSDOF 7
ENDMDL