MODEL 4
REMARK VINA RESULT: -7.648716431      2.349      4.767
REMARK  7 active torsions:
REMARK  status: ('A' for Active; 'I' for Inactive)
REMARK    1  A    between atoms: O1_2  and  C2_3
REMARK    2  A    between atoms: C3_6  and  N2_7
REMARK    3  A    between atoms: N2_7  and  N3_9
REMARK    4  A    between atoms: C4_14  and  N5_15
REMARK       I    between atoms: N5_15  and  C5_17
REMARK       I    between atoms: C5_17  and  N8_22
REMARK    5  A    between atoms: N8_22  and  C7_24
REMARK    6  A    between atoms: C7_24  and  C8_25
REMARK    7  A    between atoms: C8_25  and  N9_26
ROOT
HETATM    1  N5  UNL     1      17.789   5.549  14.639  1.00  0.00    -0.021 N
ATOM      2  H5  UNL     1      17.516   5.988  15.518  1.00  0.00     0.203 HD
HETATM    3  C5  UNL     1      18.533   6.301  13.689  1.00  0.00     0.701 C
HETATM    4  N6  UNL     1      17.910   7.197  13.007  1.00  0.00    -0.126 N
ATOM      5  H6  UNL     1      18.420   7.750  12.319  1.00  0.00     0.197 HD
HETATM    6  C6  UNL     1      16.559   7.421  13.194  1.00  0.00     0.196 C
HETATM    7  N7  UNL     1      15.437   7.597  13.364  1.00  0.00    -0.171 NA
HETATM    8  N8  UNL     1      19.938   6.063  13.498  1.00  0.00    -0.223 N
ATOM      9  H8  UNL     1      20.504   5.608  14.214  1.00  0.00     0.177 HD
ENDROOT
BRANCH   1  10
HETATM   10  C4  UNL     1      17.450   4.326  14.414  1.00  0.00     0.714 A
HETATM   11  N4  UNL     1      17.578   3.786  13.188  1.00  0.00    -0.020 N
HETATM   12  C3  UNL     1      17.218   2.490  12.954  1.00  0.00     0.719 A
ATOM     13  H4  UNL     1      17.948   4.352  12.425  1.00  0.00     0.203 HD
HETATM   14  N1  UNL     1      16.731   1.732  13.942  1.00  0.00    -0.152 N
HETATM   15  C2  UNL     1      16.599   2.259  15.163  1.00  0.00     0.252 A
ATOM     16  H1  UNL     1      16.463   0.763  13.766  1.00  0.00     0.188 HD
HETATM   17  N12 UNL     1      16.957   3.545  15.391  1.00  0.00    -0.153 N
ATOM     18  H12 UNL     1      16.850   3.931  16.329  1.00  0.00     0.188 HD
BRANCH  12  19
HETATM   19  N2  UNL     1      17.377   2.062  11.751  1.00  0.00    -0.071 N
ATOM     20  H2  UNL     1      18.083   1.355  11.547  1.00  0.00     0.212 HD
BRANCH  19  21
HETATM   21  N3  UNL     1      16.577   2.567  10.728  1.00  0.00    -0.024 N
HETATM   22  O2  UNL     1      15.532   3.162  11.040  1.00  0.00    -0.516 OA
HETATM   23  O3  UNL     1      16.909   2.430   9.402  1.00  0.00    -0.516 OA
ENDBRANCH  19  21
ENDBRANCH  12  19
BRANCH  15  24
HETATM   24  O1  UNL     1      16.090   1.460  16.186  1.00  0.00    -0.326 OA
HETATM   25  C1  UNL     1      15.339   1.986  17.236  1.00  0.00     0.213 C
ENDBRANCH  15  24
ENDBRANCH   1  10
BRANCH   8  26
HETATM   26  C7  UNL     1      20.511   6.499  12.246  1.00  0.00     0.160 C
BRANCH  26  27
HETATM   27  C8  UNL     1      20.274   5.528  11.117  1.00  0.00     0.170 C
BRANCH  27  28
HETATM   28  N9  UNL     1      19.101   5.869  10.331  1.00  0.00    -0.286 N
HETATM   29  C9  UNL     1      18.927   6.917   9.521  1.00  0.00     0.130 A
HETATM   30  C10 UNL     1      17.659   6.854   8.973  1.00  0.00     0.127 A
HETATM   31  N10 UNL     1      17.090   5.750   9.475  1.00  0.00    -0.296 N
HETATM   32  N11 UNL     1      17.956   5.190  10.268  1.00  0.00    -0.241 N
ATOM     33  H10 UNL     1      16.150   5.410   9.272  1.00  0.00     0.187 HD
ATOM     34  H11 UNL     1      17.779   4.328  10.784  1.00  0.00     0.208 HD
ENDBRANCH  27  28
ENDBRANCH  26  27
ENDBRANCH   8  26
TORSDOF 7
ENDMDL