MODEL 1
REMARK VINA RESULT: -7.162880529      0.000      0.000
REMARK  7 active torsions:
REMARK  status: ('A' for Active; 'I' for Inactive)
REMARK    1  A    between atoms: N2_6  and  C3_7
REMARK    2  A    between atoms: C3_7  and  C4_8
REMARK    3  A    between atoms: C4_8  and  S1_9
REMARK    4  A    between atoms: S1_9  and  C5_10
REMARK    5  A    between atoms: C7_14  and  C8_15
REMARK    6  A    between atoms: C8_15  and  O2_16
REMARK    7  A    between atoms: N4_18  and  C9_19
ROOT
HETATM    1  C5  UNL     1      18.351   6.147  11.954  1.00  0.00     0.145 C
HETATM    2  N3  UNL     1      19.302   6.968  11.504  1.00  0.00    -0.368 N
ATOM      3  H3  UNL     1      19.253   7.986  11.555  1.00  0.00     0.161 HD
HETATM    4  C6  UNL     1      20.390   6.246  10.947  1.00  0.00     0.149 C
HETATM    5  C7  UNL     1      20.185   4.861  11.396  1.00  0.00     0.136 C
HETATM    6  N4  UNL     1      18.738   4.823  11.712  1.00  0.00    -0.291 N
ENDROOT
BRANCH   1   7
HETATM    7  S1  UNL     1      16.861   6.771  12.705  1.00  0.00    -0.092 SA
BRANCH   7   8
HETATM    8  C4  UNL     1      16.819   6.635  14.454  1.00  0.00     0.104 C
BRANCH   8   9
HETATM    9  C3  UNL     1      17.603   5.433  14.948  1.00  0.00     0.164 C
BRANCH   9  10
HETATM   10  N2  UNL     1      16.683   4.494  15.561  1.00  0.00    -0.242 N
HETATM   11  N1  UNL     1      15.372   4.814  15.627  1.00  0.00    -0.300 N
HETATM   12  C2  UNL     1      14.463   3.984  16.155  1.00  0.00     0.181 A
ATOM     13  H1  UNL     1      15.065   5.716  15.263  1.00  0.00     0.186 HD
HETATM   14  C1  UNL     1      14.819   2.754  16.661  1.00  0.00     0.266 A
HETATM   15  O1  UNL     1      13.950   1.990  17.153  1.00  0.00    -0.267 OA
HETATM   16  N7  UNL     1      16.121   2.444  16.594  1.00  0.00    -0.273 N
HETATM   17  C12 UNL     1      17.038   3.309  16.049  1.00  0.00     0.344 A
ATOM     18  H7  UNL     1      16.438   1.545  16.955  1.00  0.00     0.173 HD
HETATM   19  O3  UNL     1      18.244   2.933  16.031  1.00  0.00    -0.245 OA
ENDBRANCH   9  10
ENDBRANCH   8   9
ENDBRANCH   7   8
ENDBRANCH   1   7
BRANCH   6  20
HETATM   20  C9  UNL     1      18.016   3.574  11.757  1.00  0.00     0.180 C
HETATM   21  N5  UNL     1      17.972   2.696  12.679  1.00  0.00    -0.360 N
HETATM   22  C10 UNL     1      17.120   1.586  12.315  1.00  0.00     0.142 C
ATOM     23  H5  UNL     1      18.475   2.767  13.563  1.00  0.00     0.162 HD
HETATM   24  C11 UNL     1      16.276   2.155  11.207  1.00  0.00     0.142 C
HETATM   25  N6  UNL     1      17.152   3.178  10.666  1.00  0.00    -0.360 N
ATOM     26  H6  UNL     1      17.158   3.543   9.713  1.00  0.00     0.162 HD
ENDBRANCH   6  20
BRANCH   5  27
HETATM   27  C8  UNL     1      20.513   3.814  10.355  1.00  0.00     0.191 C
BRANCH  27  28
HETATM   28  O2  UNL     1      20.939   4.487   9.213  1.00  0.00    -0.399 OA
ATOM     29  H2  UNL     1      21.644   3.977   8.831  1.00  0.00     0.209 HD
ENDBRANCH  27  28
ENDBRANCH   5  27
TORSDOF 7
ENDMDL