MODEL 3
REMARK VINA RESULT: -7.201211802      3.101      5.770
REMARK  7 active torsions:
REMARK  status: ('A' for Active; 'I' for Inactive)
REMARK    1  A    between atoms: N1_1  and  C1_4
REMARK    2  A    between atoms: N2_7  and  S1_8
REMARK    3  A    between atoms: S1_8  and  N3_9
REMARK    4  A    between atoms: S1_8  and  C4_13
REMARK    5  A    between atoms: C4_13  and  C5_14
REMARK    6  A    between atoms: C5_14  and  C6_15
REMARK    7  A    between atoms: C6_15  and  C7_16
ROOT
HETATM    1  S1  UNL     1      16.751   5.272  14.781  1.00  0.00     0.125 S
HETATM    2  O1  UNL     1      18.247   4.931  15.348  1.00  0.00    -0.227 OA
ENDROOT
BRANCH   1   3
HETATM    3  N2  UNL     1      17.081   3.657  13.626  1.00  0.00    -0.195 N
HETATM    4  C3  UNL     1      17.420   3.966  12.393  1.00  0.00     0.133 A
HETATM    5  C2  UNL     1      17.631   2.886  11.523  1.00  0.00     0.069 A
HETATM    6  C1  UNL     1      17.462   1.627  12.046  1.00  0.00     0.115 A
HETATM    7  N9  UNL     1      17.114   1.405  13.323  1.00  0.00    -0.270 N
HETATM    8  N8  UNL     1      16.925   2.477  14.113  1.00  0.00    -0.227 N
ATOM      9  H9  UNL     1      16.999   0.457  13.682  1.00  0.00     0.190 HD
ATOM     10  H8  UNL     1      16.658   2.356  15.090  1.00  0.00     0.209 HD
BRANCH   6  11
HETATM   11  N1  UNL     1      17.656   0.629  11.248  1.00  0.00    -0.384 N
ATOM     12  H12 UNL     1      18.386   0.679  10.537  1.00  0.00     0.157 HD
ATOM     13  H11 UNL     1      17.051  -0.184  11.369  1.00  0.00     0.157 HD
ENDBRANCH   6  11
ENDBRANCH   1   3
BRANCH   1  14
HETATM   14  N3  UNL     1      15.046   5.207  14.351  1.00  0.00    -0.343 N
ATOM     15  H32 UNL     1      14.417   4.476  14.018  1.00  0.00     0.167 HD
ATOM     16  H31 UNL     1      14.964   6.199  14.576  1.00  0.00     0.167 HD
ENDBRANCH   1  14
BRANCH   1  17
HETATM   17  C4  UNL     1      17.140   6.865  13.972  1.00  0.00     0.141 C
BRANCH  17  18
HETATM   18  C5  UNL     1      18.088   7.865  14.577  1.00  0.00     0.023 C
BRANCH  18  19
HETATM   19  C6  UNL     1      19.402   8.083  13.964  1.00  0.00     0.079 C
BRANCH  19  20
HETATM   20  C7  UNL     1      19.885   7.090  12.996  1.00  0.00     0.099 A
HETATM   21  N4  UNL     1      20.432   5.907  13.417  1.00  0.00    -0.287 N
HETATM   22  N5  UNL     1      20.750   5.164  12.389  1.00  0.00    -0.279 N
ATOM     23  H4  UNL     1      20.571   5.644  14.392  1.00  0.00     0.188 HD
HETATM   24  C8  UNL     1      20.405   5.875  11.294  1.00  0.00     0.193 A
ATOM     25  H5  UNL     1      21.174   4.237  12.411  1.00  0.00     0.189 HD
HETATM   26  N6  UNL     1      19.872   7.060  11.674  1.00  0.00    -0.315 N
HETATM   27  C11 UNL     1      20.530   5.549   9.893  1.00  0.00     0.287 C
HETATM   28  C9  UNL     1      19.378   8.010  10.701  1.00  0.00     0.152 C
HETATM   29  C10 UNL     1      19.987   7.875   9.338  1.00  0.00     0.143 C
HETATM   30  N7  UNL     1      20.090   6.484   8.926  1.00  0.00    -0.353 N
ATOM     31  H7  UNL     1      19.853   6.194   7.977  1.00  0.00     0.162 HD
HETATM   32  O2  UNL     1      21.026   4.445   9.506  1.00  0.00    -0.264 OA
ENDBRANCH  19  20
ENDBRANCH  18  19
ENDBRANCH  17  18
ENDBRANCH   1  17
TORSDOF 7
ENDMDL