MODEL 4
REMARK VINA RESULT: -7.170780706      2.751      5.326
REMARK  7 active torsions:
REMARK  status: ('A' for Active; 'I' for Inactive)
REMARK    1  A    between atoms: C2_3  and  N2_4
REMARK    2  A    between atoms: N2_4  and  C3_6
REMARK    3  A    between atoms: C5_12  and  N5_13
REMARK    4  A    between atoms: N8_22  and  C8_23
REMARK    5  A    between atoms: C8_23  and  C9_24
REMARK    6  A    between atoms: C9_24  and  C10_25
REMARK    7  A    between atoms: C10_25  and  N9_26
ROOT
HETATM    1  N1  UNL     1      16.884   2.298   9.253  1.00  0.00    -0.196 NA
HETATM    2  C1  UNL     1      17.726   2.332  10.014  1.00  0.00     0.079 C
HETATM    3  C2  UNL     1      18.804   2.416  11.018  1.00  0.00     0.262 C
ENDROOT
BRANCH   3   4
HETATM    4  N2  UNL     1      18.650   3.573  11.842  1.00  0.00    -0.213 N
ATOM      5  H2  UNL     1      19.258   4.373  11.661  1.00  0.00     0.178 HD
BRANCH   4   6
HETATM    6  C3  UNL     1      17.810   3.669  12.779  1.00  0.00     0.699 A
HETATM    7  N3  UNL     1      17.644   2.842  13.839  1.00  0.00    -0.021 N
HETATM    8  C4  UNL     1      16.751   3.140  14.794  1.00  0.00     0.723 A
ATOM      9  H3  UNL     1      18.200   1.990  13.911  1.00  0.00     0.203 HD
HETATM   10  N4  UNL     1      16.549   2.242  15.781  1.00  0.00    -0.021 N
HETATM   11  N7  UNL     1      15.976   4.259  14.777  1.00  0.00    -0.090 N
HETATM   12  C5  UNL     1      15.610   2.456  16.727  1.00  0.00     0.691 A
ATOM     13  H4  UNL     1      17.113   1.392  15.814  1.00  0.00     0.203 HD
HETATM   14  N6  UNL     1      14.881   3.605  16.657  1.00  0.00    -0.186 N
HETATM   15  C6  UNL     1      15.051   4.503  15.701  1.00  0.00     0.229 A
ATOM     16  H6  UNL     1      14.174   3.780  17.371  1.00  0.00     0.185 HD
HETATM   17  C7  UNL     1      16.139   5.099  13.712  1.00  0.00     0.362 A
HETATM   18  O1  UNL     1      15.415   6.135  13.725  1.00  0.00    -0.245 OA
HETATM   19  N8  UNL     1      17.014   4.778  12.779  1.00  0.00    -0.131 N
BRANCH  12  20
HETATM   20  N5  UNL     1      15.406   1.599  17.587  1.00  0.00    -0.234 N
ATOM     21  H52 UNL     1      15.949   0.737  17.638  1.00  0.00     0.174 HD
ATOM     22  H51 UNL     1      14.699   1.763  18.304  1.00  0.00     0.174 HD
ENDBRANCH  12  20
BRANCH  19  23
HETATM   23  C8  UNL     1      16.917   5.562  11.520  1.00  0.00     0.154 C
BRANCH  23  24
HETATM   24  C9  UNL     1      17.754   6.814  11.699  1.00  0.00     0.037 C
BRANCH  24  25
HETATM   25  C10 UNL     1      17.319   7.889  10.786  1.00  0.00     0.111 C
BRANCH  25  26
HETATM   26  N9  UNL     1      15.908   7.909  10.533  1.00  0.00    -0.231 NA
HETATM   27  C11 UNL     1      15.137   8.813  11.310  1.00  0.00     0.135 C
HETATM   28  C12 UNL     1      14.293   9.725  10.407  1.00  0.00     0.185 C
HETATM   29  O2  UNL     1      13.542   8.943   9.568  1.00  0.00    -0.373 OA
HETATM   30  C13 UNL     1      14.258   8.017   8.864  1.00  0.00     0.296 C
HETATM   31  N10 UNL     1      15.671   7.985   9.190  1.00  0.00    -0.139 NA
ENDBRANCH  25  26
ENDBRANCH  24  25
ENDBRANCH  23  24
ENDBRANCH  19  23
ENDBRANCH   4   6
ENDBRANCH   3   4
TORSDOF 7
ENDMDL