MODEL 5
REMARK VINA RESULT: -6.518177873      3.499      4.710
REMARK  6 active torsions:
REMARK  status: ('A' for Active; 'I' for Inactive)
REMARK    1  A    between atoms: N4_7  and  C2_8
REMARK    2  A    between atoms: C2_8  and  C3_9
REMARK    3  A    between atoms: C3_9  and  C4_10
REMARK    4  A    between atoms: C4_10  and  N5_11
REMARK    5  A    between atoms: N6_14  and  C7_15
REMARK    6  A    between atoms: C8_18  and  N8_19
ROOT
HETATM    1  N5  UNL     1      16.275   7.778  11.564  1.00  0.00     0.091 N
HETATM    2  C5  UNL     1      16.734   7.787  12.927  1.00  0.00     0.292 C
HETATM    3  C6  UNL     1      16.451   6.438  13.536  1.00  0.00     0.171 C
HETATM    4  N6  UNL     1      16.936   5.392  12.669  1.00  0.00    -0.214 N
HETATM    5  C10 UNL     1      17.297   5.599  11.298  1.00  0.00     0.171 C
HETATM    6  C11 UNL     1      17.091   6.965  10.753  1.00  0.00     0.292 C
ENDROOT
BRANCH   4   7
HETATM    7  C7  UNL     1      17.033   4.076  13.193  1.00  0.00     0.699 A
HETATM    8  N7  UNL     1      16.931   2.973  12.404  1.00  0.00    -0.022 N
HETATM    9  C8  UNL     1      16.996   1.734  12.904  1.00  0.00     0.694 A
ATOM     10  H7  UNL     1      16.801   3.094  11.399  1.00  0.00     0.203 HD
HETATM   11  N9  UNL     1      17.166   1.551  14.223  1.00  0.00    -0.141 N
HETATM   12  C9  UNL     1      17.274   2.606  15.053  1.00  0.00     0.352 A
ATOM     13  H9  UNL     1      17.215   0.603  14.599  1.00  0.00     0.189 HD
HETATM   14  O1  UNL     1      17.435   2.417  16.291  1.00  0.00    -0.246 OA
HETATM   15  N10 UNL     1      17.204   3.843  14.515  1.00  0.00    -0.140 N
ATOM     16  H10 UNL     1      17.285   4.645  15.139  1.00  0.00     0.189 HD
BRANCH   9  17
HETATM   17  N8  UNL     1      16.923   0.661  12.161  1.00  0.00    -0.234 N
ATOM     18  H82 UNL     1      17.629   0.554  11.433  1.00  0.00     0.174 HD
ATOM     19  H81 UNL     1      16.194  -0.043  12.272  1.00  0.00     0.174 HD
ENDBRANCH   9  17
ENDBRANCH   4   7
BRANCH   1  20
HETATM   20  C4  UNL     1      16.080   9.134  11.146  1.00  0.00     0.274 C
BRANCH  20  21
HETATM   21  C3  UNL     1      14.672   9.603  11.320  1.00  0.00     0.052 C
BRANCH  21  22
HETATM   22  C2  UNL     1      13.696   9.140  10.285  1.00  0.00     0.157 C
BRANCH  22  23
HETATM   23  N4  UNL     1      14.256   8.850   8.986  1.00  0.00    -0.226 N
HETATM   24  N3  UNL     1      14.392   7.602   8.465  1.00  0.00    -0.222 N
HETATM   25  N2  UNL     1      14.957   7.689   7.276  1.00  0.00    -0.222 N
ATOM     26  H3  UNL     1      14.104   6.737   8.921  1.00  0.00     0.210 HD
HETATM   27  N1  UNL     1      15.201   8.955   6.990  1.00  0.00    -0.230 N
ATOM     28  H2  UNL     1      15.172   6.898   6.669  1.00  0.00     0.210 HD
HETATM   29  C1  UNL     1      15.833   9.459   5.776  1.00  0.00     0.184 C
HETATM   30  C12 UNL     1      14.760   9.664   8.056  1.00  0.00     0.359 A
HETATM   31  O2  UNL     1      14.832  10.908   8.127  1.00  0.00    -0.243 OA
ENDBRANCH  22  23
ENDBRANCH  21  22
ENDBRANCH  20  21
ENDBRANCH   1  20
TORSDOF 6
ENDMDL