MODEL 5
REMARK VINA RESULT: -8.212106787      3.989      9.785
REMARK  20 active torsions:
REMARK  status: ('A' for Active; 'I' for Inactive)
REMARK    1  A    between atoms: C2_2  and  C3_3
REMARK    2  A    between atoms: C3_3  and  C4_4
REMARK    3  A    between atoms: C4_4  and  N1_5
REMARK       I    between atoms: N1_5  and  C5_7
REMARK    4  A    between atoms: C5_7  and  C6_9
REMARK       I    between atoms: N2_12  and  C9_13
REMARK    5  A    between atoms: C9_13  and  C10_15
REMARK    6  A    between atoms: C10_15  and  C11_16
REMARK    7  A    between atoms: C11_16  and  N3_17
REMARK    8  A    between atoms: C11_16  and  C12_21
REMARK    9  A    between atoms: C12_21  and  C13_22
REMARK   10  A    between atoms: C13_22  and  C14_23
REMARK   11  A    between atoms: C14_23  and  C15_24
REMARK   12  A    between atoms: C15_24  and  N4_25
REMARK   13  A    between atoms: N5_33  and  C18_34
REMARK   14  A    between atoms: C18_34  and  C19_35
REMARK   15  A    between atoms: C19_35  and  C20_36
REMARK   16  A    between atoms: C20_36  and  C21_37
REMARK   17  A    between atoms: C21_37  and  C22_38
REMARK   18  A    between atoms: C22_38  and  C23_39
REMARK   19  A    between atoms: C23_39  and  N6_40
REMARK       I    between atoms: N6_40  and  C24_42
REMARK   20  A    between atoms: C24_42  and  C25_44
ROOT
HETATM    1  C6  UNL     1      16.390   5.317  16.030  1.00  0.00     0.248 C
HETATM    2  C7  UNL     1      16.310   4.344  17.078  1.00  0.00    -0.128 C
HETATM    3  C8  UNL     1      16.167   3.159  17.839  1.00  0.00     0.217 C
HETATM    4  N2  UNL     1      15.636   2.113  16.915  1.00  0.00    -0.270 N
HETATM    5  C9  UNL     1      15.026   0.990  17.524  1.00  0.00     0.229 C
HETATM    6  O2  UNL     1      14.553   0.066  16.781  1.00  0.00    -0.273 OA
HETATM    7  C16 UNL     1      15.683   2.138  15.470  1.00  0.00     0.319 C
HETATM    8  O3  UNL     1      15.691   0.997  14.945  1.00  0.00    -0.262 OA
HETATM    9  C17 UNL     1      15.721   3.299  14.553  1.00  0.00     0.313 C
HETATM   10  O4  UNL     1      15.759   3.021  13.339  1.00  0.00    -0.262 OA
HETATM   11  N5  UNL     1      15.720   4.718  14.858  1.00  0.00    -0.321 N
ENDROOT
BRANCH  11  12
HETATM   12  C18 UNL     1      14.986   5.556  13.978  1.00  0.00     0.128 C
BRANCH  12  13
HETATM   13  C19 UNL     1      14.818   6.986  14.355  1.00  0.00     0.020 C
BRANCH  13  14
HETATM   14  C20 UNL     1      15.549   7.787  13.261  1.00  0.00     0.002 C
BRANCH  14  15
HETATM   15  C21 UNL     1      15.343   9.260  13.398  1.00  0.00     0.002 C
BRANCH  15  16
HETATM   16  C22 UNL     1      16.394   9.904  12.479  1.00  0.00     0.020 C
BRANCH  16  17
HETATM   17  C23 UNL     1      15.769  10.599  11.314  1.00  0.00     0.122 C
BRANCH  17  18
HETATM   18  N6  UNL     1      15.800   9.710  10.173  1.00  0.00    -0.361 N
HETATM   19  C24 UNL     1      16.858   9.569   9.265  1.00  0.00     0.223 C
HETATM   20  O5  UNL     1      17.948  10.210   9.311  1.00  0.00    -0.273 OA
ATOM     21  H6  UNL     1      14.975   9.132  10.015  1.00  0.00     0.162 HD
BRANCH  19  22
HETATM   22  C25 UNL     1      16.704   8.583   8.143  1.00  0.00     0.105 C
HETATM   23  C26 UNL     1      16.088   7.334   8.732  1.00  0.00     0.043 C
HETATM   24  C27 UNL     1      16.614   6.268   7.785  1.00  0.00     0.233 C
HETATM   25  N7  UNL     1      17.872   6.726   7.279  1.00  0.00    -0.074 N
HETATM   26  C28 UNL     1      18.034   8.101   7.648  1.00  0.00     0.246 C
ATOM     27  H72 UNL     1      18.653   6.145   7.584  1.00  0.00     0.277 HD
ATOM     28  H71 UNL     1      17.969   6.576   6.275  1.00  0.00     0.277 HD
ENDBRANCH  19  22
ENDBRANCH  17  18
ENDBRANCH  16  17
ENDBRANCH  15  16
ENDBRANCH  14  15
ENDBRANCH  13  14
ENDBRANCH  12  13
ENDBRANCH  11  12
BRANCH   1  29
HETATM   29  C5  UNL     1      17.801   5.686  15.641  1.00  0.00     0.251 C
HETATM   30  N1  UNL     1      18.134   7.006  15.340  1.00  0.00    -0.358 N
ATOM     31  H1  UNL     1      17.388   7.699  15.396  1.00  0.00     0.162 HD
HETATM   32  O1  UNL     1      18.643   4.767  15.601  1.00  0.00    -0.270 OA
BRANCH  30  33
HETATM   33  C4  UNL     1      19.446   7.476  14.956  1.00  0.00     0.122 C
BRANCH  33  34
HETATM   34  C3  UNL     1      19.466   7.983  13.541  1.00  0.00     0.019 C
BRANCH  34  35
HETATM   35  C2  UNL     1      19.523   6.759  12.619  1.00  0.00    -0.003 C
HETATM   36  C1  UNL     1      18.685   7.094  11.397  1.00  0.00     0.005 C
ENDBRANCH  34  35
ENDBRANCH  33  34
ENDBRANCH  30  33
ENDBRANCH   1  29
BRANCH   5  37
HETATM   37  C10 UNL     1      14.901   0.822  18.967  1.00  0.00     0.136 C
BRANCH  37  38
HETATM   38  C11 UNL     1      13.450   0.545  19.319  1.00  0.00     0.192 C
BRANCH  38  39
HETATM   39  N3  UNL     1      13.186  -0.849  19.482  1.00  0.00    -0.075 N
ATOM     40  H33 UNL     1      13.313  -1.352  18.603  1.00  0.00     0.274 HD
ATOM     41  H32 UNL     1      13.914  -1.299  20.035  1.00  0.00     0.274 HD
ATOM     42  H31 UNL     1      12.262  -1.026  19.876  1.00  0.00     0.274 HD
ENDBRANCH  38  39
BRANCH  38  43
HETATM   43  C12 UNL     1      12.989   1.438  20.417  1.00  0.00     0.033 C
BRANCH  43  44
HETATM   44  C13 UNL     1      13.043   2.897  20.150  1.00  0.00     0.004 C
BRANCH  44  45
HETATM   45  C14 UNL     1      13.794   3.725  21.132  1.00  0.00     0.027 C
BRANCH  45  46
HETATM   46  C15 UNL     1      14.340   5.012  20.596  1.00  0.00     0.229 C
BRANCH  46  47
HETATM   47  N4  UNL     1      13.618   5.311  19.367  1.00  0.00    -0.079 N
ATOM     48  H43 UNL     1      12.938   4.592  19.119  1.00  0.00     0.274 HD
ATOM     49  H42 UNL     1      12.961   6.085  19.469  1.00  0.00     0.274 HD
ATOM     50  H41 UNL     1      14.313   5.471  18.637  1.00  0.00     0.274 HD
ENDBRANCH  46  47
ENDBRANCH  45  46
ENDBRANCH  44  45
ENDBRANCH  43  44
ENDBRANCH  38  43
ENDBRANCH  37  38
ENDBRANCH   5  37
TORSDOF 20
ENDMDL