MODEL 1
REMARK VINA RESULT: -7.550946504      0.000      0.000
REMARK  22 active torsions:
REMARK  status: ('A' for Active; 'I' for Inactive)
REMARK       I    between atoms: N1_2  and  C2_3
REMARK    1  A    between atoms: N1_2  and  C4_10
REMARK    2  A    between atoms: C2_3  and  C3_5
REMARK    3  A    between atoms: C3_5  and  N2_6
REMARK    4  A    between atoms: C5_11  and  O2_12
REMARK    5  A    between atoms: O2_12  and  C6_13
REMARK    6  A    between atoms: C6_13  and  C7_14
REMARK    7  A    between atoms: C7_14  and  C8_15
REMARK    8  A    between atoms: C8_15  and  C9_16
REMARK    9  A    between atoms: C9_16  and  C10_17
REMARK   10  A    between atoms: C10_17  and  C11_18
REMARK   11  A    between atoms: C11_18  and  C12_19
REMARK   12  A    between atoms: C12_19  and  C13_20
REMARK   13  A    between atoms: C13_20  and  C14_21
REMARK   14  A    between atoms: C14_21  and  C15_22
REMARK   15  A    between atoms: C15_22  and  C16_23
REMARK   16  A    between atoms: C16_23  and  C17_24
REMARK   17  A    between atoms: C18_27  and  O5_28
REMARK   18  A    between atoms: C19_30  and  C20_31
REMARK   19  A    between atoms: C20_31  and  O6_32
REMARK   20  A    between atoms: C20_31  and  N3_34
REMARK   21  A    between atoms: C22_36  and  C23_37
REMARK   22  A    between atoms: C25_41  and  C26_42
ROOT
HETATM    1  C4  UNL     1      15.389   5.326  15.207  1.00  0.00     0.132 C
HETATM    2  C5  UNL     1      15.501   6.625  15.910  1.00  0.00     0.174 C
HETATM    3  C18 UNL     1      15.409   7.343  14.605  1.00  0.00     0.163 C
HETATM    4  C19 UNL     1      15.123   6.005  13.918  1.00  0.00     0.117 C
ENDROOT
BRANCH   2   5
HETATM    5  O2  UNL     1      14.438   6.914  16.794  1.00  0.00    -0.381 OA
BRANCH   5   6
HETATM    6  C6  UNL     1      14.934   6.654  18.104  1.00  0.00     0.168 C
BRANCH   6   7
HETATM    7  C7  UNL     1      14.076   7.421  19.054  1.00  0.00     0.026 C
BRANCH   7   8
HETATM    8  C8  UNL     1      13.707   8.776  18.422  1.00  0.00     0.002 C
BRANCH   8   9
HETATM    9  C9  UNL     1      12.683   9.488  19.218  1.00  0.00     0.000 C
BRANCH   9  10
HETATM   10  C10 UNL     1      12.479  10.921  19.005  1.00  0.00     0.000 C
BRANCH  10  11
HETATM   11  C11 UNL     1      11.505  11.384  18.029  1.00  0.00     0.000 C
BRANCH  11  12
HETATM   12  C12 UNL     1      11.886  12.208  16.850  1.00  0.00     0.000 C
BRANCH  12  13
HETATM   13  C13 UNL     1      12.780  11.504  15.913  1.00  0.00     0.000 C
BRANCH  13  14
HETATM   14  C14 UNL     1      13.383  12.241  14.790  1.00  0.00     0.001 C
BRANCH  14  15
HETATM   15  C15 UNL     1      13.178  11.819  13.413  1.00  0.00     0.010 C
BRANCH  15  16
HETATM   16  C16 UNL     1      14.280  11.142  12.668  1.00  0.00     0.113 C
BRANCH  16  17
HETATM   17  C17 UNL     1      13.946  11.098  11.189  1.00  0.00     0.172 C
HETATM   18  O3  UNL     1      13.157  11.940  10.749  1.00  0.00    -0.648 OA
HETATM   19  O4  UNL     1      14.512  10.149  10.393  1.00  0.00    -0.648 OA
ENDBRANCH  16  17
ENDBRANCH  15  16
ENDBRANCH  14  15
ENDBRANCH  13  14
ENDBRANCH  12  13
ENDBRANCH  11  12
ENDBRANCH  10  11
ENDBRANCH   9  10
ENDBRANCH   8   9
ENDBRANCH   7   8
ENDBRANCH   6   7
ENDBRANCH   5   6
ENDBRANCH   2   5
BRANCH   1  20
HETATM   20  N1  UNL     1      16.410   4.368  15.402  1.00  0.00    -0.347 N
HETATM   21  C1  UNL     1      17.591   4.770  16.188  1.00  0.00     0.153 C
HETATM   22  C2  UNL     1      16.360   3.055  14.905  1.00  0.00     0.245 C
HETATM   23  O1  UNL     1      15.366   2.695  14.170  1.00  0.00    -0.272 OA
BRANCH  22  24
HETATM   24  C3  UNL     1      17.347   1.973  15.124  1.00  0.00     0.332 C
BRANCH  24  25
HETATM   25  N2  UNL     1      18.042   1.493  13.995  1.00  0.00    -0.071 N
ATOM     26  H23 UNL     1      18.920   2.004  13.894  1.00  0.00     0.274 HD
ATOM     27  H22 UNL     1      18.391   0.554  14.185  1.00  0.00     0.274 HD
ATOM     28  H21 UNL     1      17.546   1.496  13.103  1.00  0.00     0.274 HD
ENDBRANCH  24  25
ENDBRANCH  22  24
ENDBRANCH   1  20
BRANCH   3  29
HETATM   29  O5  UNL     1      14.263   8.174  14.590  1.00  0.00    -0.392 OA
ATOM     30  H5  UNL     1      13.593   7.792  14.035  1.00  0.00     0.210 HD
ENDBRANCH   3  29
BRANCH   4  31
HETATM   31  C20 UNL     1      15.945   5.825  12.736  1.00  0.00     0.123 C
BRANCH  31  32
HETATM   32  O6  UNL     1      15.566   4.809  11.983  1.00  0.00    -0.349 OA
ATOM     33  H6  UNL     1      15.708   3.963  12.392  1.00  0.00     0.219 HD
ENDBRANCH  31  32
BRANCH  31  34
HETATM   34  N3  UNL     1      17.046   6.497  12.225  1.00  0.00    -0.351 N
HETATM   35  C21 UNL     1      16.834   7.518  11.110  1.00  0.00     0.139 C
HETATM   36  C22 UNL     1      17.423   8.717  11.886  1.00  0.00     0.095 C
HETATM   37  C24 UNL     1      18.593   8.101  12.676  1.00  0.00     0.050 C
HETATM   38  C25 UNL     1      18.460   6.602  12.330  1.00  0.00     0.176 C
BRANCH  36  39
HETATM   39  C23 UNL     1      17.896   9.769  10.974  1.00  0.00     0.236 C
HETATM   40  N4  UNL     1      18.699   9.451   9.853  1.00  0.00    -0.062 NA
HETATM   41  O7  UNL     1      17.585  10.963  11.192  1.00  0.00    -0.276 OA
ENDBRANCH  36  39
BRANCH  38  42
HETATM   42  C26 UNL     1      19.264   5.714  13.107  1.00  0.00     0.254 C
HETATM   43  N5  UNL     1      19.271   4.280  12.873  1.00  0.00    -0.060 NA
HETATM   44  O8  UNL     1      20.013   6.089  14.034  1.00  0.00    -0.275 OA
ENDBRANCH  38  42
ENDBRANCH  31  34
ENDBRANCH   4  31
TORSDOF 22
ENDMDL