MODEL 5
REMARK VINA RESULT: -8.515300947      2.364      8.853
REMARK  18 active torsions:
REMARK  status: ('A' for Active; 'I' for Inactive)
REMARK       I    between atoms: C1_4  and  N3_6
REMARK    1  A    between atoms: N3_6  and  C2_8
REMARK    2  A    between atoms: C2_8  and  C3_9
REMARK    3  A    between atoms: C3_9  and  N4_10
REMARK    4  A    between atoms: N4_10  and  C4_11
REMARK    5  A    between atoms: N4_10  and  C5_13
REMARK    6  A    between atoms: C5_13  and  C6_14
REMARK    7  A    between atoms: C6_14  and  C7_15
REMARK    8  A    between atoms: C7_15  and  C8_16
REMARK    9  A    between atoms: C7_15  and  N5_24
REMARK   10  A    between atoms: C8_16  and  O2_17
REMARK   11  A    between atoms: O2_17  and  C9_18
REMARK       I    between atoms: N6_27  and  C17_28
REMARK   12  A    between atoms: C17_28  and  C18_30
REMARK   13  A    between atoms: C18_30  and  C19_31
REMARK   14  A    between atoms: C18_30  and  C23_39
REMARK   15  A    between atoms: C19_31  and  C20_32
REMARK   16  A    between atoms: C20_32  and  C21_33
REMARK   17  A    between atoms: C21_33  and  N7_34
REMARK   18  A    between atoms: C23_39  and  C24_40
ROOT
HETATM    1  C7  UNL     1      15.408   6.484  17.992  1.00  0.00     0.114 C
ENDROOT
BRANCH   1   2
HETATM    2  C6  UNL     1      15.611   5.034  18.408  1.00  0.00     0.047 C
BRANCH   2   3
HETATM    3  C5  UNL     1      15.695   4.924  19.897  1.00  0.00     0.127 C
BRANCH   3   4
HETATM    4  N4  UNL     1      14.896   3.875  20.475  1.00  0.00    -0.358 N
BRANCH   4   5
HETATM    5  C3  UNL     1      15.484   2.788  21.180  1.00  0.00     0.145 C
BRANCH   5   6
HETATM    6  C2  UNL     1      16.220   1.827  20.299  1.00  0.00     0.142 C
BRANCH   6   7
HETATM    7  N3  UNL     1      15.311   0.777  19.840  1.00  0.00    -0.363 N
HETATM    8  C1  UNL     1      15.121   0.653  18.446  1.00  0.00     0.181 C
HETATM    9  N1  UNL     1      14.415   1.518  17.811  1.00  0.00    -0.374 N
HETATM   10  N2  UNL     1      15.702  -0.423  17.744  1.00  0.00    -0.064 NA
ATOM     11  H12 UNL     1      14.278   1.428  16.804  1.00  0.00     0.158 HD
ATOM     12  H11 UNL     1      13.994   2.296  18.319  1.00  0.00     0.158 HD
ATOM     13  H3  UNL     1      14.835   0.160  20.499  1.00  0.00     0.162 HD
ENDBRANCH   6   7
ENDBRANCH   5   6
ENDBRANCH   4   5
BRANCH   4  14
HETATM   14  C4  UNL     1      13.468   3.857  20.329  1.00  0.00     0.350 C
HETATM   15  O1  UNL     1      12.838   2.838  20.030  1.00  0.00    -0.284 OA
ENDBRANCH   4  14
ENDBRANCH   3   4
ENDBRANCH   2   3
ENDBRANCH   1   2
BRANCH   1  16
HETATM   16  C8  UNL     1      14.111   7.072  18.475  1.00  0.00     0.193 C
BRANCH  16  17
HETATM   17  O2  UNL     1      14.351   8.446  18.652  1.00  0.00    -0.384 OA
BRANCH  17  18
HETATM   18  C9  UNL     1      13.208   9.193  18.397  1.00  0.00     0.121 C
HETATM   19  C10 UNL     1      13.045  10.186  19.545  1.00  0.00     0.032 C
HETATM   20  C11 UNL     1      11.677  10.816  19.376  1.00  0.00     0.002 C
HETATM   21  C12 UNL     1      11.510  11.414  17.999  1.00  0.00     0.000 C
HETATM   22  C13 UNL     1      12.774  11.347  17.190  1.00  0.00     0.002 C
HETATM   23  C14 UNL     1      13.378   9.971  17.132  1.00  0.00     0.032 C
ENDBRANCH  17  18
ENDBRANCH  16  17
ENDBRANCH   1  16
BRANCH   1  24
HETATM   24  N5  UNL     1      15.549   6.619  16.550  1.00  0.00    -0.325 N
HETATM   25  C15 UNL     1      14.486   6.712  15.565  1.00  0.00     0.148 C
HETATM   26  C16 UNL     1      15.115   7.743  14.618  1.00  0.00     0.157 C
HETATM   27  N6  UNL     1      16.460   7.190  14.463  1.00  0.00    -0.264 N
HETATM   28  C17 UNL     1      17.291   7.138  13.323  1.00  0.00     0.257 C
HETATM   29  C27 UNL     1      16.750   6.693  15.786  1.00  0.00     0.328 C
HETATM   30  O3  UNL     1      18.420   6.608  13.469  1.00  0.00    -0.267 OA
HETATM   31  O4  UNL     1      17.899   6.383  16.172  1.00  0.00    -0.247 OA
BRANCH  28  32
HETATM   32  C18 UNL     1      16.926   7.657  12.001  1.00  0.00     0.007 C
BRANCH  32  33
HETATM   33  C19 UNL     1      17.515   8.927  11.578  1.00  0.00    -0.012 C
BRANCH  33  34
HETATM   34  C20 UNL     1      16.847  10.199  11.472  1.00  0.00     0.047 C
BRANCH  34  35
HETATM   35  C21 UNL     1      15.405  10.206  11.071  1.00  0.00     0.126 C
BRANCH  35  36
HETATM   36  N7  UNL     1      14.500  10.469  12.154  1.00  0.00    -0.367 N
HETATM   37  C22 UNL     1      13.536  11.280  11.972  1.00  0.00     0.196 C
HETATM   38  N8  UNL     1      12.590  11.607  12.976  1.00  0.00    -0.067 NA
HETATM   39  N9  UNL     1      13.343  11.929  10.705  1.00  0.00    -0.067 NA
ATOM     40  H7  UNL     1      14.628  10.013  13.057  1.00  0.00     0.161 HD
ENDBRANCH  35  36
ENDBRANCH  34  35
ENDBRANCH  33  34
ENDBRANCH  32  33
BRANCH  32  41
HETATM   41  C23 UNL     1      16.517   6.641  11.000  1.00  0.00     0.048 C
BRANCH  41  42
HETATM   42  C24 UNL     1      17.022   6.683   9.628  1.00  0.00    -0.010 A
HETATM   43  C25 UNL     1      15.981   7.243   8.601  1.00  0.00     0.005 A
HETATM   44  C26 UNL     1      16.236   5.803   8.623  1.00  0.00     0.005 A
ENDBRANCH  41  42
ENDBRANCH  32  41
ENDBRANCH  28  32
ENDBRANCH   1  24
TORSDOF 18
ENDMDL