MODEL 3
REMARK VINA RESULT: -9.234029926      2.064      4.691
REMARK  18 active torsions:
REMARK  status: ('A' for Active; 'I' for Inactive)
REMARK    1  A    between atoms: N3_4  and  C2_6
REMARK    2  A    between atoms: C2_6  and  C3_7
REMARK    3  A    between atoms: C3_7  and  C4_8
REMARK    4  A    between atoms: C4_8  and  C5_9
REMARK    5  A    between atoms: C5_9  and  C6_10
REMARK    6  A    between atoms: C5_9  and  N5_20
REMARK    7  A    between atoms: C6_10  and  C7_11
REMARK    8  A    between atoms: C7_11  and  C8_12
REMARK       I    between atoms: C8_12  and  N4_14
REMARK    9  A    between atoms: N4_14  and  C9_16
REMARK   10  A    between atoms: C9_16  and  C10_17
REMARK       I    between atoms: N5_20  and  C11_22
REMARK   11  A    between atoms: C11_22  and  C12_24
REMARK   12  A    between atoms: C12_24  and  C13_25
REMARK   13  A    between atoms: C13_25  and  C14_26
REMARK   14  A    between atoms: C14_26  and  C15_27
REMARK   15  A    between atoms: C15_27  and  C16_28
REMARK   16  A    between atoms: C16_28  and  C17_29
REMARK       I    between atoms: C17_29  and  N6_31
REMARK   17  A    between atoms: C21_35  and  C22_36
REMARK   18  A    between atoms: C22_36  and  N7_37
ROOT
HETATM    1  N5  UNL     1      13.361   9.769  15.417  1.00  0.00    -0.356 N
ATOM      2  H5  UNL     1      12.805   9.383  16.179  1.00  0.00     0.162 HD
HETATM    3  C11 UNL     1      14.232   8.881  14.764  1.00  0.00     0.217 C
HETATM    4  O4  UNL     1      14.962   9.187  13.816  1.00  0.00    -0.274 OA
ENDROOT
BRANCH   1   5
HETATM    5  C5  UNL     1      13.167  11.168  15.126  1.00  0.00     0.084 C
BRANCH   5   6
HETATM    6  C4  UNL     1      12.494  11.754  16.355  1.00  0.00     0.027 C
BRANCH   6   7
HETATM    7  C3  UNL     1      13.470  12.512  17.214  1.00  0.00     0.022 C
BRANCH   7   8
HETATM    8  C2  UNL     1      13.538  11.842  18.568  1.00  0.00     0.122 C
BRANCH   8   9
HETATM    9  N3  UNL     1      12.348  12.115  19.346  1.00  0.00    -0.367 N
HETATM   10  C1  UNL     1      11.633  11.143  19.804  1.00  0.00     0.196 C
HETATM   11  N1  UNL     1      10.476  11.434  20.558  1.00  0.00    -0.067 NA
HETATM   12  N2  UNL     1      11.993   9.810  19.558  1.00  0.00    -0.067 NA
ATOM     13  H3  UNL     1      12.074  13.080  19.533  1.00  0.00     0.161 HD
ENDBRANCH   8   9
ENDBRANCH   7   8
ENDBRANCH   6   7
ENDBRANCH   5   6
BRANCH   5  14
HETATM   14  C6  UNL     1      12.403  11.466  13.876  1.00  0.00     0.034 C
BRANCH  14  15
HETATM   15  C7  UNL     1      13.128  12.439  13.003  1.00  0.00     0.105 C
BRANCH  15  16
HETATM   16  C8  UNL     1      13.776  11.839  11.813  1.00  0.00     0.218 C
HETATM   17  O1  UNL     1      13.232  11.826  10.699  1.00  0.00    -0.274 OA
HETATM   18  N4  UNL     1      15.069  11.249  11.919  1.00  0.00    -0.351 N
ATOM     19  H4  UNL     1      15.537  11.246  12.826  1.00  0.00     0.163 HD
BRANCH  18  20
HETATM   20  C9  UNL     1      15.734  10.659  10.795  1.00  0.00     0.235 C
BRANCH  20  21
HETATM   21  C10 UNL     1      17.195  10.526  11.065  1.00  0.00     0.191 C
HETATM   22  O2  UNL     1      17.614   9.930  12.074  1.00  0.00    -0.647 OA
HETATM   23  O3  UNL     1      18.114  11.067  10.192  1.00  0.00    -0.647 OA
ENDBRANCH  20  21
ENDBRANCH  18  20
ENDBRANCH  15  16
ENDBRANCH  14  15
ENDBRANCH   5  14
ENDBRANCH   1   5
BRANCH   3  24
HETATM   24  C12 UNL     1      14.323   7.443  15.209  1.00  0.00     0.103 C
BRANCH  24  25
HETATM   25  C13 UNL     1      15.100   6.610  14.242  1.00  0.00     0.009 C
BRANCH  25  26
HETATM   26  C14 UNL     1      14.545   5.203  14.149  1.00  0.00     0.001 C
BRANCH  26  27
HETATM   27  C15 UNL     1      15.634   4.170  14.205  1.00  0.00     0.009 C
BRANCH  27  28
HETATM   28  C16 UNL     1      15.409   3.074  15.179  1.00  0.00     0.103 C
BRANCH  28  29
HETATM   29  C17 UNL     1      15.994   3.306  16.508  1.00  0.00     0.220 C
HETATM   30  O5  UNL     1      16.766   4.268  16.706  1.00  0.00    -0.273 OA
HETATM   31  N6  UNL     1      15.674   2.416  17.593  1.00  0.00    -0.346 N
HETATM   32  C18 UNL     1      14.797   1.267  17.489  1.00  0.00     0.126 C
HETATM   33  C21 UNL     1      16.194   2.504  18.908  1.00  0.00     0.115 C
HETATM   34  C19 UNL     1      14.560   0.790  18.895  1.00  0.00     0.022 C
HETATM   35  C20 UNL     1      15.777   1.252  19.670  1.00  0.00     0.029 C
BRANCH  33  36
HETATM   36  C22 UNL     1      15.881   3.706  19.736  1.00  0.00     0.297 C
BRANCH  36  37
HETATM   37  N7  UNL     1      14.601   4.273  19.684  1.00  0.00     0.094 N
HETATM   38  C23 UNL     1      14.011   4.327  21.068  1.00  0.00     0.298 C
HETATM   39  C24 UNL     1      14.907   5.127  21.943  1.00  0.00     0.198 C
HETATM   40  O6  UNL     1      15.536   6.191  21.370  1.00  0.00    -0.388 OA
HETATM   41  C25 UNL     1      15.092   6.625  20.163  1.00  0.00     0.198 C
HETATM   42  C26 UNL     1      14.490   5.621  19.242  1.00  0.00     0.298 C
ENDBRANCH  36  37
ENDBRANCH  33  36
ENDBRANCH  28  29
ENDBRANCH  27  28
ENDBRANCH  26  27
ENDBRANCH  25  26
ENDBRANCH  24  25
ENDBRANCH   3  24
TORSDOF 18
ENDMDL