MODEL 3
REMARK VINA RESULT: -7.410778841      3.925      7.735
REMARK  19 active torsions:
REMARK  status: ('A' for Active; 'I' for Inactive)
REMARK    1  A    between atoms: C2_2  and  C3_3
REMARK    2  A    between atoms: C3_3  and  C4_4
REMARK    3  A    between atoms: C4_4  and  C5_5
REMARK    4  A    between atoms: C5_5  and  C6_6
REMARK    5  A    between atoms: C6_6  and  C7_7
REMARK       I    between atoms: C7_7  and  N1_9
REMARK    6  A    between atoms: N1_9  and  C9_11
REMARK    7  A    between atoms: C9_11  and  C10_12
REMARK    8  A    between atoms: C10_12  and  C11_13
REMARK    9  A    between atoms: C11_13  and  C12_14
REMARK   10  A    between atoms: C12_14  and  C13_15
REMARK   11  A    between atoms: C16_21  and  C17_22
REMARK   12  A    between atoms: C17_22  and  C18_23
REMARK   13  A    between atoms: C18_23  and  C19_24
REMARK   14  A    between atoms: C19_24  and  N3_25
REMARK   15  A    between atoms: N6_30  and  S1_31
REMARK   16  A    between atoms: S1_31  and  N7_34
REMARK   17  A    between atoms: N7_34  and  C21_36
REMARK   18  A    between atoms: C21_36  and  C23_38
REMARK   19  A    between atoms: C23_38  and  N8_39
ROOT
HETATM    1  C11 UNL     1      16.616   6.272  13.170  1.00  0.00     0.116 C
HETATM    2  N2  UNL     1      18.040   6.111  12.984  1.00  0.00    -0.341 N
ATOM      3  H2  UNL     1      18.476   6.478  12.139  1.00  0.00     0.163 HD
HETATM    4  C15 UNL     1      18.840   5.460  13.940  1.00  0.00     0.242 C
HETATM    5  O2  UNL     1      19.819   4.785  13.619  1.00  0.00    -0.271 OA
HETATM    6  C16 UNL     1      18.484   5.594  15.410  1.00  0.00     0.198 C
HETATM    7  N6  UNL     1      17.061   5.288  15.518  1.00  0.00    -0.212 N
HETATM    8  C24 UNL     1      16.200   5.812  14.528  1.00  0.00     0.263 C
HETATM    9  O5  UNL     1      14.973   5.904  14.804  1.00  0.00    -0.269 OA
ENDROOT
BRANCH   1  10
HETATM   10  C10 UNL     1      16.131   7.684  13.033  1.00  0.00     0.061 C
BRANCH  10  11
HETATM   11  C9  UNL     1      17.193   8.740  13.122  1.00  0.00     0.128 C
BRANCH  11  12
HETATM   12  N1  UNL     1      17.141   9.633  11.966  1.00  0.00    -0.356 N
HETATM   13  C7  UNL     1      18.016   9.366  10.879  1.00  0.00     0.219 C
HETATM   14  O1  UNL     1      18.780   8.369  10.909  1.00  0.00    -0.273 OA
HETATM   15  C8  UNL     1      16.234  10.732  11.990  1.00  0.00     0.152 C
BRANCH  13  16
HETATM   16  C6  UNL     1      18.080  10.224   9.674  1.00  0.00     0.103 C
BRANCH  16  17
HETATM   17  C5  UNL     1      17.104   9.748   8.655  1.00  0.00     0.009 C
BRANCH  17  18
HETATM   18  C4  UNL     1      17.771   9.055   7.486  1.00  0.00     0.000 C
BRANCH  18  19
HETATM   19  C3  UNL     1      17.618   7.549   7.672  1.00  0.00    -0.000 C
BRANCH  19  20
HETATM   20  C2  UNL     1      16.271   7.244   8.312  1.00  0.00    -0.005 C
HETATM   21  C1  UNL     1      16.148   5.737   8.451  1.00  0.00     0.005 C
ENDBRANCH  19  20
ENDBRANCH  18  19
ENDBRANCH  17  18
ENDBRANCH  16  17
ENDBRANCH  13  16
ENDBRANCH  11  12
ENDBRANCH  10  11
ENDBRANCH   1  10
BRANCH   1  22
HETATM   22  C12 UNL     1      15.858   5.425  12.169  1.00  0.00     0.041 C
BRANCH  22  23
HETATM   23  C13 UNL     1      16.345   3.987  12.162  1.00  0.00    -0.002 C
HETATM   24  C14 UNL     1      15.158   3.085  12.344  1.00  0.00     0.005 C
ENDBRANCH  22  23
ENDBRANCH   1  22
BRANCH   7  25
HETATM   25  S1  UNL     1      16.423   4.326  16.788  1.00  0.00     0.324 S
HETATM   26  O3  UNL     1      15.718   5.184  17.822  1.00  0.00    -0.182 OA
HETATM   27  O4  UNL     1      17.498   3.576  17.552  1.00  0.00    -0.182 OA
BRANCH  25  28
HETATM   28  N7  UNL     1      15.371   3.094  16.194  1.00  0.00    -0.296 N
ATOM     29  H7  UNL     1      14.500   3.295  15.703  1.00  0.00     0.174 HD
BRANCH  28  30
HETATM   30  C21 UNL     1      15.830   1.766  16.454  1.00  0.00     0.115 C
HETATM   31  C22 UNL     1      16.346   1.033  15.244  1.00  0.00     0.034 C
BRANCH  30  32
HETATM   32  C23 UNL     1      14.783   0.935  17.191  1.00  0.00     0.254 C
BRANCH  32  33
HETATM   33  N8  UNL     1      14.194   1.780  18.212  1.00  0.00    -0.077 N
ATOM     34  H83 UNL     1      13.367   2.281  17.885  1.00  0.00     0.274 HD
ATOM     35  H82 UNL     1      13.743   1.248  18.956  1.00  0.00     0.274 HD
ATOM     36  H81 UNL     1      14.925   2.402  18.555  1.00  0.00     0.274 HD
ENDBRANCH  32  33
ENDBRANCH  30  32
ENDBRANCH  28  30
ENDBRANCH  25  28
ENDBRANCH   7  25
BRANCH   6  37
HETATM   37  C17 UNL     1      18.840   7.001  15.750  1.00  0.00     0.038 C
BRANCH  37  38
HETATM   38  C18 UNL     1      20.244   7.312  16.091  1.00  0.00     0.022 C
BRANCH  38  39
HETATM   39  C19 UNL     1      21.044   8.059  15.083  1.00  0.00     0.122 C
BRANCH  39  40
HETATM   40  N3  UNL     1      22.281   8.511  15.696  1.00  0.00    -0.367 N
HETATM   41  C20 UNL     1      23.167   9.176  15.053  1.00  0.00     0.196 C
HETATM   42  N4  UNL     1      22.897   9.470  13.678  1.00  0.00    -0.067 NA
HETATM   43  N5  UNL     1      24.357   9.597  15.690  1.00  0.00    -0.067 NA
ATOM     44  H3  UNL     1      22.450   8.291  16.678  1.00  0.00     0.161 HD
ENDBRANCH  39  40
ENDBRANCH  38  39
ENDBRANCH  37  38
ENDBRANCH   6  37
TORSDOF 19
ENDMDL