MODEL 5
REMARK VINA RESULT: -8.042963927      2.527      8.461
REMARK  20 active torsions:
REMARK  status: ('A' for Active; 'I' for Inactive)
REMARK    1  A    between atoms: C2_2  and  N1_3
REMARK    2  A    between atoms: N1_3  and  C3_5
REMARK    3  A    between atoms: C3_5  and  C4_6
REMARK    4  A    between atoms: N2_10  and  C8_11
REMARK    5  A    between atoms: C8_11  and  C9_12
REMARK    6  A    between atoms: C8_11  and  C14_21
REMARK    7  A    between atoms: C9_12  and  C10_13
REMARK    8  A    between atoms: C10_13  and  C11_14
REMARK    9  A    between atoms: C11_14  and  C12_15
REMARK   10  A    between atoms: C12_15  and  N3_16
REMARK       I    between atoms: C14_21  and  N6_23
REMARK   11  A    between atoms: C18_27  and  C19_28
REMARK       I    between atoms: C19_28  and  N7_30
REMARK   12  A    between atoms: N7_30  and  C20_31
REMARK   13  A    between atoms: C20_31  and  C21_32
REMARK   14  A    between atoms: C20_31  and  C25_40
REMARK   15  A    between atoms: C21_32  and  C22_33
REMARK   16  A    between atoms: C22_33  and  C23_34
REMARK   17  A    between atoms: C23_34  and  C24_35
REMARK   18  A    between atoms: C24_35  and  N8_36
REMARK   19  A    between atoms: C25_40  and  C26_41
REMARK   20  A    between atoms: C26_41  and  C27_42
ROOT
HETATM    1  C14 UNL     1      15.055   8.386  19.580  1.00  0.00     0.266 C
HETATM    2  O1  UNL     1      15.542   9.235  20.346  1.00  0.00    -0.266 OA
HETATM    3  N6  UNL     1      15.145   7.008  20.019  1.00  0.00    -0.332 N
HETATM    4  C15 UNL     1      15.702   6.581  21.308  1.00  0.00     0.127 C
HETATM    5  C16 UNL     1      15.016   5.277  21.593  1.00  0.00     0.022 C
HETATM    6  C17 UNL     1      14.082   5.039  20.444  1.00  0.00     0.038 C
HETATM    7  C18 UNL     1      14.759   5.806  19.343  1.00  0.00     0.194 C
ENDROOT
BRANCH   1   8
HETATM    8  C8  UNL     1      14.437   8.739  18.319  1.00  0.00     0.076 C
BRANCH   8   9
HETATM    9  N2  UNL     1      13.364   9.646  18.406  1.00  0.00    -0.379 N
HETATM   10  C7  UNL     1      12.410   9.450  19.442  1.00  0.00     0.123 C
HETATM   11  C6  UNL     1      11.474  10.614  19.593  1.00  0.00     0.021 C
HETATM   12  C5  UNL     1      11.162  11.377  18.346  1.00  0.00     0.013 C
HETATM   13  C4  UNL     1      12.265  11.416  17.331  1.00  0.00     0.041 C
HETATM   14  C28 UNL     1      13.544  11.010  18.116  1.00  0.00     0.132 C
BRANCH  13  15
HETATM   15  C3  UNL     1      12.456  12.724  16.674  1.00  0.00     0.061 C
BRANCH  15  16
HETATM   16  N1  UNL     1      12.667  12.792  15.299  1.00  0.00    -0.402 N
ATOM     17  H1  UNL     1      12.648  13.705  14.844  1.00  0.00     0.158 HD
BRANCH  16  18
HETATM   18  C2  UNL     1      12.905  11.657  14.520  1.00  0.00     0.114 C
HETATM   19  C1  UNL     1      12.712  12.010  13.021  1.00  0.00     0.026 C
ENDBRANCH  16  18
ENDBRANCH  15  16
ENDBRANCH  13  15
ENDBRANCH   8   9
BRANCH   8  20
HETATM   20  C9  UNL     1      14.213   7.603  17.346  1.00  0.00     0.063 C
BRANCH  20  21
HETATM   21  C10 UNL     1      14.180   8.006  15.894  1.00  0.00     0.008 C
BRANCH  21  22
HETATM   22  C11 UNL     1      14.848   6.887  15.093  1.00  0.00     0.020 C
BRANCH  22  23
HETATM   23  C12 UNL     1      15.917   7.453  14.219  1.00  0.00     0.122 C
BRANCH  23  24
HETATM   24  N3  UNL     1      15.278   8.369  13.262  1.00  0.00    -0.367 N
HETATM   25  C13 UNL     1      15.942   9.195  12.559  1.00  0.00     0.196 C
HETATM   26  N4  UNL     1      15.254  10.045  11.658  1.00  0.00    -0.067 NA
HETATM   27  N5  UNL     1      17.367   9.249  12.688  1.00  0.00    -0.067 NA
ATOM     28  H3  UNL     1      14.263   8.342  13.157  1.00  0.00     0.161 HD
ENDBRANCH  23  24
ENDBRANCH  22  23
ENDBRANCH  21  22
ENDBRANCH  20  21
ENDBRANCH   8  20
ENDBRANCH   1   8
BRANCH   7  29
HETATM   29  C19 UNL     1      15.978   5.079  18.802  1.00  0.00     0.314 C
HETATM   30  O2  UNL     1      16.774   5.772  18.122  1.00  0.00    -0.255 OA
HETATM   31  N7  UNL     1      16.230   3.783  19.004  1.00  0.00    -0.378 NA
BRANCH  31  32
HETATM   32  C20 UNL     1      16.640   2.764  19.485  1.00  0.00     0.066 C
BRANCH  32  33
HETATM   33  C21 UNL     1      17.935   2.231  18.891  1.00  0.00     0.068 C
BRANCH  33  34
HETATM   34  C22 UNL     1      17.661   1.439  17.676  1.00  0.00     0.008 C
BRANCH  34  35
HETATM   35  C23 UNL     1      17.639   2.155  16.378  1.00  0.00     0.027 C
BRANCH  35  36
HETATM   36  C24 UNL     1      16.341   1.827  15.630  1.00  0.00     0.229 C
BRANCH  36  37
HETATM   37  N8  UNL     1      15.348   2.778  16.073  1.00  0.00    -0.079 N
ATOM     38  H83 UNL     1      14.511   2.336  16.452  1.00  0.00     0.274 HD
ATOM     39  H82 UNL     1      15.623   3.281  16.918  1.00  0.00     0.274 HD
ATOM     40  H81 UNL     1      15.154   3.394  15.284  1.00  0.00     0.274 HD
ENDBRANCH  36  37
ENDBRANCH  35  36
ENDBRANCH  34  35
ENDBRANCH  33  34
ENDBRANCH  32  33
BRANCH  32  41
HETATM   41  C25 UNL     1      15.994   1.945  20.565  1.00  0.00     0.077 C
BRANCH  41  42
HETATM   42  C26 UNL     1      14.566   1.607  20.312  1.00  0.00     0.106 C
BRANCH  42  43
HETATM   43  C27 UNL     1      14.497   0.682  19.125  1.00  0.00     0.231 C
HETATM   44  N9  UNL     1      15.094  -0.597  19.233  1.00  0.00    -0.062 NA
HETATM   45  O3  UNL     1      13.938   0.993  18.061  1.00  0.00    -0.277 OA
ENDBRANCH  42  43
ENDBRANCH  41  42
ENDBRANCH  32  41
ENDBRANCH  31  32
ENDBRANCH   7  29
TORSDOF 20
ENDMDL