MODEL 2
REMARK VINA RESULT: -8.295432280      3.717      8.831
REMARK  18 active torsions:
REMARK  status: ('A' for Active; 'I' for Inactive)
REMARK    1  A    between atoms: N1_4  and  C4_5
REMARK    2  A    between atoms: C4_5  and  C5_6
REMARK    3  A    between atoms: C5_6  and  C6_7
REMARK    4  A    between atoms: C6_7  and  C7_8
REMARK    5  A    between atoms: C7_8  and  C8_9
REMARK    6  A    between atoms: C8_9  and  C9_10
REMARK    7  A    between atoms: C9_10  and  N2_11
REMARK    8  A    between atoms: C16_18  and  C17_19
REMARK       I    between atoms: C17_19  and  N3_21
REMARK    9  A    between atoms: N3_21  and  C18_22
REMARK   10  A    between atoms: N3_21  and  C20_26
REMARK   11  A    between atoms: C18_22  and  C19_23
REMARK   12  A    between atoms: C20_26  and  C21_27
REMARK       I    between atoms: C21_27  and  N4_29
REMARK   13  A    between atoms: N4_29  and  C22_30
REMARK   14  A    between atoms: C22_30  and  C23_31
REMARK   15  A    between atoms: C22_30  and  C27_39
REMARK   16  A    between atoms: C23_31  and  C24_32
REMARK   17  A    between atoms: C24_32  and  C25_33
REMARK   18  A    between atoms: C25_33  and  N5_34
ROOT
HETATM    1  C17 UNL     1      16.369   6.789  12.064  1.00  0.00     0.229 C
HETATM    2  O1  UNL     1      15.580   7.093  13.026  1.00  0.00    -0.273 OA
HETATM    3  N3  UNL     1      16.541   7.770  11.031  1.00  0.00    -0.332 N
ENDROOT
BRANCH   3   4
HETATM    4  C18 UNL     1      17.364   7.482   9.890  1.00  0.00     0.239 C
BRANCH   4   5
HETATM    5  C19 UNL     1      16.602   7.657   8.590  1.00  0.00     0.191 C
HETATM    6  O2  UNL     1      15.727   6.824   8.232  1.00  0.00    -0.647 OA
HETATM    7  O3  UNL     1      16.874   8.745   7.808  1.00  0.00    -0.647 OA
ENDBRANCH   4   5
ENDBRANCH   3   4
BRANCH   3   8
HETATM    8  C20 UNL     1      15.802   8.977  11.042  1.00  0.00     0.245 C
BRANCH   8   9
HETATM    9  C21 UNL     1      16.475  10.007  12.057  1.00  0.00     0.305 C
HETATM   10  O4  UNL     1      17.635   9.942  11.996  1.00  0.00    -0.256 OA
HETATM   11  N4  UNL     1      15.456  10.653  12.688  1.00  0.00    -0.397 NA
BRANCH  11  12
HETATM   12  C22 UNL     1      14.419  11.320  13.337  1.00  0.00     0.267 C
BRANCH  12  13
HETATM   13  C23 UNL     1      13.848  10.353  14.384  1.00  0.00     0.052 C
BRANCH  13  14
HETATM   14  C24 UNL     1      13.173  10.930  15.522  1.00  0.00     0.023 C
BRANCH  14  15
HETATM   15  C25 UNL     1      13.357  10.220  16.866  1.00  0.00     0.122 C
BRANCH  15  16
HETATM   16  N5  UNL     1      12.335  10.780  17.709  1.00  0.00    -0.367 N
HETATM   17  C26 UNL     1      11.885  10.500  18.829  1.00  0.00     0.196 C
HETATM   18  N6  UNL     1      12.300   9.461  19.640  1.00  0.00    -0.067 NA
HETATM   19  N7  UNL     1      10.834  11.341  19.361  1.00  0.00    -0.067 NA
ATOM     20  H5  UNL     1      11.879  11.592  17.291  1.00  0.00     0.161 HD
ENDBRANCH  15  16
ENDBRANCH  14  15
ENDBRANCH  13  14
ENDBRANCH  12  13
BRANCH  12  21
HETATM   21  C27 UNL     1      13.378  11.787  12.358  1.00  0.00     0.210 C
HETATM   22  O5  UNL     1      12.753  12.825  12.540  1.00  0.00    -0.646 OA
HETATM   23  O6  UNL     1      13.116  11.048  11.226  1.00  0.00    -0.646 OA
ENDBRANCH  12  21
ENDBRANCH  11  12
ENDBRANCH   8   9
ENDBRANCH   3   8
BRANCH   1  24
HETATM   24  C16 UNL     1      17.007   5.497  12.131  1.00  0.00     0.113 C
HETATM   25  C2  UNL     1      16.078   4.394  11.700  1.00  0.00    -0.039 C
HETATM   26  C1  UNL     1      15.992   4.062  10.465  1.00  0.00     0.021 C
HETATM   27  C3  UNL     1      15.324   3.650  12.796  1.00  0.00     0.092 C
HETATM   28  N1  UNL     1      16.321   2.940  13.439  1.00  0.00    -0.389 N
HETATM   29  C14 UNL     1      17.606   3.553  13.451  1.00  0.00     0.123 C
HETATM   30  C15 UNL     1      17.432   5.054  13.567  1.00  0.00     0.039 C
BRANCH  28  31
HETATM   31  C4  UNL     1      16.063   1.945  14.411  1.00  0.00     0.122 C
BRANCH  31  32
HETATM   32  C5  UNL     1      15.591   2.640  15.714  1.00  0.00     0.020 C
BRANCH  32  33
HETATM   33  C6  UNL     1      15.949   1.742  16.862  1.00  0.00     0.002 C
BRANCH  33  34
HETATM   34  C7  UNL     1      15.044   0.513  16.960  1.00  0.00     0.002 C
BRANCH  34  35
HETATM   35  C8  UNL     1      14.557   0.402  18.388  1.00  0.00     0.030 C
BRANCH  35  36
HETATM   36  C9  UNL     1      13.835   1.515  19.000  1.00  0.00     0.272 C
BRANCH  36  37
HETATM   37  N2  UNL     1      13.935   1.749  20.386  1.00  0.00     0.088 N
HETATM   38  C10 UNL     1      15.412   1.784  20.699  1.00  0.00     0.272 C
HETATM   39  C11 UNL     1      15.788   3.146  21.039  1.00  0.00     0.032 C
HETATM   40  C12 UNL     1      14.505   3.802  21.466  1.00  0.00     0.032 C
HETATM   41  C13 UNL     1      13.411   2.860  21.033  1.00  0.00     0.272 C
ENDBRANCH  36  37
ENDBRANCH  35  36
ENDBRANCH  34  35
ENDBRANCH  33  34
ENDBRANCH  32  33
ENDBRANCH  31  32
ENDBRANCH  28  31
ENDBRANCH   1  24
TORSDOF 18
ENDMDL