MODEL 4
REMARK VINA RESULT: -8.436483428      2.682      7.404
REMARK  22 active torsions:
REMARK  status: ('A' for Active; 'I' for Inactive)
REMARK    1  A    between atoms: C2_2  and  C3_3
REMARK    2  A    between atoms: C3_3  and  C4_4
REMARK    3  A    between atoms: C4_4  and  C5_5
REMARK    4  A    between atoms: C5_5  and  C6_6
REMARK    5  A    between atoms: C8_8  and  N1_9
REMARK    6  A    between atoms: N1_9  and  C9_11
REMARK    7  A    between atoms: C9_11  and  C10_12
REMARK    8  A    between atoms: C11_15  and  N3_16
REMARK    9  A    between atoms: N3_16  and  C12_18
REMARK   10  A    between atoms: C12_18  and  C13_19
REMARK   11  A    between atoms: C13_19  and  C14_20
REMARK   12  A    between atoms: C14_20  and  C15_21
REMARK   13  A    between atoms: C15_21  and  C16_22
REMARK   14  A    between atoms: C16_22  and  C17_23
REMARK   15  A    between atoms: C17_23  and  N4_24
REMARK   16  A    between atoms: N4_24  and  S1_26
REMARK   17  A    between atoms: S1_26  and  N5_27
REMARK   18  A    between atoms: C18_34  and  N7_35
REMARK   19  A    between atoms: N7_35  and  C19_37
REMARK   20  A    between atoms: C19_37  and  C20_38
REMARK   21  A    between atoms: C20_38  and  C21_39
REMARK   22  A    between atoms: C21_39  and  N8_40
ROOT
HETATM    1  C6  UNL     1      13.803   9.243  16.409  1.00  0.00     0.029 C
HETATM    2  C7  UNL     1      13.882   9.505  15.048  1.00  0.00     0.058 C
HETATM    3  C8  UNL     1      14.735   8.985  14.095  1.00  0.00     0.075 C
HETATM    4  C11 UNL     1      15.308   7.721  14.128  1.00  0.00     0.143 C
HETATM    5  N6  UNL     1      15.594   7.005  15.264  1.00  0.00    -0.175 N
ATOM      6  H6  UNL     1      16.349   6.323  15.191  1.00  0.00     0.186 HD
HETATM    7  C18 UNL     1      14.979   7.104  16.489  1.00  0.00     0.679 C
HETATM    8  N9  UNL     1      14.384   8.175  17.032  1.00  0.00    -0.196 N
ATOM      9  H9  UNL     1      14.360   8.195  18.052  1.00  0.00     0.184 HD
ENDROOT
BRANCH   4  10
HETATM   10  N3  UNL     1      15.613   7.144  13.051  1.00  0.00    -0.374 N
ATOM     11  H3  UNL     1      15.834   7.776  12.282  1.00  0.00     0.161 HD
BRANCH  10  12
HETATM   12  C12 UNL     1      15.702   5.786  12.725  1.00  0.00     0.121 C
BRANCH  12  13
HETATM   13  C13 UNL     1      16.952   5.565  11.839  1.00  0.00     0.020 C
BRANCH  13  14
HETATM   14  C14 UNL     1      16.462   5.079  10.503  1.00  0.00     0.002 C
BRANCH  14  15
HETATM   15  C15 UNL     1      17.085   5.750   9.325  1.00  0.00     0.002 C
BRANCH  15  16
HETATM   16  C16 UNL     1      16.087   6.596   8.592  1.00  0.00     0.020 C
BRANCH  16  17
HETATM   17  C17 UNL     1      16.413   8.044   8.626  1.00  0.00     0.133 C
BRANCH  17  18
HETATM   18  N4  UNL     1      16.198   8.592   9.961  1.00  0.00    -0.303 N
ATOM     19  H4  UNL     1      15.332   8.468  10.486  1.00  0.00     0.173 HD
BRANCH  18  20
HETATM   20  S1  UNL     1      17.540   9.460  10.554  1.00  0.00     0.312 S
HETATM   21  O2  UNL     1      18.765   9.063   9.815  1.00  0.00    -0.183 OA
HETATM   22  O3  UNL     1      17.769   9.257  12.016  1.00  0.00    -0.183 OA
BRANCH  20  23
HETATM   23  N5  UNL     1      17.250  11.146  10.301  1.00  0.00    -0.312 N
ATOM     24  H52 UNL     1      17.107  11.587   9.392  1.00  0.00     0.170 HD
ATOM     25  H51 UNL     1      17.247  11.610  11.210  1.00  0.00     0.170 HD
ENDBRANCH  20  23
ENDBRANCH  18  20
ENDBRANCH  17  18
ENDBRANCH  16  17
ENDBRANCH  15  16
ENDBRANCH  14  15
ENDBRANCH  13  14
ENDBRANCH  12  13
ENDBRANCH  10  12
ENDBRANCH   4  10
BRANCH   3  26
HETATM   26  N1  UNL     1      15.032   9.741  13.110  1.00  0.00    -0.378 N
ATOM     27  H1  UNL     1      15.738   9.414  12.450  1.00  0.00     0.160 HD
BRANCH  26  28
HETATM   28  C9  UNL     1      14.432  11.024  12.875  1.00  0.00     0.219 C
BRANCH  28  29
HETATM   29  C10 UNL     1      13.813  11.180  11.549  1.00  0.00     0.248 C
HETATM   30  N2  UNL     1      12.954  12.266  11.220  1.00  0.00    -0.061 NA
HETATM   31  O1  UNL     1      14.035  10.337  10.660  1.00  0.00    -0.275 OA
ENDBRANCH  28  29
ENDBRANCH  26  28
ENDBRANCH   3  26
BRANCH   7  32
HETATM   32  N7  UNL     1      14.980   6.047  17.191  1.00  0.00    -0.226 N
ATOM     33  H7  UNL     1      14.096   5.540  17.236  1.00  0.00     0.177 HD
BRANCH  32  34
HETATM   34  C19 UNL     1      16.054   5.484  17.921  1.00  0.00     0.139 C
BRANCH  34  35
HETATM   35  C20 UNL     1      16.140   3.980  17.760  1.00  0.00     0.040 C
BRANCH  35  36
HETATM   36  C21 UNL     1      16.065   3.223  19.037  1.00  0.00     0.127 C
BRANCH  36  37
HETATM   37  N8  UNL     1      14.764   2.903  19.517  1.00  0.00    -0.352 N
HETATM   38  C22 UNL     1      14.036   3.797  20.438  1.00  0.00     0.126 C
HETATM   39  C23 UNL     1      13.399   2.726  21.339  1.00  0.00     0.029 C
HETATM   40  C24 UNL     1      12.824   1.806  20.254  1.00  0.00     0.104 C
HETATM   41  C25 UNL     1      13.931   1.775  19.277  1.00  0.00     0.219 C
HETATM   42  O4  UNL     1      14.097   0.907  18.397  1.00  0.00    -0.273 OA
ENDBRANCH  36  37
ENDBRANCH  35  36
ENDBRANCH  34  35
ENDBRANCH  32  34
ENDBRANCH   7  32
BRANCH   1  43
HETATM   43  C5  UNL     1      13.037  10.202  17.238  1.00  0.00     0.057 C
BRANCH  43  44
HETATM   44  C4  UNL     1      12.764  11.500  16.552  1.00  0.00     0.006 C
BRANCH  44  45
HETATM   45  C3  UNL     1      13.509  12.617  17.216  1.00  0.00     0.000 C
BRANCH  45  46
HETATM   46  C2  UNL     1      14.332  12.173  18.387  1.00  0.00    -0.005 C
HETATM   47  C1  UNL     1      15.047  13.281  19.076  1.00  0.00     0.005 C
ENDBRANCH  45  46
ENDBRANCH  44  45
ENDBRANCH  43  44
ENDBRANCH   1  43
TORSDOF 22
ENDMDL