MODEL 2
REMARK VINA RESULT: -7.629677362      1.554      1.803
REMARK  19 active torsions:
REMARK  status: ('A' for Active; 'I' for Inactive)
REMARK    1  A    between atoms: C2_2  and  C3_3
REMARK    2  A    between atoms: N1_5  and  C5_6
REMARK    3  A    between atoms: C5_6  and  C6_7
REMARK       I    between atoms: N3_14  and  C10_15
REMARK    4  A    between atoms: C10_15  and  C11_17
REMARK    5  A    between atoms: C11_17  and  C12_18
REMARK    6  A    between atoms: C11_17  and  N7_26
REMARK    7  A    between atoms: C12_18  and  C13_19
REMARK    8  A    between atoms: C13_19  and  C14_20
REMARK    9  A    between atoms: C14_20  and  N4_21
REMARK   10  A    between atoms: N7_26  and  S1_28
REMARK   11  A    between atoms: S1_28  and  C16_31
REMARK   12  A    between atoms: C16_31  and  C17_32
REMARK   13  A    between atoms: C17_32  and  C18_33
REMARK   14  A    between atoms: C18_33  and  C19_34
REMARK   15  A    between atoms: C19_34  and  C20_35
REMARK   16  A    between atoms: C20_35  and  C21_36
REMARK   17  A    between atoms: C21_36  and  C22_37
REMARK   18  A    between atoms: C24_39  and  C25_40
REMARK   19  A    between atoms: C25_40  and  O5_41
ROOT
HETATM    1  C11 UNL     1      15.852   6.461  15.674  1.00  0.00     0.184 C
ENDROOT
BRANCH   1   2
HETATM    2  C10 UNL     1      16.541   5.165  15.479  1.00  0.00     0.244 C
HETATM    3  N3  UNL     1      17.906   4.905  15.859  1.00  0.00    -0.334 N
HETATM    4  C6  UNL     1      18.450   3.598  15.653  1.00  0.00     0.207 C
HETATM    5  C9  UNL     1      18.735   5.935  16.409  1.00  0.00     0.146 C
HETATM    6  C7  UNL     1      19.941   3.544  15.897  1.00  0.00     0.242 C
HETATM    7  O1  UNL     1      20.437   2.416  16.069  1.00  0.00    -0.271 OA
HETATM    8  N2  UNL     1      20.719   4.710  15.929  1.00  0.00    -0.358 N
HETATM    9  C8  UNL     1      20.042   5.984  15.620  1.00  0.00     0.142 C
ATOM     10  H2  UNL     1      21.713   4.678  16.156  1.00  0.00     0.162 HD
HETATM   11  O2  UNL     1      15.803   4.278  14.945  1.00  0.00    -0.271 OA
BRANCH   4  12
HETATM   12  C5  UNL     1      17.776   2.429  16.291  1.00  0.00     0.308 C
BRANCH  12  13
HETATM   13  N1  UNL     1      17.202   2.751  17.531  1.00  0.00     0.099 N
HETATM   14  C4  UNL     1      16.020   2.119  18.000  1.00  0.00     0.284 C
HETATM   15  C3  UNL     1      16.606   2.304  19.424  1.00  0.00     0.071 C
HETATM   16  C24 UNL     1      17.936   2.520  18.750  1.00  0.00     0.255 C
BRANCH  15  17
HETATM   17  C2  UNL     1      15.984   3.470  20.040  1.00  0.00    -0.028 C
HETATM   18  C1  UNL     1      15.658   3.554  21.310  1.00  0.00     0.007 C
ENDBRANCH  15  17
BRANCH  16  19
HETATM   19  C25 UNL     1      18.761   1.255  18.826  1.00  0.00     0.200 C
BRANCH  19  20
HETATM   20  O5  UNL     1      20.101   1.573  19.009  1.00  0.00    -0.399 OA
ATOM     21  H5  UNL     1      20.178   2.434  19.403  1.00  0.00     0.209 HD
ENDBRANCH  19  20
ENDBRANCH  16  19
ENDBRANCH  12  13
ENDBRANCH   4  12
ENDBRANCH   1   2
BRANCH   1  22
HETATM   22  C12 UNL     1      15.257   7.021  14.441  1.00  0.00     0.037 C
BRANCH  22  23
HETATM   23  C13 UNL     1      15.108   8.441  14.153  1.00  0.00     0.022 C
BRANCH  23  24
HETATM   24  C14 UNL     1      15.651   8.978  12.861  1.00  0.00     0.122 C
BRANCH  24  25
HETATM   25  N4  UNL     1      14.774   9.954  12.265  1.00  0.00    -0.367 N
HETATM   26  C15 UNL     1      14.622  10.348  11.100  1.00  0.00     0.196 C
HETATM   27  N5  UNL     1      15.378   9.848  10.011  1.00  0.00    -0.067 NA
HETATM   28  N6  UNL     1      13.650  11.359  10.767  1.00  0.00    -0.067 NA
ATOM     29  H4  UNL     1      14.156  10.411  12.935  1.00  0.00     0.161 HD
ENDBRANCH  24  25
ENDBRANCH  23  24
ENDBRANCH  22  23
ENDBRANCH   1  22
BRANCH   1  30
HETATM   30  N7  UNL     1      14.647   6.113  16.544  1.00  0.00    -0.306 N
ATOM     31  H7  UNL     1      13.912   5.460  16.275  1.00  0.00     0.173 HD
BRANCH  30  32
HETATM   32  S1  UNL     1      14.690   6.951  18.014  1.00  0.00     0.227 S
HETATM   33  O3  UNL     1      16.154   6.979  18.476  1.00  0.00    -0.206 OA
HETATM   34  O4  UNL     1      13.979   6.167  19.096  1.00  0.00    -0.206 OA
BRANCH  32  35
HETATM   35  C16 UNL     1      14.150   8.611  17.988  1.00  0.00     0.163 C
BRANCH  35  36
HETATM   36  C17 UNL     1      13.072   8.975  18.943  1.00  0.00     0.017 C
BRANCH  36  37
HETATM   37  C18 UNL     1      12.897  10.459  19.170  1.00  0.00     0.001 C
BRANCH  37  38
HETATM   38  C19 UNL     1      11.575  10.998  18.746  1.00  0.00     0.000 C
BRANCH  38  39
HETATM   39  C20 UNL     1      11.596  11.774  17.453  1.00  0.00     0.000 C
BRANCH  39  40
HETATM   40  C21 UNL     1      12.901  12.471  17.207  1.00  0.00    -0.000 C
BRANCH  40  41
HETATM   41  C22 UNL     1      13.160  12.671  15.725  1.00  0.00    -0.005 C
HETATM   42  C23 UNL     1      12.824  11.395  14.989  1.00  0.00     0.005 C
ENDBRANCH  40  41
ENDBRANCH  39  40
ENDBRANCH  38  39
ENDBRANCH  37  38
ENDBRANCH  36  37
ENDBRANCH  35  36
ENDBRANCH  32  35
ENDBRANCH  30  32
ENDBRANCH   1  30
TORSDOF 19
ENDMDL