MODEL 2
REMARK VINA RESULT: -8.433629390      2.863      8.259
REMARK  21 active torsions:
REMARK  status: ('A' for Active; 'I' for Inactive)
REMARK    1  A    between atoms: C2_2  and  C3_3
REMARK    2  A    between atoms: C3_3  and  C5_5
REMARK    3  A    between atoms: C3_3  and  C15_16
REMARK    4  A    between atoms: C5_5  and  C6_6
REMARK    5  A    between atoms: C6_6  and  C7_7
REMARK    6  A    between atoms: C7_7  and  C8_8
REMARK    7  A    between atoms: C8_8  and  C9_9
REMARK    8  A    between atoms: C9_9  and  C10_10
REMARK    9  A    between atoms: C10_10  and  C11_11
REMARK   10  A    between atoms: C11_11  and  C12_12
REMARK   11  A    between atoms: C12_12  and  N1_13
REMARK   12  A    between atoms: C15_16  and  C16_18
REMARK   13  A    between atoms: C16_18  and  C17_19
REMARK   14  A    between atoms: N2_20  and  C18_22
REMARK   15  A    between atoms: C19_25  and  N4_26
REMARK   16  A    between atoms: N4_26  and  C20_28
REMARK   17  A    between atoms: C20_28  and  C21_29
REMARK   18  A    between atoms: C21_29  and  C22_30
REMARK   19  A    between atoms: C22_30  and  C23_31
REMARK   20  A    between atoms: C23_31  and  N5_32
REMARK   21  A    between atoms: C23_31  and  C24_36
ROOT
HETATM    1  C18 UNL     1      15.095   6.061  15.581  1.00  0.00     0.131 C
HETATM    2  N3  UNL     1      14.650   7.363  15.631  1.00  0.00    -0.176 N
ATOM      3  H3  UNL     1      14.330   7.686  16.544  1.00  0.00     0.186 HD
HETATM    4  C19 UNL     1      14.581   8.269  14.632  1.00  0.00     0.682 C
HETATM    5  N7  UNL     1      15.325   8.284  13.488  1.00  0.00    -0.155 N
ATOM      6  H7  UNL     1      15.644   9.192  13.151  1.00  0.00     0.187 HD
HETATM    7  C25 UNL     1      15.679   7.191  12.759  1.00  0.00     0.270 C
HETATM    8  O3  UNL     1      16.174   7.410  11.647  1.00  0.00    -0.267 OA
HETATM    9  C26 UNL     1      15.538   5.855  13.144  1.00  0.00     0.043 A
HETATM   10  C27 UNL     1      15.278   5.347  14.393  1.00  0.00     0.021 A
HETATM   11  C28 UNL     1      15.208   4.042  14.368  1.00  0.00    -0.007 A
HETATM   12  C29 UNL     1      15.446   3.575  12.971  1.00  0.00     0.056 A
HETATM   13  C30 UNL     1      15.644   4.855  12.264  1.00  0.00    -0.005 A
ENDROOT
BRANCH   1  14
HETATM   14  N2  UNL     1      15.312   5.571  16.672  1.00  0.00    -0.354 N
HETATM   15  C17 UNL     1      15.632   5.565  17.985  1.00  0.00     0.070 C
ATOM     16  H2  UNL     1      15.168   4.579  16.488  1.00  0.00     0.166 HD
BRANCH  15  17
HETATM   17  C16 UNL     1      14.701   6.234  18.980  1.00  0.00     0.123 C
BRANCH  17  18
HETATM   18  C15 UNL     1      15.220   6.146  20.369  1.00  0.00     0.139 C
HETATM   19  O1  UNL     1      16.030   6.954  20.773  1.00  0.00    -0.297 OA
BRANCH  18  20
HETATM   20  C3  UNL     1      14.757   5.077  21.277  1.00  0.00     0.017 C
HETATM   21  C4  UNL     1      15.813   3.976  21.302  1.00  0.00     0.023 C
BRANCH  20  22
HETATM   22  C2  UNL     1      14.632   5.614  22.670  1.00  0.00     0.012 C
HETATM   23  C1  UNL     1      13.514   6.609  22.820  1.00  0.00     0.006 C
ENDBRANCH  20  22
BRANCH  20  24
HETATM   24  C5  UNL     1      13.465   4.448  20.796  1.00  0.00     0.017 C
BRANCH  24  25
HETATM   25  C6  UNL     1      13.459   2.986  21.187  1.00  0.00     0.001 C
BRANCH  25  26
HETATM   26  C7  UNL     1      13.016   2.119  20.000  1.00  0.00     0.000 C
BRANCH  26  27
HETATM   27  C8  UNL     1      13.991   0.971  19.876  1.00  0.00     0.000 C
BRANCH  27  28
HETATM   28  C9  UNL     1      14.397   0.730  18.457  1.00  0.00     0.000 C
BRANCH  28  29
HETATM   29  C10 UNL     1      14.938   1.971  17.833  1.00  0.00     0.002 C
BRANCH  29  30
HETATM   30  C11 UNL     1      16.360   1.908  17.394  1.00  0.00     0.019 C
BRANCH  30  31
HETATM   31  C12 UNL     1      17.346   2.289  18.468  1.00  0.00     0.116 C
BRANCH  31  32
HETATM   32  N1  UNL     1      18.176   1.220  18.898  1.00  0.00    -0.421 N
HETATM   33  C13 UNL     1      17.804   0.572  20.105  1.00  0.00     0.142 C
HETATM   34  C14 UNL     1      19.577   1.378  18.676  1.00  0.00     0.142 C
ENDBRANCH  31  32
ENDBRANCH  30  31
ENDBRANCH  29  30
ENDBRANCH  28  29
ENDBRANCH  27  28
ENDBRANCH  26  27
ENDBRANCH  25  26
ENDBRANCH  24  25
ENDBRANCH  20  24
ENDBRANCH  18  20
ENDBRANCH  17  18
ENDBRANCH  15  17
ENDBRANCH   1  14
BRANCH   4  35
HETATM   35  N4  UNL     1      13.728   9.184  14.830  1.00  0.00    -0.226 N
ATOM     36  H4  UNL     1      12.953   9.238  14.169  1.00  0.00     0.177 HD
BRANCH  35  37
HETATM   37  C20 UNL     1      13.739  10.141  15.872  1.00  0.00     0.138 C
BRANCH  37  38
HETATM   38  C21 UNL     1      13.330  11.475  15.267  1.00  0.00     0.023 C
BRANCH  38  39
HETATM   39  C22 UNL     1      12.538  11.266  14.024  1.00  0.00     0.043 C
BRANCH  39  40
HETATM   40  C23 UNL     1      13.017  12.170  12.919  1.00  0.00     0.271 C
BRANCH  40  41
HETATM   41  N5  UNL     1      11.855  12.657  12.184  1.00  0.00    -0.067 N
ATOM     42  H53 UNL     1      11.345  11.908  11.718  1.00  0.00     0.275 HD
ATOM     43  H52 UNL     1      11.107  12.974  12.800  1.00  0.00     0.275 HD
ATOM     44  H51 UNL     1      12.162  13.382  11.536  1.00  0.00     0.275 HD
ENDBRANCH  40  41
BRANCH  40  45
HETATM   45  C24 UNL     1      13.861  11.321  12.011  1.00  0.00     0.261 C
HETATM   46  N6  UNL     1      15.187  10.977  12.344  1.00  0.00    -0.060 NA
HETATM   47  O2  UNL     1      13.357  10.920  10.941  1.00  0.00    -0.275 OA
ENDBRANCH  40  45
ENDBRANCH  39  40
ENDBRANCH  38  39
ENDBRANCH  37  38
ENDBRANCH  35  37
ENDBRANCH   4  35
TORSDOF 21
ENDMDL