MODEL 3
REMARK VINA RESULT: -9.315678595      1.761      2.604
REMARK  9 active torsions:
REMARK  status: ('A' for Active; 'I' for Inactive)
REMARK    1  A    between atoms: N1_2  and  N2_3
REMARK    2  A    between atoms: N2_3  and  S1_5
REMARK    3  A    between atoms: S1_5  and  C2_8
REMARK    4  A    between atoms: C5_14  and  C6_15
REMARK       I    between atoms: C6_15  and  N5_17
REMARK    5  A    between atoms: N5_17  and  N6_19
REMARK    6  A    between atoms: C7_21  and  C8_22
REMARK    7  A    between atoms: C9_23  and  O4_24
REMARK    8  A    between atoms: C11_29  and  O7_30
REMARK    9  A    between atoms: C12_32  and  O8_33
ROOT
HETATM    1  C2  UNL     1       7.461 -10.592 -17.790  1.00  0.00     0.169 A
HETATM    2  C3  UNL     1       7.879  -9.276 -17.695  1.00  0.00     0.097 A
HETATM    3  C4  UNL     1       9.116  -9.132 -18.311  1.00  0.00     0.147 A
HETATM    4  N3  UNL     1       9.408 -10.376 -18.763  1.00  0.00    -0.215 N
HETATM    5  N4  UNL     1       8.443 -11.221 -18.458  1.00  0.00    -0.278 N
ATOM      6  H4  UNL     1       8.443 -12.212 -18.696  1.00  0.00     0.188 HD
HETATM    7  C5  UNL     1      10.640 -10.599 -19.465  1.00  0.00     0.215 A
HETATM    8  N7  UNL     1      11.475  -9.628 -19.671  1.00  0.00    -0.265 N
ATOM      9  H7  UNL     1      12.342  -9.817 -20.173  1.00  0.00     0.190 HD
HETATM   10  N8  UNL     1      11.214  -8.307 -19.215  1.00  0.00    -0.239 N
ATOM     11  H8  UNL     1      11.879  -7.553 -19.384  1.00  0.00     0.208 HD
HETATM   12  N9  UNL     1      10.026  -8.072 -18.534  1.00  0.00    -0.269 N
ATOM     13  H9  UNL     1       9.810  -7.134 -18.195  1.00  0.00     0.190 HD
ENDROOT
BRANCH   7  14
HETATM   14  C6  UNL     1      10.938 -11.937 -19.943  1.00  0.00     0.307 C
HETATM   15  O3  UNL     1      11.215 -12.865 -19.147  1.00  0.00    -0.262 OA
HETATM   16  N5  UNL     1      10.917 -12.203 -21.331  1.00  0.00    -0.264 N
ATOM     17  H5  UNL     1      10.690 -11.443 -21.973  1.00  0.00     0.190 HD
BRANCH  16  18
HETATM   18  N6  UNL     1      11.195 -13.470 -21.861  1.00  0.00    -0.308 N
HETATM   19  C7  UNL     1      10.911 -13.686 -23.095  1.00  0.00     0.126 C
ATOM     20  H6  UNL     1      11.611 -14.201 -21.283  1.00  0.00     0.186 HD
BRANCH  19  21
HETATM   21  C8  UNL     1      11.190 -14.985 -23.659  1.00  0.00     0.075 A
HETATM   22  C9  UNL     1      12.481 -15.510 -23.504  1.00  0.00     0.201 A
HETATM   23  O5  UNL     1      12.696 -16.690 -24.029  1.00  0.00    -0.249 OA
HETATM   24  C10 UNL     1      11.805 -17.392 -24.673  1.00  0.00     0.326 A
HETATM   25  O6  UNL     1      12.050 -18.529 -25.166  1.00  0.00    -0.256 OA
HETATM   26  C11 UNL     1      10.520 -16.911 -24.847  1.00  0.00     0.176 A
HETATM   27  C12 UNL     1      10.215 -15.675 -24.322  1.00  0.00     0.121 A
BRANCH  22  28
HETATM   28  O4  UNL     1      13.472 -14.808 -22.828  1.00  0.00    -0.340 OA
ATOM     29  H4  UNL     1      14.226 -15.251 -22.456  1.00  0.00     0.220 HD
ENDBRANCH  22  28
BRANCH  26  30
HETATM   30  O7  UNL     1       9.573 -17.659 -25.532  1.00  0.00    -0.353 OA
ATOM     31  H7  UNL     1       8.795 -17.246 -25.888  1.00  0.00     0.218 HD
ENDBRANCH  26  30
BRANCH  27  32
HETATM   32  O8  UNL     1       8.933 -15.176 -24.488  1.00  0.00    -0.357 OA
ATOM     33  H8  UNL     1       8.474 -15.217 -25.319  1.00  0.00     0.218 HD
ENDBRANCH  27  32
ENDBRANCH  19  21
ENDBRANCH  16  18
ENDBRANCH   7  14
BRANCH   1  34
HETATM   34  S1  UNL     1       5.973 -11.272 -17.171  1.00  0.00     0.290 S
HETATM   35  O1  UNL     1       6.101 -11.568 -15.687  1.00  0.00    -0.198 OA
HETATM   36  O2  UNL     1       5.641 -12.520 -17.934  1.00  0.00    -0.198 OA
BRANCH  34  37
HETATM   37  N2  UNL     1       4.680 -10.146 -17.354  1.00  0.00    -0.226 N
ATOM     38  H2  UNL     1       4.085 -10.040 -18.176  1.00  0.00     0.195 HD
BRANCH  37  39
HETATM   39  N1  UNL     1       4.595  -9.403 -16.170  1.00  0.00    -0.136 NA
HETATM   40  C1  UNL     1       4.652  -8.000 -16.441  1.00  0.00     0.159 C
ENDBRANCH  37  39
ENDBRANCH  34  37
ENDBRANCH   1  34
TORSDOF 9
ENDMDL