MODEL 2
REMARK VINA RESULT: -7.030288955      3.502      7.608
REMARK  11 active torsions:
REMARK  status: ('A' for Active; 'I' for Inactive)
REMARK    1  A    between atoms: N1_1  and  C1_4
REMARK    2  A    between atoms: C2_10  and  N4_11
REMARK    3  A    between atoms: N4_11  and  C3_13
REMARK    4  A    between atoms: C4_14  and  N5_15
REMARK    5  A    between atoms: N5_15  and  C5_17
REMARK    6  A    between atoms: C5_17  and  C6_18
REMARK    7  A    between atoms: C6_18  and  O2_19
REMARK    8  A    between atoms: O2_19  and  C7_20
REMARK    9  A    between atoms: C9_27  and  C10_28
REMARK   10  A    between atoms: C11_32  and  C12_33
REMARK   11  A    between atoms: N11_38  and  N12_39
ROOT
HETATM    1  C3  UNL     1       6.117 -10.160 -17.789  1.00  0.00     0.173 A
HETATM    2  C4  UNL     1       6.039 -11.514 -18.042  1.00  0.00     0.149 A
HETATM    3  N7  UNL     1       7.108 -12.169 -18.572  1.00  0.00    -0.326 N
ATOM      4  H7  UNL     1       7.037 -13.171 -18.752  1.00  0.00     0.168 HD
HETATM    5  C8  UNL     1       8.246 -11.536 -18.863  1.00  0.00     0.149 A
HETATM    6  N8  UNL     1       9.323 -12.262 -19.411  1.00  0.00    -0.080 NA
HETATM    7  C9  UNL     1       8.366 -10.177 -18.627  1.00  0.00     0.129 A
HETATM    8  N11 UNL     1       7.315  -9.556 -18.107  1.00  0.00    -0.237 N
ENDROOT
BRANCH   1   9
HETATM    9  N4  UNL     1       5.197  -9.424 -17.297  1.00  0.00    -0.320 N
ATOM     10  H4  UNL     1       4.646  -8.867 -17.951  1.00  0.00     0.169 HD
BRANCH   9  11
HETATM   11  C2  UNL     1       4.881  -9.316 -15.952  1.00  0.00     0.175 A
HETATM   12  C1  UNL     1       3.741  -9.700 -15.261  1.00  0.00     0.167 A
HETATM   13  N2  UNL     1       3.914  -9.354 -13.981  1.00  0.00    -0.222 N
HETATM   14  O1  UNL     1       5.066  -8.802 -13.883  1.00  0.00    -0.153 OA
ATOM     15  H2  UNL     1       3.250  -9.503 -13.222  1.00  0.00     0.198 HD
HETATM   16  N3  UNL     1       5.683  -8.747 -14.998  1.00  0.00    -0.222 N
ATOM     17  H3  UNL     1       6.610  -8.349 -15.152  1.00  0.00     0.198 HD
BRANCH  12  18
HETATM   18  N1  UNL     1       2.715 -10.283 -15.801  1.00  0.00    -0.381 N
ATOM     19  H12 UNL     1       1.748  -9.984 -15.677  1.00  0.00     0.157 HD
ATOM     20  H11 UNL     1       2.705 -11.102 -16.410  1.00  0.00     0.157 HD
ENDBRANCH  12  18
ENDBRANCH   9  11
ENDBRANCH   1   9
BRANCH   2  21
HETATM   21  N5  UNL     1       4.958 -12.114 -17.774  1.00  0.00    -0.371 N
ATOM     22  H5  UNL     1       4.084 -11.734 -18.136  1.00  0.00     0.161 HD
BRANCH  21  23
HETATM   23  C5  UNL     1       4.914 -13.305 -16.984  1.00  0.00     0.148 C
BRANCH  23  24
HETATM   24  C6  UNL     1       5.051 -13.004 -15.517  1.00  0.00     0.199 C
BRANCH  24  25
HETATM   25  O2  UNL     1       5.435 -14.176 -14.791  1.00  0.00    -0.305 OA
BRANCH  25  26
HETATM   26  C7  UNL     1       4.540 -14.758 -13.884  1.00  0.00     0.372 C
HETATM   27  N6  UNL     1       4.725 -14.756 -12.481  1.00  0.00    -0.032 NA
HETATM   28  O3  UNL     1       3.518 -15.309 -14.392  1.00  0.00    -0.242 OA
ENDBRANCH  25  26
ENDBRANCH  24  25
ENDBRANCH  23  24
ENDBRANCH  21  23
ENDBRANCH   2  21
BRANCH   8  29
HETATM   29  N12 UNL     1       7.404  -8.182 -17.839  1.00  0.00    -0.336 N
ATOM     30 2H12 UNL     1       7.504  -7.873 -16.872  1.00  0.00     0.177 HD
ATOM     31 1H12 UNL     1       7.352  -7.562 -18.648  1.00  0.00     0.177 HD
ENDBRANCH   8  29
BRANCH   7  32
HETATM   32  C10 UNL     1       9.624  -9.485 -18.947  1.00  0.00     0.114 A
HETATM   33  N9  UNL     1      10.384  -9.596 -20.050  1.00  0.00    -0.256 N
HETATM   34  O4  UNL     1      11.411  -8.798 -19.958  1.00  0.00    -0.228 OA
ATOM     35  H9  UNL     1      10.187 -10.212 -20.839  1.00  0.00     0.195 HD
HETATM   36  C11 UNL     1      11.411  -8.133 -18.850  1.00  0.00     0.201 A
HETATM   37  C13 UNL     1      10.262  -8.554 -18.164  1.00  0.00     0.120 A
HETATM   38  N10 UNL     1       9.882  -8.057 -16.903  1.00  0.00    -0.097 NA
BRANCH  36  39
HETATM   39  C12 UNL     1      12.364  -7.146 -18.355  1.00  0.00     0.238 C
HETATM   40  O5  UNL     1      13.565  -7.168 -18.700  1.00  0.00    -0.642 OA
HETATM   41  O6  UNL     1      11.949  -6.156 -17.481  1.00  0.00    -0.642 OA
ENDBRANCH  36  39
ENDBRANCH   7  32
TORSDOF 11
ENDMDL