MODEL 5
REMARK VINA RESULT: -8.463238821      1.341      2.197
REMARK  13 active torsions:
REMARK  status: ('A' for Active; 'I' for Inactive)
REMARK    1  A    between atoms: O1_2  and  N1_3
REMARK    2  A    between atoms: N1_3  and  N2_5
REMARK    3  A    between atoms: C2_6  and  N3_7
REMARK    4  A    between atoms: N3_7  and  C3_9
REMARK    5  A    between atoms: C3_9  and  O2_10
REMARK    6  A    between atoms: C3_9  and  C4_12
REMARK    7  A    between atoms: C6_20  and  O5_21
REMARK    8  A    between atoms: C8_25  and  O7_26
REMARK    9  A    between atoms: C9_28  and  C10_29
REMARK   10  A    between atoms: C10_29  and  O9_37
REMARK   11  A    between atoms: N6_30  and  N7_32
REMARK       I    between atoms: N7_32  and  C11_34
REMARK   12  A    between atoms: O9_37  and  N8_38
REMARK   13  A    between atoms: N9_40  and  N10_42
ROOT
HETATM    1  N2  UNL     1       8.576 -11.792 -19.278  1.00  0.00    -0.210 N
HETATM    2  C2  UNL     1       7.753 -10.835 -18.703  1.00  0.00     0.169 A
HETATM    3  C6  UNL     1       8.254  -9.606 -18.442  1.00  0.00     0.165 A
HETATM    4  C7  UNL     1       9.605  -9.309 -18.745  1.00  0.00     0.244 A
HETATM    5  O6  UNL     1      10.038  -8.156 -18.485  1.00  0.00    -0.282 OA
HETATM    6  C8  UNL     1      10.412 -10.264 -19.311  1.00  0.00     0.152 A
HETATM    7  C9  UNL     1       9.862 -11.499 -19.566  1.00  0.00     0.152 A
ENDROOT
BRANCH   7   8
HETATM    8  C10 UNL     1      10.698 -12.533 -20.138  1.00  0.00     0.218 C
HETATM    9  N6  UNL     1      11.636 -13.051 -19.427  1.00  0.00    -0.274 N
ATOM     10  H6  UNL     1      11.744 -12.700 -18.476  1.00  0.00     0.189 HD
BRANCH   9  11
HETATM   11  N7  UNL     1      12.509 -14.041 -19.834  1.00  0.00    -0.268 N
HETATM   12  C11 UNL     1      12.101 -15.399 -19.882  1.00  0.00     0.232 C
HETATM   13  C12 UNL     1      13.026 -16.476 -20.316  1.00  0.00     0.119 C
HETATM   14  O8  UNL     1      10.932 -15.711 -19.551  1.00  0.00    -0.272 OA
ATOM     15  H7  UNL     1      13.460 -13.792 -20.104  1.00  0.00     0.190 HD
ENDBRANCH   9  11
BRANCH   8  16
HETATM   16  O9  UNL     1      10.528 -12.984 -21.418  1.00  0.00    -0.199 OA
BRANCH  16  17
HETATM   17  N8  UNL     1      10.952 -12.291 -22.524  1.00  0.00    -0.186 N
HETATM   18  N9  UNL     1      11.712 -12.830 -23.375  1.00  0.00    -0.229 N
ATOM     19  H9  UNL     1      12.000 -12.276 -24.182  1.00  0.00     0.209 HD
ATOM     20  H8  UNL     1      10.648 -11.327 -22.660  1.00  0.00     0.218 HD
BRANCH  18  21
HETATM   21  N10 UNL     1      12.179 -14.134 -23.277  1.00  0.00    -0.329 N
ATOM     22 2H10 UNL     1      12.037 -14.739 -24.085  1.00  0.00     0.178 HD
ATOM     23 1H10 UNL     1      12.647 -14.508 -22.452  1.00  0.00     0.178 HD
ENDBRANCH  18  21
ENDBRANCH  16  17
ENDBRANCH   8  16
ENDBRANCH   7   8
BRANCH   1  24
HETATM   24  N1  UNL     1       8.007 -13.042 -19.531  1.00  0.00    -0.199 N
ATOM     25  H1  UNL     1       8.358 -13.857 -19.026  1.00  0.00     0.216 HD
BRANCH  24  26
HETATM   26  O1  UNL     1       7.012 -13.204 -20.416  1.00  0.00    -0.269 OA
HETATM   27  C1  UNL     1       7.009 -14.484 -20.994  1.00  0.00     0.239 C
ENDBRANCH  24  26
ENDBRANCH   1  24
BRANCH   6  28
HETATM   28  O7  UNL     1      11.695  -9.875 -19.564  1.00  0.00    -0.355 OA
ATOM     29  H7  UNL     1      11.864  -8.944 -19.474  1.00  0.00     0.218 HD
ENDBRANCH   6  28
BRANCH   2  30
HETATM   30  N3  UNL     1       6.408 -11.222 -18.531  1.00  0.00    -0.317 N
ATOM     31  H3  UNL     1       5.990 -11.517 -19.414  1.00  0.00     0.169 HD
BRANCH  30  32
HETATM   32  C3  UNL     1       5.511 -11.308 -17.501  1.00  0.00     0.176 C
BRANCH  32  33
HETATM   33  O2  UNL     1       5.824 -12.136 -16.543  1.00  0.00    -0.344 OA
ATOM     34  H2  UNL     1       5.095 -12.490 -16.047  1.00  0.00     0.219 HD
ENDBRANCH  32  33
BRANCH  32  35
HETATM   35  C4  UNL     1       4.255 -10.627 -17.253  1.00  0.00     0.177 A
HETATM   36  N4  UNL     1       3.997  -9.315 -17.095  1.00  0.00    -0.232 N
HETATM   37  O3  UNL     1       2.738  -9.144 -16.899  1.00  0.00    -0.153 OA
ATOM     38  H4  UNL     1       4.694  -8.571 -17.126  1.00  0.00     0.197 HD
HETATM   39  N5  UNL     1       2.103 -10.268 -16.912  1.00  0.00    -0.204 N
HETATM   40  C5  UNL     1       3.008 -11.231 -17.132  1.00  0.00     0.299 A
ATOM     41  H5  UNL     1       1.100 -10.399 -16.781  1.00  0.00     0.200 HD
HETATM   42  O4  UNL     1       2.739 -12.450 -17.207  1.00  0.00    -0.264 OA
ENDBRANCH  32  35
ENDBRANCH  30  32
ENDBRANCH   2  30
BRANCH   3  43
HETATM   43  O5  UNL     1       7.517  -8.590 -17.905  1.00  0.00    -0.354 OA
ATOM     44  H5  UNL     1       7.396  -7.749 -18.329  1.00  0.00     0.218 HD
ENDBRANCH   3  43
TORSDOF 13
ENDMDL