MODEL 4
REMARK VINA RESULT: -7.763975115      2.987      7.706
REMARK  12 active torsions:
REMARK  status: ('A' for Active; 'I' for Inactive)
REMARK    1  A    between atoms: C2_2  and  O2_4
REMARK    2  A    between atoms: O2_4  and  C3_5
REMARK    3  A    between atoms: C3_5  and  C4_6
REMARK    4  A    between atoms: C4_6  and  C5_7
REMARK    5  A    between atoms: C5_7  and  O3_8
REMARK    6  A    between atoms: O3_8  and  C6_9
REMARK    7  A    between atoms: C6_9  and  C7_11
REMARK    8  A    between atoms: C11_17  and  N2_18
REMARK    9  A    between atoms: N3_20  and  N4_22
REMARK   10  A    between atoms: N5_25  and  O6_26
REMARK   11  A    between atoms: C12_31  and  N7_32
REMARK   12  A    between atoms: C13_39  and  N9_41
ROOT
HETATM    1  N9  UNL     1       7.387 -16.266 -21.247  1.00  0.00    -0.292 N
ATOM      2  H9  UNL     1       7.200 -17.206 -20.898  1.00  0.00     0.174 HD
HETATM    3  C15 UNL     1       6.570 -15.238 -20.832  1.00  0.00     0.179 C
HETATM    4  N10 UNL     1       5.856 -14.378 -20.457  1.00  0.00    -0.172 NA
ENDROOT
BRANCH   1   5
HETATM    5  C13 UNL     1       8.469 -16.078 -22.133  1.00  0.00     0.244 C
HETATM    6  C4  UNL     1       9.669 -15.370 -21.741  1.00  0.00     0.224 C
HETATM    7  N6  UNL     1      10.581 -15.734 -22.894  1.00  0.00    -0.004 N
HETATM    8  C12 UNL     1      10.084 -16.962 -23.406  1.00  0.00     0.581 C
ATOM      9  H62 UNL     1      10.662 -15.000 -23.598  1.00  0.00     0.283 HD
ATOM     10  H61 UNL     1      11.567 -15.767 -22.639  1.00  0.00     0.283 HD
HETATM   11  N8  UNL     1       9.042 -17.409 -22.513  1.00  0.00     0.008 N
ATOM     12  H82 UNL     1       8.385 -18.091 -22.893  1.00  0.00     0.284 HD
ATOM     13  H81 UNL     1       9.337 -18.010 -21.743  1.00  0.00     0.284 HD
HETATM   14  C14 UNL     1       8.006 -15.530 -23.496  1.00  0.00     0.075 C
BRANCH   6  15
HETATM   15  C3  UNL     1      10.420 -15.934 -20.551  1.00  0.00     0.224 C
BRANCH  15  16
HETATM   16  O2  UNL     1       9.631 -16.350 -19.495  1.00  0.00    -0.319 OA
BRANCH  16  17
HETATM   17  C2  UNL     1       9.629 -17.625 -19.003  1.00  0.00     0.254 C
HETATM   18  C1  UNL     1      10.657 -18.132 -18.065  1.00  0.00     0.126 C
HETATM   19  O1  UNL     1       8.702 -18.408 -19.365  1.00  0.00    -0.266 OA
ENDBRANCH  16  17
ENDBRANCH  15  16
ENDBRANCH   6  15
BRANCH   6  20
HETATM   20  C5  UNL     1       9.761 -13.886 -21.729  1.00  0.00     0.225 C
BRANCH  20  21
HETATM   21  O3  UNL     1       9.393 -13.112 -20.693  1.00  0.00    -0.314 OA
BRANCH  21  22
HETATM   22  C6  UNL     1       9.911 -12.409 -19.689  1.00  0.00     0.314 C
HETATM   23  O4  UNL     1      10.963 -12.788 -19.140  1.00  0.00    -0.257 OA
BRANCH  22  24
HETATM   24  C7  UNL     1       9.319 -11.162 -19.144  1.00  0.00     0.168 A
HETATM   25  C8  UNL     1      10.132 -10.060 -19.048  1.00  0.00     0.131 A
HETATM   26  N1  UNL     1      11.506 -10.086 -19.454  1.00  0.00    -0.095 NA
HETATM   27  C9  UNL     1       9.613  -8.890 -18.547  1.00  0.00     0.202 A
HETATM   28  O5  UNL     1      10.335  -7.839 -18.440  1.00  0.00    -0.286 OA
HETATM   29  C10 UNL     1       8.291  -8.872 -18.159  1.00  0.00     0.109 A
HETATM   30  C11 UNL     1       7.490  -9.974 -18.259  1.00  0.00     0.153 A
HETATM   31  N5  UNL     1       8.044 -11.100 -18.757  1.00  0.00    -0.199 N
BRANCH  30  32
HETATM   32  N2  UNL     1       6.120  -9.940 -17.852  1.00  0.00    -0.269 N
HETATM   33  N3  UNL     1       5.678 -10.464 -16.810  1.00  0.00    -0.248 N
ATOM     34  H3  UNL     1       4.677 -10.369 -16.635  1.00  0.00     0.207 HD
ATOM     35  H2  UNL     1       5.457  -9.453 -18.457  1.00  0.00     0.190 HD
BRANCH  33  36
HETATM   36  N4  UNL     1       6.413 -11.162 -15.865  1.00  0.00    -0.331 N
ATOM     37  H42 UNL     1       5.945 -11.966 -15.446  1.00  0.00     0.178 HD
ATOM     38  H41 UNL     1       7.362 -10.948 -15.559  1.00  0.00     0.178 HD
ENDBRANCH  33  36
ENDBRANCH  30  32
BRANCH  31  39
HETATM   39  O6  UNL     1       7.248 -12.233 -18.866  1.00  0.00    -0.281 OA
ATOM     40  H6  UNL     1       6.329 -12.134 -19.086  1.00  0.00     0.245 HD
ENDBRANCH  31  39
ENDBRANCH  22  24
ENDBRANCH  21  22
ENDBRANCH  20  21
ENDBRANCH   6  20
BRANCH   8  41
HETATM   41  N7  UNL     1      11.131 -17.954 -23.443  1.00  0.00    -0.025 N
ATOM     42  H73 UNL     1      11.607 -17.969 -24.345  1.00  0.00     0.278 HD
ATOM     43  H72 UNL     1      11.923 -17.690 -22.857  1.00  0.00     0.278 HD
ATOM     44  H71 UNL     1      10.762 -18.872 -23.193  1.00  0.00     0.278 HD
ENDBRANCH   8  41
ENDBRANCH   1   5
TORSDOF 12
ENDMDL