MODEL 1
REMARK VINA RESULT: -9.602508149      0.000      0.000
REMARK  12 active torsions:
REMARK  status: ('A' for Active; 'I' for Inactive)
REMARK    1  A    between atoms: C3_7  and  O2_8
REMARK    2  A    between atoms: O2_8  and  N2_9
REMARK    3  A    between atoms: N2_9  and  C4_11
REMARK    4  A    between atoms: C4_11  and  C5_16
REMARK    5  A    between atoms: N3_12  and  O3_14
REMARK    6  A    between atoms: C6_20  and  N6_21
REMARK    7  A    between atoms: N8_27  and  C8_29
REMARK    8  A    between atoms: C8_29  and  C9_30
REMARK    9  A    between atoms: C9_30  and  C10_31
REMARK   10  A    between atoms: C11_34  and  O6_35
REMARK   11  A    between atoms: C13_41  and  N10_42
REMARK   12  A    between atoms: N10_42  and  N11_43
ROOT
HETATM    1  C5  UNL     1       8.126  -9.443 -17.340  1.00  0.00     0.213 A
HETATM    2  N4  UNL     1       9.110  -8.734 -17.919  1.00  0.00    -0.253 N
ATOM      3  H4  UNL     1       9.336  -7.757 -17.730  1.00  0.00     0.190 HD
HETATM    4  N5  UNL     1       9.738  -9.527 -18.781  1.00  0.00    -0.058 N
HETATM    5  C6  UNL     1      10.779  -9.343 -19.619  1.00  0.00     0.701 A
HETATM    6  N7  UNL     1      11.241 -10.329 -20.413  1.00  0.00    -0.172 N
ATOM      7  H7  UNL     1      12.030 -10.138 -21.030  1.00  0.00     0.186 HD
HETATM    8  C7  UNL     1      10.684 -11.577 -20.418  1.00  0.00     0.155 A
HETATM    9  N8  UNL     1      11.159 -12.475 -21.204  1.00  0.00    -0.373 N
ATOM     10  H8  UNL     1      11.942 -12.193 -21.793  1.00  0.00     0.161 HD
HETATM   11  C11 UNL     1       9.626 -11.762 -19.564  1.00  0.00     0.165 A
HETATM   12  C12 UNL     1       9.150 -10.733 -18.741  1.00  0.00     0.226 A
HETATM   13  O7  UNL     1       8.180 -10.643 -17.859  1.00  0.00    -0.267 OA
ENDROOT
BRANCH   1  14
HETATM   14  C4  UNL     1       7.192  -8.981 -16.343  1.00  0.00     0.199 C
HETATM   15  N3  UNL     1       6.467  -7.916 -16.497  1.00  0.00    -0.248 N
ATOM     16  H3  UNL     1       5.818  -7.616 -15.770  1.00  0.00     0.196 HD
BRANCH  14  17
HETATM   17  N2  UNL     1       7.019  -9.691 -15.102  1.00  0.00    -0.238 N
ATOM     18  H2  UNL     1       7.472  -9.381 -14.241  1.00  0.00     0.197 HD
BRANCH  17  19
HETATM   19  O2  UNL     1       6.221 -10.798 -15.133  1.00  0.00    -0.220 OA
BRANCH  19  20
HETATM   20  C3  UNL     1       4.951 -10.865 -15.637  1.00  0.00     0.169 C
HETATM   21  C2  UNL     1       3.920 -10.015 -14.979  1.00  0.00     0.263 C
HETATM   22  O1  UNL     1       2.749  -9.912 -15.751  1.00  0.00    -0.329 OA
HETATM   23  C1  UNL     1       2.546 -10.628 -16.920  1.00  0.00     0.153 C
HETATM   24  N1  UNL     1       1.610 -10.320 -17.777  1.00  0.00    -0.381 N
HETATM   25  C13 UNL     1       3.408 -11.776 -17.216  1.00  0.00     0.272 C
ATOM     26  H12 UNL     1       1.011  -9.521 -17.571  1.00  0.00     0.158 HD
ATOM     27  H11 UNL     1       1.461 -10.847 -18.638  1.00  0.00     0.158 HD
HETATM   28  N9  UNL     1       4.713 -11.637 -16.622  1.00  0.00    -0.344 N
ATOM     29  H9  UNL     1       5.484 -12.182 -17.009  1.00  0.00     0.163 HD
BRANCH  25  30
HETATM   30  N10 UNL     1       2.775 -13.002 -16.702  1.00  0.00    -0.114 NA
BRANCH  30  31
HETATM   31  N11 UNL     1       3.864 -13.883 -16.458  1.00  0.00    -0.346 N
ATOM     32 2H11 UNL     1       4.404 -14.401 -17.151  1.00  0.00     0.172 HD
ATOM     33 1H11 UNL     1       3.973 -13.873 -15.444  1.00  0.00     0.172 HD
ENDBRANCH  30  31
ENDBRANCH  25  30
ENDBRANCH  19  20
ENDBRANCH  17  19
ENDBRANCH  14  17
BRANCH  15  34
HETATM   34  O3  UNL     1       6.593  -7.213 -17.647  1.00  0.00    -0.288 OA
ATOM     35  H3  UNL     1       7.362  -6.667 -17.760  1.00  0.00     0.244 HD
ENDBRANCH  15  34
ENDBRANCH   1  14
BRANCH   5  36
HETATM   36  N6  UNL     1      11.301  -8.166 -19.609  1.00  0.00    -0.233 N
ATOM     37  H62 UNL     1      11.176  -7.521 -18.828  1.00  0.00     0.174 HD
ATOM     38  H61 UNL     1      11.849  -7.919 -20.434  1.00  0.00     0.174 HD
ENDBRANCH   5  36
BRANCH  11  39
HETATM   39  O6  UNL     1       9.002 -12.988 -19.502  1.00  0.00    -0.354 OA
ATOM     40  H6  UNL     1       9.253 -13.678 -20.106  1.00  0.00     0.218 HD
ENDBRANCH  11  39
BRANCH   9  41
HETATM   41  C8  UNL     1      10.713 -13.821 -21.344  1.00  0.00     0.132 C
BRANCH  41  42
HETATM   42  C9  UNL     1      10.800 -14.293 -22.789  1.00  0.00     0.132 C
BRANCH  42  43
HETATM   43  C10 UNL     1       9.736 -13.623 -23.566  1.00  0.00     0.174 C
HETATM   44  O4  UNL     1       9.846 -12.446 -23.968  1.00  0.00    -0.648 OA
HETATM   45  O5  UNL     1       8.582 -14.336 -23.852  1.00  0.00    -0.648 OA
ENDBRANCH  42  43
ENDBRANCH  41  42
ENDBRANCH   9  41
TORSDOF 12
ENDMDL