MODEL 4
REMARK VINA RESULT: -7.731040244      1.584      2.543
REMARK  12 active torsions:
REMARK  status: ('A' for Active; 'I' for Inactive)
REMARK    1  A    between atoms: O1_2  and  C2_3
REMARK    2  A    between atoms: C3_4  and  C4_5
REMARK    3  A    between atoms: C6_9  and  O3_10
REMARK    4  A    between atoms: C7_12  and  N2_13
REMARK    5  A    between atoms: N2_13  and  N3_15
REMARK    6  A    between atoms: N4_17  and  C8_19
REMARK    7  A    between atoms: C9_20  and  C10_21
REMARK    8  A    between atoms: C10_21  and  O4_22
REMARK    9  A    between atoms: C10_21  and  O5_24
REMARK   10  A    between atoms: N6_32  and  N7_33
REMARK   11  A    between atoms: C14_36  and  N8_37
REMARK   12  A    between atoms: C15_40  and  O8_41
ROOT
HETATM    1  C8  UNL     1      11.411 -14.737 -22.028  1.00  0.00     0.111 C
HETATM    2  C9  UNL     1      11.683 -15.703 -21.083  1.00  0.00     0.096 C
HETATM    3  C11 UNL     1      11.244 -17.024 -21.127  1.00  0.00     0.264 C
HETATM    4  O6  UNL     1      11.447 -17.704 -20.104  1.00  0.00    -0.267 OA
HETATM    5  N5  UNL     1      10.619 -17.685 -22.134  1.00  0.00    -0.269 N
HETATM    6  C12 UNL     1      10.007 -18.950 -21.794  1.00  0.00     0.164 C
HETATM    7  C13 UNL     1      10.501 -17.299 -23.432  1.00  0.00     0.351 C
HETATM    8  O7  UNL     1      10.178 -18.213 -24.223  1.00  0.00    -0.244 OA
HETATM    9  N6  UNL     1      10.678 -16.080 -23.986  1.00  0.00    -0.193 N
HETATM   10  C14 UNL     1      10.931 -14.941 -23.326  1.00  0.00     0.154 C
ENDROOT
BRANCH   1  11
HETATM   11  N4  UNL     1      11.652 -13.400 -21.617  1.00  0.00    -0.282 N
HETATM   12  N3  UNL     1      10.729 -12.705 -21.148  1.00  0.00    -0.242 N
ATOM     13  H3  UNL     1       9.810 -13.142 -21.077  1.00  0.00     0.208 HD
ATOM     14  H4  UNL     1      12.588 -13.004 -21.707  1.00  0.00     0.188 HD
BRANCH  12  15
HETATM   15  N2  UNL     1      10.834 -11.413 -20.720  1.00  0.00    -0.281 N
ATOM     16  H2  UNL     1      11.521 -10.834 -21.204  1.00  0.00     0.188 HD
BRANCH  15  17
HETATM   17  C7  UNL     1      10.109 -10.784 -19.691  1.00  0.00     0.118 A
HETATM   18  C6  UNL     1      10.454  -9.498 -19.303  1.00  0.00     0.097 A
HETATM   19  C5  UNL     1       9.724  -8.865 -18.273  1.00  0.00     0.058 A
HETATM   20  C3  UNL     1       8.687  -9.526 -17.669  1.00  0.00     0.068 A
HETATM   21  C2  UNL     1       8.340 -10.795 -18.047  1.00  0.00     0.119 A
HETATM   22  C15 UNL     1       9.047 -11.445 -19.067  1.00  0.00     0.131 A
BRANCH  18  23
HETATM   23  O3  UNL     1      11.451  -8.764 -19.826  1.00  0.00    -0.358 OA
ATOM     24  H3  UNL     1      12.314  -8.952 -19.477  1.00  0.00     0.217 HD
ENDBRANCH  18  23
BRANCH  20  25
HETATM   25  C4  UNL     1       7.965  -8.802 -16.614  1.00  0.00     0.267 C
HETATM   26  N1  UNL     1       6.792  -8.063 -16.910  1.00  0.00    -0.057 NA
HETATM   27  O2  UNL     1       8.375  -8.829 -15.439  1.00  0.00    -0.271 OA
ENDBRANCH  20  25
BRANCH  21  28
HETATM   28  O1  UNL     1       7.315 -11.479 -17.466  1.00  0.00    -0.352 OA
HETATM   29  C1  UNL     1       5.973 -11.442 -17.958  1.00  0.00     0.210 C
ENDBRANCH  21  28
BRANCH  22  30
HETATM   30  O8  UNL     1       8.707 -12.708 -19.446  1.00  0.00    -0.356 OA
ATOM     31  H8  UNL     1       8.113 -12.849 -20.173  1.00  0.00     0.218 HD
ENDBRANCH  22  30
ENDBRANCH  15  17
ENDBRANCH  12  15
ENDBRANCH   1  11
BRANCH   2  32
HETATM   32  C10 UNL     1      12.513 -15.328 -19.912  1.00  0.00     0.296 C
BRANCH  32  33
HETATM   33  O4  UNL     1      11.847 -14.400 -19.115  1.00  0.00    -0.367 OA
ATOM     34  H4  UNL     1      11.807 -14.699 -18.214  1.00  0.00     0.213 HD
ENDBRANCH  32  33
BRANCH  32  35
HETATM   35  O5  UNL     1      13.724 -14.746 -20.307  1.00  0.00    -0.367 OA
ATOM     36  H5  UNL     1      14.173 -15.282 -20.951  1.00  0.00     0.213 HD
ENDBRANCH  32  35
ENDBRANCH   2  32
BRANCH  10  37
HETATM   37  N8  UNL     1      10.696 -13.879 -23.978  1.00  0.00    -0.382 N
ATOM     38  H82 UNL     1      11.443 -13.583 -24.605  1.00  0.00     0.157 HD
ATOM     39  H81 UNL     1       9.787 -13.457 -23.792  1.00  0.00     0.157 HD
ENDBRANCH  10  37
BRANCH   9  40
HETATM   40  N7  UNL     1      10.600 -15.955 -25.367  1.00  0.00    -0.333 N
ATOM     41  H72 UNL     1       9.655 -15.964 -25.749  1.00  0.00     0.177 HD
ATOM     42  H71 UNL     1      11.464 -15.864 -25.902  1.00  0.00     0.177 HD
ENDBRANCH   9  40
TORSDOF 12
ENDMDL