MODEL 4
REMARK VINA RESULT: -6.693040096      3.183      5.848
REMARK  12 active torsions:
REMARK  status: ('A' for Active; 'I' for Inactive)
REMARK    1  A    between atoms: C2_3  and  N2_4
REMARK    2  A    between atoms: N3_6  and  N4_8
REMARK    3  A    between atoms: N4_8  and  S1_10
REMARK    4  A    between atoms: S1_10  and  C3_11
REMARK    5  A    between atoms: C4_12  and  C5_13
REMARK    6  A    between atoms: N5_14  and  N6_16
REMARK    7  A    between atoms: C6_19  and  N7_20
REMARK    8  A    between atoms: N7_20  and  N8_22
REMARK    9  A    between atoms: N8_22  and  C7_24
REMARK   10  A    between atoms: C8_28  and  N10_29
REMARK   11  A    between atoms: N10_29  and  O2_31
REMARK   12  A    between atoms: N11_35  and  O4_36
ROOT
HETATM    1  C3  UNL     1      10.778 -17.443 -18.852  1.00  0.00     0.140 C
HETATM    2  C4  UNL     1      11.878 -16.690 -19.183  1.00  0.00     0.064 C
HETATM    3  C6  UNL     1      12.580 -15.908 -18.231  1.00  0.00     0.136 C
HETATM    4  N9  UNL     1      12.701 -16.183 -16.899  1.00  0.00    -0.321 N
ATOM      5  H9  UNL     1      13.078 -15.436 -16.316  1.00  0.00     0.169 HD
HETATM    6  C8  UNL     1      12.376 -17.343 -16.257  1.00  0.00     0.198 C
HETATM    7  C9  UNL     1      11.337 -18.217 -16.596  1.00  0.00     0.318 C
HETATM    8  O3  UNL     1      10.973 -19.004 -15.695  1.00  0.00    -0.261 OA
HETATM    9  N11 UNL     1      10.691 -18.302 -17.778  1.00  0.00    -0.175 N
ENDROOT
BRANCH   1  10
HETATM   10  S1  UNL     1       9.325 -17.212 -19.800  1.00  0.00     0.025 SA
BRANCH  10  11
HETATM   11  N4  UNL     1       9.154 -15.716 -20.618  1.00  0.00    -0.253 N
ATOM     12  H4  UNL     1       9.614 -14.899 -20.215  1.00  0.00     0.197 HD
BRANCH  11  13
HETATM   13  N3  UNL     1       8.412 -15.534 -21.821  1.00  0.00    -0.235 N
HETATM   14  N2  UNL     1       8.963 -15.175 -22.897  1.00  0.00    -0.267 N
ATOM     15  H2  UNL     1       8.366 -15.067 -23.717  1.00  0.00     0.190 HD
ATOM     16  H3  UNL     1       7.405 -15.699 -21.810  1.00  0.00     0.209 HD
BRANCH  14  17
HETATM   17  C2  UNL     1      10.349 -14.910 -23.059  1.00  0.00     0.169 A
HETATM   18  N1  UNL     1      11.224 -15.648 -23.771  1.00  0.00    -0.286 N
HETATM   19  C1  UNL     1      10.935 -16.881 -24.517  1.00  0.00     0.163 C
HETATM   20  C11 UNL     1      12.408 -15.032 -23.659  1.00  0.00     0.329 A
HETATM   21  N13 UNL     1      12.287 -13.935 -22.895  1.00  0.00    -0.293 N
HETATM   22  O5  UNL     1      13.479 -15.436 -24.196  1.00  0.00    -0.246 OA
HETATM   23  C10 UNL     1      10.997 -13.816 -22.492  1.00  0.00     0.166 A
ATOM     24  H13 UNL     1      13.043 -13.292 -22.657  1.00  0.00     0.172 HD
HETATM   25  N12 UNL     1      10.427 -12.810 -21.666  1.00  0.00    -0.078 NA
ENDBRANCH  14  17
ENDBRANCH  11  13
ENDBRANCH  10  11
ENDBRANCH   1  10
BRANCH   2  26
HETATM   26  C5  UNL     1      12.456 -16.780 -20.498  1.00  0.00     0.124 C
HETATM   27  N5  UNL     1      12.995 -17.700 -21.059  1.00  0.00    -0.317 N
ATOM     28  H5  UNL     1      13.264 -17.358 -21.981  1.00  0.00     0.185 HD
BRANCH  27  29
HETATM   29  N6  UNL     1      13.392 -18.974 -20.997  1.00  0.00    -0.345 N
ATOM     30  H62 UNL     1      12.687 -19.434 -20.421  1.00  0.00     0.176 HD
ATOM     31  H61 UNL     1      14.085 -19.670 -21.274  1.00  0.00     0.176 HD
ENDBRANCH  27  29
ENDBRANCH   2  26
BRANCH   9  32
HETATM   32  O4  UNL     1       9.834 -19.345 -17.912  1.00  0.00    -0.279 OA
ATOM     33  H4  UNL     1      10.227 -20.210 -17.945  1.00  0.00     0.245 HD
ENDBRANCH   9  32
BRANCH   3  34
HETATM   34  N7  UNL     1      13.154 -14.888 -18.733  1.00  0.00    -0.282 N
ATOM     35  H7  UNL     1      13.692 -14.983 -19.595  1.00  0.00     0.188 HD
BRANCH  34  36
HETATM   36  N8  UNL     1      13.055 -13.665 -18.125  1.00  0.00    -0.276 N
ATOM     37  H8  UNL     1      13.694 -13.460 -17.356  1.00  0.00     0.189 HD
BRANCH  36  38
HETATM   38  C7  UNL     1      12.222 -12.775 -18.456  1.00  0.00     0.368 C
HETATM   39  O1  UNL     1      11.242 -12.024 -18.394  1.00  0.00    -0.282 OA
ENDBRANCH  36  38
ENDBRANCH  34  36
ENDBRANCH   3  34
BRANCH   6  40
HETATM   40  N10 UNL     1      13.083 -17.689 -15.251  1.00  0.00    -0.248 N
ATOM     41  H10 UNL     1      14.036 -18.032 -15.371  1.00  0.00     0.196 HD
BRANCH  40  42
HETATM   42  O2  UNL     1      12.516 -17.586 -13.992  1.00  0.00    -0.288 OA
ATOM     43  H2  UNL     1      13.099 -17.497 -13.247  1.00  0.00     0.244 HD
ENDBRANCH  40  42
ENDBRANCH   6  40
TORSDOF 12
ENDMDL