MODEL 1
REMARK VINA RESULT: -8.182146592      0.000      0.000
REMARK  11 active torsions:
REMARK  status: ('A' for Active; 'I' for Inactive)
REMARK    1  A    between atoms: O1_2  and  C2_3
REMARK    2  A    between atoms: C2_3  and  C3_5
REMARK    3  A    between atoms: C3_5  and  S1_6
REMARK    4  A    between atoms: S1_6  and  S2_7
REMARK    5  A    between atoms: S2_7  and  C4_8
REMARK    6  A    between atoms: C5_10  and  N1_11
REMARK    7  A    between atoms: C6_18  and  N3_19
REMARK    8  A    between atoms: C7_23  and  N4_24
REMARK    9  A    between atoms: N4_24  and  N5_25
REMARK       I    between atoms: N5_25  and  C8_27
REMARK   10  A    between atoms: C8_27  and  O5_29
REMARK   11  A    between atoms: O5_29  and  C9_30
ROOT
HETATM    1  C4  UNL     1       6.663  -9.636 -16.629  1.00  0.00     0.342 C
HETATM    2  O3  UNL     1       6.389  -8.660 -15.741  1.00  0.00    -0.298 OA
HETATM    3  C5  UNL     1       5.334  -7.829 -15.977  1.00  0.00     0.526 C
HETATM    4  N2  UNL     1       4.393  -8.266 -16.970  1.00  0.00     0.010 N
ATOM      5  H21 UNL     1       4.818  -8.264 -17.898  1.00  0.00     0.285 HD
ATOM      6  H22 UNL     1       3.668  -7.564 -17.114  1.00  0.00     0.285 HD
HETATM    7  C6  UNL     1       3.806  -9.563 -16.673  1.00  0.00     0.431 C
HETATM    8  C7  UNL     1       4.696 -10.589 -17.380  1.00  0.00     0.296 C
HETATM    9  O7  UNL     1       5.801 -10.738 -16.548  1.00  0.00    -0.324 OA
ENDROOT
BRANCH   1  10
HETATM   10  S2  UNL     1       8.326 -10.251 -16.739  1.00  0.00    -0.033 SA
BRANCH  10  11
HETATM   11  S1  UNL     1       8.765 -10.749 -18.729  1.00  0.00    -0.024 SA
BRANCH  11  12
HETATM   12  C3  UNL     1      10.404 -10.252 -19.151  1.00  0.00     0.356 C
HETATM   13  N6  UNL     1      10.569 -10.562 -20.602  1.00  0.00    -0.016 N
HETATM   14  C11 UNL     1      10.815 -11.975 -20.640  1.00  0.00     0.366 C
ATOM     15  H62 UNL     1       9.788 -10.259 -21.184  1.00  0.00     0.282 HD
ATOM     16  H61 UNL     1      11.282 -10.002 -21.068  1.00  0.00     0.282 HD
HETATM   17  N7  UNL     1      11.001 -12.370 -19.254  1.00  0.00    -0.117 NA
HETATM   18  N8  UNL     1      11.355 -11.185 -18.578  1.00  0.00    -0.085 NA
BRANCH  12  19
HETATM   19  C2  UNL     1      10.792  -8.865 -19.006  1.00  0.00     0.325 C
HETATM   20  O2  UNL     1       9.915  -7.981 -18.745  1.00  0.00    -0.260 OA
BRANCH  19  21
HETATM   21  O1  UNL     1      12.092  -8.361 -19.133  1.00  0.00    -0.323 OA
HETATM   22  C1  UNL     1      12.502  -7.175 -18.476  1.00  0.00     0.213 C
ENDBRANCH  19  21
ENDBRANCH  12  19
ENDBRANCH  11  12
ENDBRANCH  10  11
ENDBRANCH   1  10
BRANCH   3  23
HETATM   23  N1  UNL     1       5.902  -6.569 -16.483  1.00  0.00    -0.027 N
ATOM     24  H13 UNL     1       5.332  -5.751 -16.265  1.00  0.00     0.279 HD
ATOM     25  H12 UNL     1       6.742  -6.275 -15.985  1.00  0.00     0.279 HD
ATOM     26  H11 UNL     1       6.052  -6.700 -17.483  1.00  0.00     0.279 HD
ENDBRANCH   3  23
BRANCH   8  27
HETATM   27  N4  UNL     1       4.027 -11.817 -17.657  1.00  0.00    -0.100 NA
BRANCH  27  28
HETATM   28  N5  UNL     1       4.462 -12.795 -16.758  1.00  0.00    -0.246 N
HETATM   29  C8  UNL     1       3.526 -13.680 -16.150  1.00  0.00     0.384 C
HETATM   30  O4  UNL     1       2.299 -13.587 -16.419  1.00  0.00    -0.237 OA
ATOM     31  H5  UNL     1       5.454 -12.876 -16.537  1.00  0.00     0.188 HD
BRANCH  29  32
HETATM   32  O5  UNL     1       3.937 -14.643 -15.268  1.00  0.00    -0.227 OA
BRANCH  32  33
HETATM   33  C9  UNL     1       4.793 -14.364 -14.188  1.00  0.00     0.263 C
HETATM   34  C10 UNL     1       4.636 -14.997 -12.856  1.00  0.00     0.127 C
HETATM   35  O6  UNL     1       5.718 -13.545 -14.388  1.00  0.00    -0.265 OA
ENDBRANCH  32  33
ENDBRANCH  29  32
ENDBRANCH  27  28
ENDBRANCH   8  27
BRANCH   7  36
HETATM   36  N3  UNL     1       3.924  -9.800 -15.257  1.00  0.00    -0.046 N
ATOM     37  H33 UNL     1       4.766  -9.385 -14.857  1.00  0.00     0.277 HD
ATOM     38  H32 UNL     1       3.239  -9.276 -14.712  1.00  0.00     0.277 HD
ATOM     39  H31 UNL     1       3.867 -10.805 -15.094  1.00  0.00     0.277 HD
ENDBRANCH   7  36
TORSDOF 11
ENDMDL