MODEL 3
REMARK VINA RESULT: -6.909403583      1.609      2.178
REMARK  8 active torsions:
REMARK  status: ('A' for Active; 'I' for Inactive)
REMARK    1  A    between atoms: O1_2  and  C2_3
REMARK    2  A    between atoms: N1_5  and  C4_6
REMARK    3  A    between atoms: C5_9  and  C6_10
REMARK    4  A    between atoms: N4_12  and  O2_14
REMARK    5  A    between atoms: C7_16  and  N5_17
REMARK    6  A    between atoms: N5_17  and  C8_19
REMARK    7  A    between atoms: N9_25  and  O3_26
REMARK    8  A    between atoms: N10_30  and  N11_31
ROOT
HETATM    1  C4  UNL     1       7.645 -10.952 -18.349  1.00  0.00     0.706 A
HETATM    2  N2  UNL     1       8.926 -11.088 -18.648  1.00  0.00    -0.184 N
ATOM      3  H2  UNL     1       9.586 -10.426 -18.239  1.00  0.00     0.184 HD
HETATM    4  C5  UNL     1       9.420 -12.059 -19.471  1.00  0.00     0.125 A
HETATM    5  C7  UNL     1       8.527 -12.950 -20.022  1.00  0.00     0.150 A
HETATM    6  C10 UNL     1       7.191 -12.785 -19.692  1.00  0.00     0.312 A
HETATM    7  O4  UNL     1       6.359 -13.611 -20.202  1.00  0.00    -0.263 OA
HETATM    8  N10 UNL     1       6.740 -11.818 -18.879  1.00  0.00    -0.043 N
ENDROOT
BRANCH   5   9
HETATM    9  N5  UNL     1       8.922 -13.976 -20.899  1.00  0.00    -0.181 N
ATOM     10  H5  UNL     1       9.061 -13.750 -21.884  1.00  0.00     0.184 HD
BRANCH   9  11
HETATM   11  C8  UNL     1       9.138 -15.326 -20.464  1.00  0.00     0.719 C
HETATM   12  N6  UNL     1      10.298 -15.748 -20.102  1.00  0.00    -0.208 N
HETATM   13  C9  UNL     1      10.402 -17.130 -19.683  1.00  0.00     0.271 C
ATOM     14  H6  UNL     1      11.112 -15.134 -20.111  1.00  0.00     0.179 HD
HETATM   15  N7  UNL     1       9.268 -17.423 -18.844  1.00  0.00    -0.103 NA
HETATM   16  N8  UNL     1       8.058 -17.252 -19.473  1.00  0.00     0.015 NA
HETATM   17  N9  UNL     1       8.054 -16.240 -20.428  1.00  0.00     0.028 N
BRANCH  17  18
HETATM   18  O3  UNL     1       7.014 -16.125 -21.323  1.00  0.00    -0.256 OA
ATOM     19  H3  UNL     1       6.170 -16.519 -21.135  1.00  0.00     0.247 HD
ENDBRANCH  17  18
ENDBRANCH   9  11
ENDBRANCH   5   9
BRANCH   4  20
HETATM   20  C6  UNL     1      10.844 -12.103 -19.706  1.00  0.00     0.165 C
HETATM   21  N3  UNL     1      11.599 -13.246 -19.376  1.00  0.00    -0.078 NA
HETATM   22  N4  UNL     1      11.439 -11.090 -20.215  1.00  0.00    -0.253 N
ATOM     23  H4  UNL     1      12.445 -11.172 -20.361  1.00  0.00     0.195 HD
BRANCH  22  24
HETATM   24  O2  UNL     1      10.860  -9.911 -20.580  1.00  0.00    -0.288 OA
ATOM     25  H2  UNL     1      10.599  -9.207 -19.998  1.00  0.00     0.244 HD
ENDBRANCH  22  24
ENDBRANCH   4  20
BRANCH   8  26
HETATM   26  N11 UNL     1       5.415 -11.648 -18.547  1.00  0.00    -0.252 N
HETATM   27  C11 UNL     1       4.818 -12.169 -17.545  1.00  0.00     0.216 C
HETATM   28  N12 UNL     1       5.431 -13.022 -16.594  1.00  0.00    -0.065 NA
HETATM   29  N13 UNL     1       3.438 -11.873 -17.370  1.00  0.00    -0.065 NA
ATOM     30  H11 UNL     1       4.858 -11.051 -19.158  1.00  0.00     0.190 HD
ENDBRANCH   8  26
BRANCH   1  31
HETATM   31  N1  UNL     1       7.242  -9.902 -17.480  1.00  0.00    -0.208 N
HETATM   32  C3  UNL     1       7.196 -10.021 -16.039  1.00  0.00     0.179 C
HETATM   33  C2  UNL     1       6.076  -9.069 -15.673  1.00  0.00     0.185 C
HETATM   34  C13 UNL     1       6.285  -7.960 -16.629  1.00  0.00     0.029 C
HETATM   35  C12 UNL     1       6.821  -8.572 -17.868  1.00  0.00     0.196 C
HETATM   36  N14 UNL     1       6.047  -6.738 -16.410  1.00  0.00    -0.402 N
ATOM     37 2H14 UNL     1       5.678  -6.317 -15.557  1.00  0.00     0.155 HD
ATOM     38 1H14 UNL     1       6.191  -5.973 -17.069  1.00  0.00     0.155 HD
BRANCH  33  39
HETATM   39  O1  UNL     1       6.222  -8.664 -14.348  1.00  0.00    -0.383 OA
HETATM   40  C1  UNL     1       4.965  -8.727 -13.752  1.00  0.00     0.202 C
ENDBRANCH  33  39
ENDBRANCH   1  31
TORSDOF 8
ENDMDL