MODEL 2
REMARK VINA RESULT: -9.802620783      3.234      7.919
REMARK  9 active torsions:
REMARK  status: ('A' for Active; 'I' for Inactive)
REMARK    1  A    between atoms: N3_7  and  C3_8
REMARK    2  A    between atoms: N7_16  and  C6_17
REMARK    3  A    between atoms: C6_17  and  C7_18
REMARK       I    between atoms: C7_18  and  N8_20
REMARK    4  A    between atoms: N8_20  and  N9_22
REMARK    5  A    between atoms: N9_22  and  C8_24
REMARK    6  A    between atoms: C9_27  and  N11_28
REMARK    7  A    between atoms: C10_33  and  O2_34
REMARK    8  A    between atoms: C11_36  and  N13_37
REMARK    9  A    between atoms: C12_40  and  N14_41
ROOT
HETATM    1  C3  UNL     1       8.601 -14.638 -21.302  1.00  0.00     0.723 A
HETATM    2  N4  UNL     1       8.946 -13.673 -20.433  1.00  0.00    -0.170 N
ATOM      3  H4  UNL     1       8.503 -13.665 -19.515  1.00  0.00     0.186 HD
HETATM    4  C4  UNL     1       9.852 -12.714 -20.721  1.00  0.00     0.168 A
HETATM    5  C5  UNL     1      10.462 -12.705 -21.957  1.00  0.00     0.136 A
HETATM    6  N5  UNL     1      11.300 -11.657 -21.951  1.00  0.00    -0.277 N
ATOM      7  H5  UNL     1      11.905 -11.371 -22.720  1.00  0.00     0.184 HD
HETATM    8  N6  UNL     1      11.205 -11.057 -20.769  1.00  0.00    -0.018 NA
HETATM    9  N7  UNL     1      10.328 -11.680 -19.997  1.00  0.00    -0.249 N
HETATM   10  C12 UNL     1      10.121 -13.683 -22.858  1.00  0.00     0.146 A
HETATM   11  N15 UNL     1       9.215 -14.613 -22.520  1.00  0.00    -0.171 N
ATOM     12  H15 UNL     1       8.975 -15.332 -23.203  1.00  0.00     0.186 HD
ENDROOT
BRANCH   9  13
HETATM   13  C6  UNL     1       9.969 -11.314 -18.661  1.00  0.00     0.253 C
BRANCH  13  14
HETATM   14  C7  UNL     1       8.680 -10.607 -18.598  1.00  0.00     0.255 C
HETATM   15  O1  UNL     1       8.653  -9.361 -18.738  1.00  0.00    -0.270 OA
HETATM   16  N8  UNL     1       7.480 -11.334 -18.380  1.00  0.00    -0.267 N
ATOM     17  H8  UNL     1       7.542 -12.347 -18.273  1.00  0.00     0.190 HD
BRANCH  16  18
HETATM   18  N9  UNL     1       6.226 -10.740 -18.304  1.00  0.00    -0.280 N
ATOM     19  H9  UNL     1       5.538 -11.002 -19.010  1.00  0.00     0.188 HD
BRANCH  18  20
HETATM   20  C8  UNL     1       5.829  -9.795 -17.321  1.00  0.00     0.173 A
HETATM   21  N10 UNL     1       6.095  -8.486 -17.395  1.00  0.00    -0.173 N
HETATM   22  C9  UNL     1       5.708  -7.593 -16.458  1.00  0.00     0.679 A
ATOM     23  H10 UNL     1       6.616  -8.144 -18.202  1.00  0.00     0.186 HD
HETATM   24  N12 UNL     1       5.020  -8.042 -15.389  1.00  0.00    -0.168 N
HETATM   25  C10 UNL     1       4.721  -9.350 -15.254  1.00  0.00     0.192 A
ATOM     26  H12 UNL     1       4.721  -7.382 -14.671  1.00  0.00     0.186 HD
HETATM   27  C11 UNL     1       5.117 -10.239 -16.208  1.00  0.00     0.199 A
BRANCH  22  28
HETATM   28  N11 UNL     1       6.002  -6.340 -16.601  1.00  0.00    -0.234 N
ATOM     29 2H11 UNL     1       6.545  -6.003 -17.396  1.00  0.00     0.174 HD
ATOM     30 1H11 UNL     1       5.687  -5.661 -15.907  1.00  0.00     0.174 HD
ENDBRANCH  22  28
BRANCH  25  31
HETATM   31  O2  UNL     1       4.007  -9.734 -14.121  1.00  0.00    -0.344 OA
ATOM     32  H2  UNL     1       4.427 -10.338 -13.520  1.00  0.00     0.219 HD
ENDBRANCH  25  31
BRANCH  27  33
HETATM   33  N13 UNL     1       4.799 -11.621 -16.064  1.00  0.00    -0.107 N
HETATM   34  O3  UNL     1       5.776 -12.407 -15.977  1.00  0.00    -0.531 OA
HETATM   35  O4  UNL     1       3.541 -12.118 -16.013  1.00  0.00    -0.531 OA
ENDBRANCH  27  33
ENDBRANCH  18  20
ENDBRANCH  16  18
ENDBRANCH  13  14
ENDBRANCH   9  13
BRANCH   1  36
HETATM   36  N3  UNL     1       7.653 -15.659 -21.016  1.00  0.00    -0.004 N
HETATM   37  N2  UNL     1       6.358 -15.493 -20.916  1.00  0.00    -0.205 N
HETATM   38  N1  UNL     1       5.777 -16.673 -20.634  1.00  0.00    -0.272 N
ATOM     39  H2  UNL     1       5.866 -14.607 -21.034  1.00  0.00     0.211 HD
HETATM   40  C2  UNL     1       6.744 -17.602 -20.559  1.00  0.00     0.110 A
ATOM     41  H1  UNL     1       4.779 -16.833 -20.501  1.00  0.00     0.190 HD
HETATM   42  C1  UNL     1       6.573 -19.061 -20.264  1.00  0.00     0.092 C
HETATM   43  N16 UNL     1       7.908 -16.948 -20.800  1.00  0.00    -0.251 N
ATOM     44  H16 UNL     1       8.833 -17.377 -20.813  1.00  0.00     0.191 HD
ENDBRANCH   1  36
BRANCH  10  45
HETATM   45  N14 UNL     1      10.700 -13.672 -24.011  1.00  0.00    -0.383 N
ATOM     46 2H14 UNL     1      11.697 -13.853 -24.121  1.00  0.00     0.157 HD
ATOM     47 1H14 UNL     1      10.128 -13.468 -24.830  1.00  0.00     0.157 HD
ENDBRANCH  10  45
TORSDOF 9
ENDMDL