MODEL 5
REMARK VINA RESULT: -4.385346359      1.591      4.069
REMARK  4 active torsions:
REMARK  status: ('A' for Active; 'I' for Inactive)
REMARK    1  A    between atoms: N1_1  and  C1_4
REMARK    2  A    between atoms: C5_14  and  N5_15
REMARK    3  A    between atoms: N5_15  and  N6_17
REMARK    4  A    between atoms: N6_17  and  N7_18
ROOT
HETATM    1  C1  UNL     1     -20.565  14.668   8.057  1.00  0.00     0.679 A
HETATM    2  N2  UNL     1     -20.089  13.519   7.538  1.00  0.00    -0.174 N
ATOM      3  H2  UNL     1     -19.116  13.255   7.692  1.00  0.00     0.186 HD
HETATM    4  C2  UNL     1     -20.895  12.719   6.816  1.00  0.00     0.152 A
HETATM    5  N3  UNL     1     -20.735  11.554   6.191  1.00  0.00    -0.336 N
ATOM      6  H3  UNL     1     -19.874  11.009   6.146  1.00  0.00     0.168 HD
HETATM    7  C3  UNL     1     -21.913  11.225   5.628  1.00  0.00     0.182 A
HETATM    8  N4  UNL     1     -22.847  12.152   5.869  1.00  0.00    -0.346 N
ATOM      9  H4  UNL     1     -23.815  12.127   5.548  1.00  0.00     0.167 HD
HETATM   10  C4  UNL     1     -22.282  13.122   6.610  1.00  0.00     0.124 A
HETATM   11  C5  UNL     1     -22.712  14.306   7.165  1.00  0.00     0.164 A
HETATM   12  N8  UNL     1     -21.838  15.042   7.872  1.00  0.00    -0.173 N
ATOM     13  H8  UNL     1     -22.156  15.920   8.282  1.00  0.00     0.186 HD
ENDROOT
BRANCH  11  14
HETATM   14  N5  UNL     1     -24.066  14.646   6.936  1.00  0.00    -0.267 N
ATOM     15  H5  UNL     1     -24.646  14.079   6.317  1.00  0.00     0.186 HD
BRANCH  14  16
HETATM   16  N6  UNL     1     -24.596  15.775   7.575  1.00  0.00    -0.028 NA
BRANCH  16  17
HETATM   17  N7  UNL     1     -25.686  15.429   8.357  1.00  0.00    -0.329 N
ATOM     18  H72 UNL     1     -25.823  14.504   8.764  1.00  0.00     0.174 HD
ATOM     19  H71 UNL     1     -26.320  16.221   8.465  1.00  0.00     0.174 HD
ENDBRANCH  16  17
ENDBRANCH  14  16
ENDBRANCH  11  14
BRANCH   1  20
HETATM   20  N1  UNL     1     -19.767  15.399   8.741  1.00  0.00    -0.234 N
ATOM     21  H12 UNL     1     -19.023  15.923   8.280  1.00  0.00     0.174 HD
ATOM     22  H11 UNL     1     -19.899  15.444   9.752  1.00  0.00     0.174 HD
ENDBRANCH   1  20
TORSDOF 4
ENDMDL