MODEL 5
REMARK VINA RESULT: -5.191043791      2.367      2.932
REMARK  5 active torsions:
REMARK  status: ('A' for Active; 'I' for Inactive)
REMARK    1  A    between atoms: C2_3  and  N2_4
REMARK    2  A    between atoms: C2_3  and  C3_8
REMARK    3  A    between atoms: C3_8  and  C4_9
REMARK    4  A    between atoms: C4_9  and  S1_10
REMARK    5  A    between atoms: S1_10  and  C5_11
ROOT
HETATM    1  N1  UNL     1     -21.465   6.454  14.095  1.00  0.00    -0.195 NA
HETATM    2  C1  UNL     1     -21.676   6.216  12.979  1.00  0.00     0.092 C
HETATM    3  C2  UNL     1     -21.963   5.904  11.571  1.00  0.00     0.289 C
ENDROOT
BRANCH   3   4
HETATM    4  N2  UNL     1     -22.352   4.524  11.492  1.00  0.00    -0.063 N
ATOM      5  H23 UNL     1     -21.569   3.904  11.284  1.00  0.00     0.275 HD
ATOM      6  H22 UNL     1     -22.599   4.131  12.400  1.00  0.00     0.275 HD
ATOM      7  H21 UNL     1     -23.107   4.447  10.811  1.00  0.00     0.275 HD
ENDBRANCH   3   4
BRANCH   3   8
HETATM    8  C3  UNL     1     -23.126   6.778  11.087  1.00  0.00     0.058 C
BRANCH   8   9
HETATM    9  C4  UNL     1     -23.343   7.819  12.154  1.00  0.00     0.080 C
BRANCH   9  10
HETATM   10  S1  UNL     1     -25.068   7.904  12.691  1.00  0.00    -0.129 SA
BRANCH  10  11
HETATM   11  C5  UNL     1     -25.550   9.668  12.552  1.00  0.00     0.268 C
HETATM   12  N3  UNL     1     -24.417  10.531  12.480  1.00  0.00    -0.095 NA
HETATM   13  N4  UNL     1     -24.360  11.096  13.760  1.00  0.00    -0.019 NA
HETATM   14  N5  UNL     1     -25.717  11.280  14.054  1.00  0.00    -0.019 NA
HETATM   15  N6  UNL     1     -26.229   9.983  13.817  1.00  0.00    -0.095 NA
ENDBRANCH  10  11
ENDBRANCH   9  10
ENDBRANCH   8   9
ENDBRANCH   3   8
TORSDOF 5
ENDMDL