MODEL 2
REMARK VINA RESULT: -4.549584465      2.148      4.016
REMARK  4 active torsions:
REMARK  status: ('A' for Active; 'I' for Inactive)
REMARK    1  A    between atoms: N1_1  and  C1_4
REMARK    2  A    between atoms: C3_8  and  N3_9
REMARK    3  A    between atoms: N3_9  and  N4_11
REMARK    4  A    between atoms: N4_11  and  N5_12
ROOT
HETATM    1  C1  UNL     1     -29.790   9.824  15.956  1.00  0.00     0.692 A
HETATM    2  N2  UNL     1     -28.894   9.026  15.311  1.00  0.00    -0.170 N
ATOM      3  H2  UNL     1     -28.925   8.008  15.268  1.00  0.00     0.186 HD
HETATM    4  C2  UNL     1     -27.958   9.815  14.739  1.00  0.00     0.188 A
HETATM    5  C3  UNL     1     -26.831   9.479  13.977  1.00  0.00     0.165 A
HETATM    6  N6  UNL     1     -26.068  10.509  13.540  1.00  0.00    -0.347 N
ATOM      7  H6  UNL     1     -25.239  10.301  12.983  1.00  0.00     0.167 HD
HETATM    8  C4  UNL     1     -26.356  11.792  13.811  1.00  0.00     0.109 A
HETATM    9  C5  UNL     1     -27.485  12.044  14.571  1.00  0.00     0.136 A
HETATM   10  N7  UNL     1     -28.295  11.071  15.040  1.00  0.00    -0.232 N
HETATM   11  N8  UNL     1     -29.411  11.089  15.781  1.00  0.00    -0.124 N
ATOM     12  H8  UNL     1     -29.883  11.917  16.143  1.00  0.00     0.206 HD
ENDROOT
BRANCH   5  13
HETATM   13  N3  UNL     1     -26.548   8.126  13.692  1.00  0.00    -0.267 N
ATOM     14  H3  UNL     1     -25.976   7.925  12.872  1.00  0.00     0.186 HD
BRANCH  13  15
HETATM   15  N4  UNL     1     -26.987   7.054  14.441  1.00  0.00    -0.028 NA
BRANCH  15  16
HETATM   16  N5  UNL     1     -26.436   5.871  13.876  1.00  0.00    -0.329 N
ATOM     17  H52 UNL     1     -26.005   5.804  12.954  1.00  0.00     0.174 HD
ATOM     18  H51 UNL     1     -26.551   5.117  14.554  1.00  0.00     0.174 HD
ENDBRANCH  15  16
ENDBRANCH  13  15
ENDBRANCH   5  13
BRANCH   1  19
HETATM   19  N1  UNL     1     -30.814   9.400  16.620  1.00  0.00    -0.233 N
ATOM     20  H12 UNL     1     -30.816   8.731  17.390  1.00  0.00     0.174 HD
ATOM     21  H11 UNL     1     -31.779   9.684  16.450  1.00  0.00     0.174 HD
ENDBRANCH   1  19
TORSDOF 4
ENDMDL