MODEL 3
REMARK VINA RESULT: -4.661004382      1.271      2.099
REMARK  3 active torsions:
REMARK  status: ('A' for Active; 'I' for Inactive)
REMARK       I    between atoms: N1_1  and  C1_5
REMARK       I    between atoms: C1_5  and  N2_6
REMARK       I    between atoms: C1_5  and  N3_10
REMARK    1  A    between atoms: N3_10  and  N4_12
REMARK    2  A    between atoms: C2_14  and  C3_15
REMARK    3  A    between atoms: N6_20  and  N7_21
ROOT
HETATM    1  N4  UNL     1     -24.593   7.416  12.625  1.00  0.00    -0.311 N
ATOM      2  H4  UNL     1     -24.351   8.366  12.340  1.00  0.00     0.185 HD
HETATM    3  C2  UNL     1     -25.643   7.291  13.328  1.00  0.00     0.139 C
ENDROOT
BRANCH   1   4
HETATM    4  N3  UNL     1     -23.749   6.421  12.206  1.00  0.00    -0.284 N
HETATM    5  C1  UNL     1     -22.334   6.710  12.070  1.00  0.00     0.494 C
HETATM    6  N1  UNL     1     -21.853   7.118  13.378  1.00  0.00    -0.032 N
HETATM    7  N2  UNL     1     -21.603   5.532  11.653  1.00  0.00    -0.032 N
ATOM      8  H13 UNL     1     -21.902   6.365  14.064  1.00  0.00     0.279 HD
ATOM      9  H12 UNL     1     -20.843   7.258  13.396  1.00  0.00     0.279 HD
ATOM     10  H11 UNL     1     -22.367   7.948  13.671  1.00  0.00     0.279 HD
ATOM     11  H23 UNL     1     -20.593   5.672  11.672  1.00  0.00     0.279 HD
ATOM     12  H22 UNL     1     -21.653   4.779  12.339  1.00  0.00     0.279 HD
ATOM     13  H21 UNL     1     -21.941   5.245  10.734  1.00  0.00     0.279 HD
ATOM     14  H3  UNL     1     -24.110   5.491  11.993  1.00  0.00     0.184 HD
ENDBRANCH   1   4
BRANCH   3  15
HETATM   15  C3  UNL     1     -26.390   8.503  13.653  1.00  0.00     0.089 A
HETATM   16  C4  UNL     1     -26.292   9.737  13.022  1.00  0.00     0.122 A
HETATM   17  N5  UNL     1     -27.148  10.575  13.626  1.00  0.00    -0.358 N
HETATM   18  C5  UNL     1     -27.794   9.936  14.619  1.00  0.00     0.206 A
ATOM     19  H5  UNL     1     -27.289  11.553  13.371  1.00  0.00     0.166 HD
HETATM   20  N6  UNL     1     -27.321   8.677  14.621  1.00  0.00    -0.256 N
BRANCH  20  21
HETATM   21  N7  UNL     1     -27.699   7.637  15.482  1.00  0.00    -0.337 N
ATOM     22  H72 UNL     1     -27.968   6.690  15.217  1.00  0.00     0.177 HD
ATOM     23  H71 UNL     1     -27.733   7.761  16.493  1.00  0.00     0.177 HD
ENDBRANCH  20  21
ENDBRANCH   3  15
TORSDOF 3
ENDMDL