MODEL 4
REMARK VINA RESULT: -4.578843443      1.672      6.108
REMARK  5 active torsions:
REMARK  status: ('A' for Active; 'I' for Inactive)
REMARK    1  A    between atoms: N1_1  and  C1_4
REMARK    2  A    between atoms: C3_10  and  N4_11
REMARK    3  A    between atoms: N4_11  and  N5_13
REMARK    4  A    between atoms: C4_15  and  C5_16
REMARK    5  A    between atoms: C5_16  and  N6_17
ROOT
HETATM    1  C1  UNL     1     -22.420   5.573  11.812  1.00  0.00     0.131 A
HETATM    2  C2  UNL     1     -21.468   6.031  12.687  1.00  0.00     0.156 A
HETATM    3  N2  UNL     1     -21.638   7.244  13.242  1.00  0.00    -0.294 N
ATOM      4  H2  UNL     1     -20.934   7.592  13.893  1.00  0.00     0.186 HD
HETATM    5  N3  UNL     1     -22.678   7.993  12.973  1.00  0.00    -0.131 N
ATOM      6  H3  UNL     1     -22.784   8.910  13.406  1.00  0.00     0.205 HD
HETATM    7  C3  UNL     1     -23.620   7.523  12.098  1.00  0.00     0.713 A
HETATM    8  N7  UNL     1     -23.496   6.324  11.521  1.00  0.00    -0.173 N
ATOM      9  H7  UNL     1     -24.205   5.985  10.871  1.00  0.00     0.186 HD
ENDROOT
BRANCH   7  10
HETATM   10  N4  UNL     1     -24.649   8.243  11.820  1.00  0.00    -0.131 N
ATOM     11  H4  UNL     1     -24.702   8.742  10.932  1.00  0.00     0.205 HD
BRANCH  10  12
HETATM   12  N5  UNL     1     -25.685   8.335  12.736  1.00  0.00    -0.300 N
HETATM   13  C4  UNL     1     -26.032   9.503  13.147  1.00  0.00     0.107 C
ATOM     14  H5  UNL     1     -26.161   7.498  13.074  1.00  0.00     0.186 HD
BRANCH  13  15
HETATM   15  C5  UNL     1     -27.138   9.634  14.127  1.00  0.00     0.275 C
BRANCH  15  16
HETATM   16  N6  UNL     1     -27.342   8.356  14.764  1.00  0.00    -0.075 N
ATOM     17  H63 UNL     1     -27.897   7.719  14.192  1.00  0.00     0.274 HD
ATOM     18  H62 UNL     1     -26.488   7.799  14.806  1.00  0.00     0.274 HD
ATOM     19  H61 UNL     1     -27.752   8.513  15.685  1.00  0.00     0.274 HD
ENDBRANCH  15  16
ENDBRANCH  13  15
ENDBRANCH  10  12
ENDBRANCH   7  10
BRANCH   1  20
HETATM   20  N1  UNL     1     -22.302   4.413  11.253  1.00  0.00    -0.384 N
ATOM     21  H12 UNL     1     -23.138   3.843  11.125  1.00  0.00     0.157 HD
ATOM     22  H11 UNL     1     -21.391   4.071  10.946  1.00  0.00     0.157 HD
ENDBRANCH   1  20
TORSDOF 5
ENDMDL