MODEL 1
REMARK VINA RESULT: -4.625817180      0.000      0.000
REMARK  5 active torsions:
REMARK  status: ('A' for Active; 'I' for Inactive)
REMARK    1  A    between atoms: C3_5  and  N2_6
REMARK    2  A    between atoms: C4_11  and  C5_12
REMARK    3  A    between atoms: C5_12  and  C6_16
REMARK    4  A    between atoms: C6_16  and  N5_17
REMARK    5  A    between atoms: C6_16  and  N6_21
ROOT
HETATM    1  C1  UNL     1     -24.646   8.265  12.102  1.00  0.00     0.089 C
HETATM    2  C2  UNL     1     -25.195   9.448  12.785  1.00  0.00     0.095 A
HETATM    3  N1  UNL     1     -24.444  10.519  13.085  1.00  0.00    -0.181 N
ATOM      4  H1  UNL     1     -23.455  10.523  12.834  1.00  0.00     0.185 HD
HETATM    5  C3  UNL     1     -24.972  11.588  13.709  1.00  0.00     0.678 A
HETATM    6  N3  UNL     1     -26.270  11.561  14.029  1.00  0.00    -0.175 N
ATOM      7  H3  UNL     1     -26.677  12.367  14.504  1.00  0.00     0.186 HD
HETATM    8  C4  UNL     1     -27.058  10.506  13.746  1.00  0.00     0.148 A
HETATM    9  N7  UNL     1     -26.493   9.464  13.123  1.00  0.00    -0.330 N
ATOM     10  H7  UNL     1     -27.070   8.654  12.898  1.00  0.00     0.168 HD
ENDROOT
BRANCH   8  11
HETATM   11  C5  UNL     1     -28.473  10.498  14.095  1.00  0.00     0.106 C
HETATM   12  N4  UNL     1     -29.303  11.078  13.305  1.00  0.00    -0.396 N
ATOM     13  H42 UNL     1     -28.984  11.526  12.446  1.00  0.00     0.156 HD
ATOM     14  H41 UNL     1     -30.293  11.073  13.550  1.00  0.00     0.156 HD
BRANCH  11  15
HETATM   15  C6  UNL     1     -28.933   9.851  15.338  1.00  0.00     0.430 C
BRANCH  15  16
HETATM   16  N5  UNL     1     -30.341   9.543  15.345  1.00  0.00    -0.045 N
ATOM     17  H53 UNL     1     -30.893  10.380  15.161  1.00  0.00     0.277 HD
ATOM     18  H52 UNL     1     -30.592   8.989  14.527  1.00  0.00     0.277 HD
ATOM     19  H51 UNL     1     -30.657   9.085  16.200  1.00  0.00     0.277 HD
ENDBRANCH  15  16
BRANCH  15  20
HETATM   20  N6  UNL     1     -28.136   8.631  15.543  1.00  0.00    -0.045 N
ATOM     21  H63 UNL     1     -28.648   7.905  16.044  1.00  0.00     0.277 HD
ATOM     22  H62 UNL     1     -27.977   8.115  14.678  1.00  0.00     0.277 HD
ATOM     23  H61 UNL     1     -27.268   8.893  16.010  1.00  0.00     0.277 HD
ENDBRANCH  15  20
ENDBRANCH  11  15
ENDBRANCH   8  11
BRANCH   5  24
HETATM   24  N2  UNL     1     -24.199  12.612  13.981  1.00  0.00    -0.234 N
ATOM     25  H22 UNL     1     -23.185  12.529  14.060  1.00  0.00     0.174 HD
ATOM     26  H21 UNL     1     -24.623  13.529  14.118  1.00  0.00     0.174 HD
ENDBRANCH   5  24
TORSDOF 5
ENDMDL