MODEL 4
REMARK VINA RESULT: -4.714546151      1.758      2.181
REMARK  6 active torsions:
REMARK  status: ('A' for Active; 'I' for Inactive)
REMARK    1  A    between atoms: N1_1  and  C1_4
REMARK    2  A    between atoms: C2_10  and  N4_11
REMARK    3  A    between atoms: N4_11  and  N5_13
REMARK    4  A    between atoms: C3_15  and  C4_16
REMARK    5  A    between atoms: C4_16  and  C5_17
REMARK    6  A    between atoms: C5_17  and  N6_18
ROOT
HETATM    1  N4  UNL     1     -25.723   8.628  12.817  1.00  0.00    -0.282 N
ATOM      2  H4  UNL     1     -26.449   7.982  13.127  1.00  0.00     0.188 HD
ENDROOT
BRANCH   1   3
HETATM    3  C2  UNL     1     -25.665   9.864  13.246  1.00  0.00     0.188 A
HETATM    4  C1  UNL     1     -26.745  10.585  13.704  1.00  0.00     0.169 A
HETATM    5  N2  UNL     1     -26.273  11.795  14.045  1.00  0.00    -0.222 N
HETATM    6  O1  UNL     1     -25.014  11.798  13.810  1.00  0.00    -0.153 OA
ATOM      7  H2  UNL     1     -26.817  12.571  14.423  1.00  0.00     0.198 HD
HETATM    8  N3  UNL     1     -24.602  10.677  13.335  1.00  0.00    -0.221 N
ATOM      9  H3  UNL     1     -23.643  10.448  13.073  1.00  0.00     0.198 HD
BRANCH   4  10
HETATM   10  N1  UNL     1     -27.981  10.204  13.801  1.00  0.00    -0.381 N
ATOM     11  H12 UNL     1     -28.661  10.072  13.051  1.00  0.00     0.157 HD
ATOM     12  H11 UNL     1     -28.465   9.974  14.669  1.00  0.00     0.157 HD
ENDBRANCH   4  10
ENDBRANCH   1   3
BRANCH   1  13
HETATM   13  N5  UNL     1     -24.731   8.246  11.910  1.00  0.00    -0.314 N
HETATM   14  C3  UNL     1     -24.004   7.239  12.199  1.00  0.00     0.081 C
ATOM     15  H5  UNL     1     -24.592   8.760  11.040  1.00  0.00     0.185 HD
BRANCH  14  16
HETATM   16  C4  UNL     1     -22.944   6.819  11.247  1.00  0.00     0.073 C
BRANCH  16  17
HETATM   17  C5  UNL     1     -21.928   5.919  11.946  1.00  0.00     0.235 C
BRANCH  17  18
HETATM   18  N6  UNL     1     -21.962   6.140  13.376  1.00  0.00    -0.079 N
ATOM     19  H63 UNL     1     -21.037   6.052  13.796  1.00  0.00     0.274 HD
ATOM     20  H62 UNL     1     -22.139   7.117  13.605  1.00  0.00     0.274 HD
ATOM     21  H61 UNL     1     -22.640   5.517  13.815  1.00  0.00     0.274 HD
ENDBRANCH  17  18
ENDBRANCH  16  17
ENDBRANCH  14  16
ENDBRANCH   1  13
TORSDOF 6
ENDMDL