MODEL 2
REMARK VINA RESULT: -6.252241453      0.917      1.241
REMARK  11 active torsions:
REMARK  status: ('A' for Active; 'I' for Inactive)
REMARK    1  A    between atoms: C3_4  and  N2_5
REMARK    2  A    between atoms: N2_5  and  C4_7
REMARK    3  A    between atoms: C4_7  and  C5_8
REMARK    4  A    between atoms: C5_8  and  N3_9
REMARK    5  A    between atoms: N3_9  and  C6_11
REMARK    6  A    between atoms: C7_14  and  N5_15
REMARK    7  A    between atoms: N5_15  and  C8_17
REMARK    8  A    between atoms: C8_17  and  C9_18
REMARK    9  A    between atoms: C9_18  and  C10_19
REMARK   10  A    between atoms: C10_19  and  N6_20
REMARK   11  A    between atoms: C10_19  and  N7_24
ROOT
HETATM    1  C6  UNL     1     -29.810  40.282  22.285  1.00  0.00     0.187 A
HETATM    2  N4  UNL     1     -29.810  41.415  22.998  1.00  0.00    -0.170 N
ATOM      3  H4  UNL     1     -28.982  42.010  22.972  1.00  0.00     0.186 HD
HETATM    4  C7  UNL     1     -30.876  41.804  23.760  1.00  0.00     0.694 A
HETATM    5  N8  UNL     1     -31.933  40.973  23.751  1.00  0.00    -0.129 N
ATOM      6  H8  UNL     1     -32.752  41.223  24.306  1.00  0.00     0.205 HD
HETATM    7  N9  UNL     1     -31.964  39.849  23.058  1.00  0.00    -0.249 N
ATOM      8  H9  UNL     1     -32.796  39.259  23.091  1.00  0.00     0.191 HD
HETATM    9  C11 UNL     1     -30.920  39.475  22.316  1.00  0.00     0.304 A
HETATM   10  O1  UNL     1     -30.926  38.393  21.639  1.00  0.00    -0.263 OA
ENDROOT
BRANCH   1  11
HETATM   11  N3  UNL     1     -28.807  39.906  21.562  1.00  0.00    -0.370 N
ATOM     12  H3  UNL     1     -28.934  39.147  20.892  1.00  0.00     0.161 HD
BRANCH  11  13
HETATM   13  C5  UNL     1     -27.498  40.539  21.681  1.00  0.00     0.141 C
BRANCH  13  14
HETATM   14  C4  UNL     1     -26.966  40.635  20.250  1.00  0.00     0.141 C
BRANCH  14  15
HETATM   15  N2  UNL     1     -25.584  40.265  20.277  1.00  0.00    -0.375 N
ATOM     16  H2  UNL     1     -25.223  39.753  21.082  1.00  0.00     0.161 HD
BRANCH  15  17
HETATM   17  C3  UNL     1     -24.787  40.558  19.317  1.00  0.00     0.104 A
HETATM   18  C2  UNL     1     -23.815  39.742  18.789  1.00  0.00     0.093 A
HETATM   19  C1  UNL     1     -22.982  40.125  17.743  1.00  0.00     0.120 A
HETATM   20  N1  UNL     1     -21.997  39.262  17.226  1.00  0.00    -0.083 NA
HETATM   21  N11 UNL     1     -23.120  41.347  17.213  1.00  0.00    -0.341 N
HETATM   22  C12 UNL     1     -24.079  42.158  17.732  1.00  0.00     0.183 A
ATOM     23  H11 UNL     1     -22.525  41.660  16.445  1.00  0.00     0.167 HD
HETATM   24  N10 UNL     1     -24.884  41.798  18.736  1.00  0.00    -0.339 N
ATOM     25  H10 UNL     1     -25.584  42.458  19.077  1.00  0.00     0.168 HD
ENDBRANCH  15  17
ENDBRANCH  14  15
ENDBRANCH  13  14
ENDBRANCH  11  13
ENDBRANCH   1  11
BRANCH   4  26
HETATM   26  N5  UNL     1     -30.830  42.903  24.428  1.00  0.00    -0.225 N
ATOM     27  H5  UNL     1     -31.489  43.641  24.178  1.00  0.00     0.177 HD
BRANCH  26  28
HETATM   28  C8  UNL     1     -29.911  43.156  25.502  1.00  0.00     0.142 C
BRANCH  28  29
HETATM   29  C9  UNL     1     -30.317  42.463  26.784  1.00  0.00     0.082 C
BRANCH  29  30
HETATM   30  C10 UNL     1     -29.744  43.132  27.997  1.00  0.00     0.379 C
BRANCH  30  31
HETATM   31  N6  UNL     1     -30.719  44.082  28.499  1.00  0.00    -0.050 N
ATOM     32  H63 UNL     1     -31.485  44.240  27.845  1.00  0.00     0.276 HD
ATOM     33  H62 UNL     1     -31.271  43.707  29.271  1.00  0.00     0.276 HD
ATOM     34  H61 UNL     1     -30.232  44.943  28.748  1.00  0.00     0.276 HD
ENDBRANCH  30  31
BRANCH  30  35
HETATM   35  N7  UNL     1     -29.495  42.183  29.064  1.00  0.00    -0.050 N
ATOM     36  H73 UNL     1     -29.544  41.222  28.726  1.00  0.00     0.276 HD
ATOM     37  H72 UNL     1     -28.518  42.199  29.354  1.00  0.00     0.276 HD
ATOM     38  H71 UNL     1     -30.121  42.333  29.854  1.00  0.00     0.276 HD
ENDBRANCH  30  35
ENDBRANCH  29  30
ENDBRANCH  28  29
ENDBRANCH  26  28
ENDBRANCH   4  26
TORSDOF 11
ENDMDL