MODEL 4
REMARK VINA RESULT: -5.283608741      3.042      5.547
REMARK  11 active torsions:
REMARK  status: ('A' for Active; 'I' for Inactive)
REMARK    1  A    between atoms: N1_1  and  C1_5
REMARK    2  A    between atoms: C1_5  and  C2_6
REMARK    3  A    between atoms: C2_6  and  N2_7
REMARK    4  A    between atoms: N2_7  and  C3_9
REMARK    5  A    between atoms: C3_9  and  C4_10
REMARK    6  A    between atoms: C4_10  and  C5_11
REMARK    7  A    between atoms: C5_11  and  N3_12
REMARK    8  A    between atoms: C9_21  and  N6_22
REMARK    9  A    between atoms: N6_22  and  C10_24
REMARK   10  A    between atoms: C11_28  and  C12_29
REMARK   11  A    between atoms: C12_29  and  O2_30
ROOT
HETATM    1  N3  UNL     1     -29.484  40.521  21.248  1.00  0.00    -0.327 N
HETATM    2  C6  UNL     1     -28.804  41.047  22.269  1.00  0.00     0.185 A
HETATM    3  N4  UNL     1     -27.487  41.063  22.010  1.00  0.00    -0.345 N
ATOM      4  H4  UNL     1     -26.763  41.415  22.636  1.00  0.00     0.167 HD
HETATM    5  C7  UNL     1     -27.279  40.535  20.782  1.00  0.00     0.147 A
HETATM    6  C8  UNL     1     -26.160  40.307  20.014  1.00  0.00     0.290 A
HETATM    7  O1  UNL     1     -25.031  40.606  20.428  1.00  0.00    -0.265 OA
HETATM    8  N5  UNL     1     -26.341  39.747  18.798  1.00  0.00    -0.154 N
ATOM      9  H5  UNL     1     -25.525  39.569  18.212  1.00  0.00     0.187 HD
HETATM   10  C9  UNL     1     -27.556  39.416  18.332  1.00  0.00     0.686 A
HETATM   11  N8  UNL     1     -28.670  39.648  19.110  1.00  0.00    -0.174 N
ATOM     12  H8  UNL     1     -29.595  39.398  18.760  1.00  0.00     0.186 HD
HETATM   13  C13 UNL     1     -28.544  40.196  20.312  1.00  0.00     0.156 A
ENDROOT
BRANCH   1  14
HETATM   14  C5  UNL     1     -30.915  40.315  21.108  1.00  0.00     0.133 C
BRANCH  14  15
HETATM   15  C4  UNL     1     -31.289  39.067  21.845  1.00  0.00     0.040 C
BRANCH  15  16
HETATM   16  C3  UNL     1     -32.593  39.341  22.615  1.00  0.00     0.120 C
BRANCH  16  17
HETATM   17  N2  UNL     1     -32.447  40.507  23.389  1.00  0.00    -0.401 N
ATOM     18  H2  UNL     1     -31.541  40.727  23.805  1.00  0.00     0.158 HD
BRANCH  17  19
HETATM   19  C2  UNL     1     -33.531  41.369  23.596  1.00  0.00     0.082 C
BRANCH  19  20
HETATM   20  C1  UNL     1     -33.476  42.339  24.722  1.00  0.00     0.273 C
BRANCH  20  21
HETATM   21  N1  UNL     1     -33.462  41.660  25.992  1.00  0.00    -0.075 N
ATOM     22  H13 UNL     1     -33.553  40.651  25.879  1.00  0.00     0.274 HD
ATOM     23  H12 UNL     1     -32.537  41.685  26.421  1.00  0.00     0.274 HD
ATOM     24  H11 UNL     1     -34.176  42.035  26.617  1.00  0.00     0.274 HD
ENDBRANCH  20  21
ENDBRANCH  19  20
ENDBRANCH  17  19
ENDBRANCH  16  17
ENDBRANCH  15  16
ENDBRANCH  14  15
ENDBRANCH   1  14
BRANCH  10  25
HETATM   25  N6  UNL     1     -27.796  38.900  17.220  1.00  0.00    -0.174 N
ATOM     26  H6  UNL     1     -27.221  39.269  16.462  1.00  0.00     0.182 HD
BRANCH  25  27
HETATM   27  C10 UNL     1     -28.702  37.914  16.812  1.00  0.00     0.448 C
HETATM   28  N7  UNL     1     -28.090  36.792  16.095  1.00  0.00    -0.002 N
HETATM   29  C11 UNL     1     -29.167  36.013  16.681  1.00  0.00     0.353 C
ATOM     30  H72 UNL     1     -27.915  36.816  15.090  1.00  0.00     0.285 HD
ATOM     31  H71 UNL     1     -27.108  36.541  16.208  1.00  0.00     0.285 HD
HETATM   32  O3  UNL     1     -29.222  36.998  17.687  1.00  0.00    -0.308 OA
BRANCH  29  33
HETATM   33  C12 UNL     1     -28.746  34.703  17.270  1.00  0.00     0.225 C
BRANCH  33  34
HETATM   34  O2  UNL     1     -27.584  34.820  18.038  1.00  0.00    -0.397 OA
ATOM     35  H2  UNL     1     -27.776  34.942  18.960  1.00  0.00     0.209 HD
ENDBRANCH  33  34
ENDBRANCH  29  33
ENDBRANCH  25  27
ENDBRANCH  10  25
TORSDOF 11
ENDMDL