MODEL 5
REMARK VINA RESULT: -6.107049049      3.825      7.451
REMARK  6 active torsions:
REMARK  status: ('A' for Active; 'I' for Inactive)
REMARK       I    between atoms: N1_1  and  C1_5
REMARK       I    between atoms: C1_5  and  N2_6
REMARK       I    between atoms: C1_5  and  N3_10
REMARK    1  A    between atoms: N3_10  and  N4_11
REMARK       I    between atoms: N4_11  and  C2_13
REMARK    2  A    between atoms: C2_13  and  C3_15
REMARK    3  A    between atoms: C3_15  and  S1_16
REMARK    4  A    between atoms: S1_16  and  C4_17
REMARK    5  A    between atoms: C4_17  and  C5_18
REMARK    6  A    between atoms: C5_18  and  N5_19
ROOT
HETATM    1  C4  UNL     1     -30.581  44.043  22.378  1.00  0.00     0.095 C
ENDROOT
BRANCH   1   2
HETATM    2  S1  UNL     1     -30.823  45.039  23.829  1.00  0.00    -0.158 SA
BRANCH   2   3
HETATM    3  C3  UNL     1     -29.320  45.797  24.416  1.00  0.00     0.177 C
BRANCH   3   4
HETATM    4  C2  UNL     1     -28.826  45.157  25.638  1.00  0.00     0.242 C
HETATM    5  N4  UNL     1     -29.329  43.893  26.041  1.00  0.00    -0.270 N
ATOM      6  H4  UNL     1     -30.040  43.432  25.473  1.00  0.00     0.185 HD
HETATM    7  O1  UNL     1     -27.955  45.710  26.346  1.00  0.00    -0.271 OA
BRANCH   5   8
HETATM    8  N3  UNL     1     -28.879  43.281  27.179  1.00  0.00    -0.078 NA
HETATM    9  C1  UNL     1     -29.971  42.740  27.979  1.00  0.00     0.490 C
HETATM   10  N1  UNL     1     -29.396  42.197  29.185  1.00  0.00    -0.035 N
HETATM   11  N2  UNL     1     -30.983  43.733  28.236  1.00  0.00    -0.035 N
ATOM     12  H13 UNL     1     -29.034  42.940  29.784  1.00  0.00     0.278 HD
ATOM     13  H12 UNL     1     -30.122  41.828  29.800  1.00  0.00     0.278 HD
ATOM     14  H11 UNL     1     -28.680  41.494  29.004  1.00  0.00     0.278 HD
ATOM     15  H23 UNL     1     -31.709  43.364  28.851  1.00  0.00     0.278 HD
ATOM     16  H22 UNL     1     -30.621  44.476  28.835  1.00  0.00     0.278 HD
ATOM     17  H21 UNL     1     -31.389  44.118  27.384  1.00  0.00     0.278 HD
ENDBRANCH   5   8
ENDBRANCH   3   4
ENDBRANCH   2   3
ENDBRANCH   1   2
BRANCH   1  18
HETATM   18  C5  UNL     1     -29.395  43.130  22.379  1.00  0.00     0.147 C
BRANCH  18  19
HETATM   19  N5  UNL     1     -29.904  41.766  22.177  1.00  0.00    -0.264 N
HETATM   20  C6  UNL     1     -30.505  41.235  23.248  1.00  0.00     0.332 C
HETATM   21  O2  UNL     1     -30.148  41.619  24.390  1.00  0.00    -0.246 OA
HETATM   22  N6  UNL     1     -31.492  40.297  23.274  1.00  0.00    -0.273 N
HETATM   23  C7  UNL     1     -31.874  39.435  22.324  1.00  0.00     0.278 C
ATOM     24  H6  UNL     1     -32.018  40.244  24.146  1.00  0.00     0.173 HD
HETATM   25  O3  UNL     1     -32.732  38.562  22.630  1.00  0.00    -0.265 OA
HETATM   26  C8  UNL     1     -31.421  39.403  21.021  1.00  0.00     0.134 A
HETATM   27  N7  UNL     1     -31.888  38.529  20.123  1.00  0.00    -0.346 N
HETATM   28  C10 UNL     1     -30.468  40.193  20.419  1.00  0.00     0.135 A
HETATM   29  C9  UNL     1     -31.250  38.754  18.970  1.00  0.00     0.181 A
ATOM     30  H7  UNL     1     -32.601  37.819  20.289  1.00  0.00     0.167 HD
HETATM   31  N8  UNL     1     -30.392  39.760  19.153  1.00  0.00    -0.346 N
ATOM     32  H8  UNL     1     -29.774  40.142  18.437  1.00  0.00     0.167 HD
HETATM   33  C11 UNL     1     -29.732  41.223  20.972  1.00  0.00     0.281 C
HETATM   34  O4  UNL     1     -28.820  41.679  20.261  1.00  0.00    -0.265 OA
ENDBRANCH  18  19
ENDBRANCH   1  18
TORSDOF 6
ENDMDL