MODEL 5
REMARK VINA RESULT: -4.989619271      5.826      9.369
REMARK  12 active torsions:
REMARK  status: ('A' for Active; 'I' for Inactive)
REMARK    1  A    between atoms: N1_1  and  O1_4
REMARK    2  A    between atoms: O1_4  and  C1_5
REMARK    3  A    between atoms: C1_5  and  O2_6
REMARK    4  A    between atoms: C1_5  and  C2_8
REMARK    5  A    between atoms: C3_9  and  O3_10
REMARK    6  A    between atoms: N3_18  and  C6_19
REMARK    7  A    between atoms: C6_19  and  C7_20
REMARK    8  A    between atoms: C7_20  and  C8_21
REMARK    9  A    between atoms: C8_21  and  C9_22
REMARK   10  A    between atoms: C9_22  and  N4_23
REMARK   11  A    between atoms: N4_23  and  S1_25
REMARK   12  A    between atoms: S1_25  and  N5_26
ROOT
HETATM    1  C2  UNL     1     -30.011  41.219  21.847  1.00  0.00     0.123 A
HETATM    2  C3  UNL     1     -29.866  39.856  21.493  1.00  0.00     0.171 A
HETATM    3  N2  UNL     1     -30.810  38.948  21.774  1.00  0.00    -0.298 N
ATOM      4  H2  UNL     1     -30.694  37.968  21.515  1.00  0.00     0.171 HD
HETATM    5  C4  UNL     1     -31.916  39.372  22.408  1.00  0.00     0.315 A
HETATM    6  O4  UNL     1     -32.831  38.525  22.687  1.00  0.00    -0.262 OA
HETATM    7  C5  UNL     1     -32.084  40.684  22.763  1.00  0.00     0.316 A
HETATM    8  O5  UNL     1     -33.150  41.024  23.361  1.00  0.00    -0.262 OA
HETATM    9  N3  UNL     1     -31.117  41.609  22.474  1.00  0.00    -0.305 N
ENDROOT
BRANCH   9  10
HETATM   10  C6  UNL     1     -31.340  42.955  22.844  1.00  0.00     0.133 C
BRANCH  10  11
HETATM   11  C7  UNL     1     -30.736  43.363  24.164  1.00  0.00     0.022 C
BRANCH  11  12
HETATM   12  C8  UNL     1     -31.858  43.904  25.030  1.00  0.00     0.022 C
BRANCH  12  13
HETATM   13  C9  UNL     1     -32.157  42.893  26.139  1.00  0.00     0.133 C
BRANCH  13  14
HETATM   14  N4  UNL     1     -30.921  42.162  26.363  1.00  0.00    -0.303 N
ATOM     15  H4  UNL     1     -30.607  41.396  25.768  1.00  0.00     0.173 HD
BRANCH  14  16
HETATM   16  S1  UNL     1     -30.047  42.712  27.718  1.00  0.00     0.312 S
HETATM   17  O6  UNL     1     -28.723  43.287  27.265  1.00  0.00    -0.183 OA
HETATM   18  O7  UNL     1     -29.815  41.622  28.736  1.00  0.00    -0.183 OA
BRANCH  16  19
HETATM   19  N5  UNL     1     -30.869  43.996  28.557  1.00  0.00    -0.312 N
ATOM     20  H52 UNL     1     -31.871  43.982  28.751  1.00  0.00     0.170 HD
ATOM     21  H51 UNL     1     -30.237  44.750  28.827  1.00  0.00     0.170 HD
ENDBRANCH  16  19
ENDBRANCH  14  16
ENDBRANCH  13  14
ENDBRANCH  12  13
ENDBRANCH  11  12
ENDBRANCH  10  11
ENDBRANCH   9  10
BRANCH   1  22
HETATM   22  C1  UNL     1     -28.867  42.055  21.493  1.00  0.00     0.341 C
BRANCH  22  23
HETATM   23  O1  UNL     1     -28.525  42.171  20.162  1.00  0.00    -0.248 OA
BRANCH  23  24
HETATM   24  N1  UNL     1     -27.225  41.740  20.048  1.00  0.00    -0.308 N
ATOM     25  H12 UNL     1     -26.506  41.815  20.768  1.00  0.00     0.184 HD
ATOM     26  H11 UNL     1     -27.129  41.340  19.116  1.00  0.00     0.184 HD
ENDBRANCH  23  24
ENDBRANCH  22  23
BRANCH  22  27
HETATM   27  O2  UNL     1     -27.673  41.567  22.093  1.00  0.00    -0.364 OA
ATOM     28  H2  UNL     1     -27.739  41.875  22.989  1.00  0.00     0.213 HD
ENDBRANCH  22  27
ENDBRANCH   1  22
BRANCH   2  29
HETATM   29  O3  UNL     1     -28.729  39.411  20.838  1.00  0.00    -0.344 OA
ATOM     30  H3  UNL     1     -28.434  39.830  20.038  1.00  0.00     0.219 HD
ENDBRANCH   2  29
TORSDOF 12
ENDMDL