MODEL 2
REMARK VINA RESULT: -5.219716469      1.957      6.569
REMARK  8 active torsions:
REMARK  status: ('A' for Active; 'I' for Inactive)
REMARK    1  A    between atoms: N1_1  and  C1_5
REMARK    2  A    between atoms: C1_5  and  C2_6
REMARK    3  A    between atoms: C2_6  and  C3_7
REMARK    4  A    between atoms: C3_7  and  C4_8
REMARK    5  A    between atoms: C4_8  and  C5_9
REMARK    6  A    between atoms: C5_9  and  N2_10
REMARK    7  A    between atoms: C5_9  and  C12_31
REMARK    8  A    between atoms: N2_10  and  C6_12
ROOT
HETATM    1  C6  UNL     1     -30.716  42.284  23.220  1.00  0.00     0.377 C
HETATM    2  N3  UNL     1     -30.602  42.064  24.667  1.00  0.00    -0.001 N
ATOM      3  H31 UNL     1     -29.752  41.562  24.920  1.00  0.00     0.284 HD
ATOM      4  H32 UNL     1     -31.276  41.381  25.013  1.00  0.00     0.284 HD
HETATM    5  C7  UNL     1     -30.710  43.322  25.327  1.00  0.00     0.364 C
HETATM    6  N4  UNL     1     -31.197  44.274  24.346  1.00  0.00    -0.309 N
ATOM      7  H4  UNL     1     -31.686  45.148  24.537  1.00  0.00     0.166 HD
HETATM    8  C8  UNL     1     -30.856  43.745  23.051  1.00  0.00     0.270 C
HETATM    9  O1  UNL     1     -30.735  44.503  22.063  1.00  0.00    -0.269 OA
HETATM   10  C9  UNL     1     -31.611  43.341  26.485  1.00  0.00     0.291 C
HETATM   11  O2  UNL     1     -32.771  43.846  26.429  1.00  0.00    -0.268 OA
HETATM   12  N5  UNL     1     -31.133  42.766  27.703  1.00  0.00    -0.297 N
ATOM     13  H5  UNL     1     -31.794  42.418  28.397  1.00  0.00     0.171 HD
HETATM   14  C10 UNL     1     -29.866  42.687  27.924  1.00  0.00     0.197 C
HETATM   15  N6  UNL     1     -29.440  42.109  29.145  1.00  0.00    -0.063 NA
HETATM   16  N7  UNL     1     -28.893  43.145  27.016  1.00  0.00    -0.297 N
ATOM     17  H7  UNL     1     -27.898  43.065  27.226  1.00  0.00     0.171 HD
HETATM   18  C11 UNL     1     -29.341  43.720  25.797  1.00  0.00     0.291 C
HETATM   19  O3  UNL     1     -28.614  44.537  25.136  1.00  0.00    -0.268 OA
ENDROOT
BRANCH   1  20
HETATM   20  N2  UNL     1     -29.544  41.825  22.637  1.00  0.00    -0.376 N
ATOM     21  H2  UNL     1     -28.677  42.311  22.865  1.00  0.00     0.156 HD
BRANCH  20  22
HETATM   22  C5  UNL     1     -29.471  40.739  21.759  1.00  0.00     0.168 C
BRANCH  22  23
HETATM   23  C4  UNL     1     -30.044  39.454  22.265  1.00  0.00     0.034 C
BRANCH  23  24
HETATM   24  C3  UNL     1     -31.342  39.026  21.659  1.00  0.00     0.004 C
BRANCH  24  25
HETATM   25  C2  UNL     1     -32.536  39.165  22.572  1.00  0.00     0.027 C
BRANCH  25  26
HETATM   26  C1  UNL     1     -33.609  40.006  21.858  1.00  0.00     0.229 C
BRANCH  26  27
HETATM   27  N1  UNL     1     -34.519  39.013  21.279  1.00  0.00    -0.079 N
ATOM     28  H13 UNL     1     -34.929  39.293  20.388  1.00  0.00     0.274 HD
ATOM     29  H12 UNL     1     -34.056  38.175  20.931  1.00  0.00     0.274 HD
ATOM     30  H11 UNL     1     -35.201  38.838  22.017  1.00  0.00     0.274 HD
ENDBRANCH  26  27
ENDBRANCH  25  26
ENDBRANCH  24  25
ENDBRANCH  23  24
ENDBRANCH  22  23
BRANCH  22  31
HETATM   31  C12 UNL     1     -28.009  40.553  21.425  1.00  0.00     0.253 C
HETATM   32  N8  UNL     1     -27.530  39.942  20.253  1.00  0.00    -0.060 NA
HETATM   33  O4  UNL     1     -27.160  40.978  22.255  1.00  0.00    -0.275 OA
ENDBRANCH  22  31
ENDBRANCH  20  22
ENDBRANCH   1  20
TORSDOF 8
ENDMDL