MODEL 2
REMARK VINA RESULT: -4.982743746      2.807      5.513
REMARK  12 active torsions:
REMARK  status: ('A' for Active; 'I' for Inactive)
REMARK    1  A    between atoms: N1_1  and  C1_4
REMARK    2  A    between atoms: N3_9  and  C3_10
REMARK    3  A    between atoms: C3_10  and  C4_11
REMARK    4  A    between atoms: C4_11  and  C5_12
REMARK    5  A    between atoms: C5_12  and  C6_13
REMARK    6  A    between atoms: C6_13  and  N4_14
REMARK    7  A    between atoms: C6_13  and  C7_18
REMARK    8  A    between atoms: C7_18  and  C8_20
REMARK    9  A    between atoms: C8_20  and  N5_21
REMARK       I    between atoms: N6_25  and  C9_27
REMARK   10  A    between atoms: C9_27  and  C10_29
REMARK   11  A    between atoms: C10_29  and  N7_30
REMARK   12  A    between atoms: C10_29  and  C11_34
ROOT
HETATM    1  C3  UNL     1     -31.731  42.566  25.142  1.00  0.00     0.111 C
HETATM    2  N6  UNL     1     -32.946  42.171  25.148  1.00  0.00    -0.313 N
ATOM      3  H6  UNL     1     -33.392  42.047  26.057  1.00  0.00     0.170 HD
HETATM    4  C9  UNL     1     -33.728  41.889  24.003  1.00  0.00     0.254 C
HETATM    5  O3  UNL     1     -33.442  40.891  23.299  1.00  0.00    -0.271 OA
ENDROOT
BRANCH   1   6
HETATM    6  N3  UNL     1     -31.070  42.811  26.401  1.00  0.00    -0.178 N
HETATM    7  C2  UNL     1     -30.897  44.023  26.975  1.00  0.00     0.361 A
HETATM    8  N2  UNL     1     -30.237  43.786  28.127  1.00  0.00    -0.139 N
HETATM    9  O1  UNL     1     -31.276  45.142  26.522  1.00  0.00    -0.244 OA
HETATM   10  C1  UNL     1     -30.000  42.472  28.279  1.00  0.00     0.695 A
ATOM     11  H2  UNL     1     -29.955  44.507  28.792  1.00  0.00     0.189 HD
HETATM   12  N8  UNL     1     -30.530  41.891  27.188  1.00  0.00    -0.120 N
ATOM     13  H8  UNL     1     -30.520  40.890  26.995  1.00  0.00     0.206 HD
BRANCH  10  14
HETATM   14  N1  UNL     1     -29.382  41.902  29.283  1.00  0.00    -0.233 N
ATOM     15  H12 UNL     1     -29.662  41.875  30.264  1.00  0.00     0.174 HD
ATOM     16  H11 UNL     1     -28.504  41.385  29.240  1.00  0.00     0.174 HD
ENDBRANCH  10  14
ENDBRANCH   1   6
BRANCH   1  17
HETATM   17  C4  UNL     1     -30.973  42.782  23.882  1.00  0.00     0.081 C
BRANCH  17  18
HETATM   18  C5  UNL     1     -29.958  41.700  23.717  1.00  0.00     0.048 C
BRANCH  18  19
HETATM   19  C6  UNL     1     -30.169  40.804  22.523  1.00  0.00     0.254 C
BRANCH  19  20
HETATM   20  N4  UNL     1     -30.940  39.661  23.059  1.00  0.00    -0.068 N
ATOM     21  H43 UNL     1     -30.872  39.548  24.071  1.00  0.00     0.275 HD
ATOM     22  H42 UNL     1     -31.952  39.788  23.029  1.00  0.00     0.275 HD
ATOM     23  H41 UNL     1     -30.602  38.860  22.525  1.00  0.00     0.275 HD
ENDBRANCH  19  20
BRANCH  19  24
HETATM   24  C7  UNL     1     -28.925  40.334  21.894  1.00  0.00     0.182 C
HETATM   25  O2  UNL     1     -28.924  39.404  21.114  1.00  0.00    -0.294 OA
BRANCH  24  26
HETATM   26  C8  UNL     1     -27.633  40.988  22.199  1.00  0.00     0.309 C
BRANCH  26  27
HETATM   27  N5  UNL     1     -26.520  40.174  21.750  1.00  0.00    -0.073 N
ATOM     28  H53 UNL     1     -26.720  39.178  21.845  1.00  0.00     0.274 HD
ATOM     29  H52 UNL     1     -26.409  40.213  20.737  1.00  0.00     0.274 HD
ATOM     30  H51 UNL     1     -25.659  40.432  22.233  1.00  0.00     0.274 HD
ENDBRANCH  26  27
ENDBRANCH  24  26
ENDBRANCH  19  24
ENDBRANCH  18  19
ENDBRANCH  17  18
ENDBRANCH   1  17
BRANCH   4  31
HETATM   31  C10 UNL     1     -34.875  42.737  23.611  1.00  0.00     0.285 C
BRANCH  31  32
HETATM   32  N7  UNL     1     -35.769  41.973  22.767  1.00  0.00    -0.066 N
ATOM     33  H73 UNL     1     -35.746  42.287  21.796  1.00  0.00     0.275 HD
ATOM     34  H72 UNL     1     -35.440  41.019  22.619  1.00  0.00     0.275 HD
ATOM     35  H71 UNL     1     -36.710  42.000  23.160  1.00  0.00     0.275 HD
ENDBRANCH  31  32
BRANCH  31  36
HETATM   36  C11 UNL     1     -34.393  44.002  22.890  1.00  0.00     0.129 C
HETATM   37  S1  UNL     1     -34.338  45.377  24.062  1.00  0.00    -0.095 SA
ENDBRANCH  31  36
ENDBRANCH   4  31
TORSDOF 12
ENDMDL