MODEL 5
REMARK VINA RESULT: -5.474813470      3.805      6.165
REMARK  10 active torsions:
REMARK  status: ('A' for Active; 'I' for Inactive)
REMARK    1  A    between atoms: N1_1  and  C1_4
REMARK    2  A    between atoms: C2_10  and  C3_11
REMARK    3  A    between atoms: C3_11  and  C4_13
REMARK    4  A    between atoms: C4_13  and  C5_14
REMARK    5  A    between atoms: C6_18  and  C7_19
REMARK    6  A    between atoms: C7_19  and  S1_20
REMARK    7  A    between atoms: S1_20  and  N5_21
REMARK    8  A    between atoms: S1_20  and  N6_24
REMARK    9  A    between atoms: C8_31  and  N8_32
REMARK   10  A    between atoms: N8_32  and  C9_34
ROOT
HETATM    1  C5  UNL     1     -26.921  40.364  19.134  1.00  0.00     0.245 C
HETATM    2  N4  UNL     1     -27.210  40.840  20.467  1.00  0.00    -0.037 N
ATOM      3  H41 UNL     1     -26.385  41.156  20.976  1.00  0.00     0.280 HD
ATOM      4  H42 UNL     1     -27.478  40.100  21.116  1.00  0.00     0.280 HD
HETATM    5  C6  UNL     1     -28.215  41.858  20.309  1.00  0.00     0.399 C
HETATM    6  N7  UNL     1     -28.971  41.502  19.137  1.00  0.00    -0.022 N
ATOM      7  H71 UNL     1     -29.205  42.308  18.558  1.00  0.00     0.282 HD
ATOM      8  H72 UNL     1     -29.924  41.211  19.354  1.00  0.00     0.282 HD
HETATM    9  C8  UNL     1     -28.228  40.496  18.422  1.00  0.00     0.319 C
ENDROOT
BRANCH   1  10
HETATM   10  C4  UNL     1     -25.865  41.297  18.555  1.00  0.00     0.122 C
BRANCH  10  11
HETATM   11  C3  UNL     1     -24.550  40.648  18.727  1.00  0.00     0.183 C
HETATM   12  O2  UNL     1     -24.078  40.360  19.859  1.00  0.00    -0.291 OA
BRANCH  11  13
HETATM   13  C2  UNL     1     -23.764  40.328  17.520  1.00  0.00     0.147 A
HETATM   14  C1  UNL     1     -22.397  40.163  17.434  1.00  0.00     0.153 A
HETATM   15  N2  UNL     1     -22.126  39.883  16.143  1.00  0.00    -0.224 N
HETATM   16  O1  UNL     1     -23.235  39.872  15.468  1.00  0.00    -0.155 OA
ATOM     17  H2  UNL     1     -21.197  39.707  15.758  1.00  0.00     0.198 HD
HETATM   18  N3  UNL     1     -24.230  40.138  16.277  1.00  0.00    -0.234 N
ATOM     19  H3  UNL     1     -25.211  40.191  16.003  1.00  0.00     0.197 HD
BRANCH  14  20
HETATM   20  N1  UNL     1     -21.582  40.266  18.421  1.00  0.00    -0.382 N
ATOM     21  H12 UNL     1     -20.912  39.549  18.701  1.00  0.00     0.157 HD
ATOM     22  H11 UNL     1     -21.463  41.042  19.071  1.00  0.00     0.157 HD
ENDBRANCH  14  20
ENDBRANCH  11  13
ENDBRANCH  10  11
ENDBRANCH   1  10
BRANCH   9  23
HETATM   23  N8  UNL     1     -28.933  39.239  18.514  1.00  0.00    -0.339 N
ATOM     24  H8  UNL     1     -28.564  38.497  19.109  1.00  0.00     0.164 HD
BRANCH  23  25
HETATM   25  C9  UNL     1     -30.133  39.024  17.787  1.00  0.00     0.350 C
HETATM   26  O4  UNL     1     -31.156  39.697  18.069  1.00  0.00    -0.284 OA
ENDBRANCH  23  25
ENDBRANCH   9  23
BRANCH   5  27
HETATM   27  C7  UNL     1     -29.043  41.941  21.548  1.00  0.00     0.201 C
BRANCH  27  28
HETATM   28  S1  UNL     1     -30.043  40.492  21.791  1.00  0.00     0.102 S
HETATM   29  O3  UNL     1     -29.322  39.236  21.442  1.00  0.00    -0.229 OA
BRANCH  28  30
HETATM   30  N5  UNL     1     -31.308  40.580  20.892  1.00  0.00    -0.345 N
ATOM     31  H52 UNL     1     -32.076  39.909  20.907  1.00  0.00     0.167 HD
ATOM     32  H51 UNL     1     -31.243  41.406  20.296  1.00  0.00     0.167 HD
ENDBRANCH  28  30
BRANCH  28  33
HETATM   33  N6  UNL     1     -30.574  40.367  23.422  1.00  0.00    -0.345 N
ATOM     34  H62 UNL     1     -30.241  39.652  24.070  1.00  0.00     0.167 HD
ATOM     35  H61 UNL     1     -31.255  41.092  23.646  1.00  0.00     0.167 HD
ENDBRANCH  28  33
ENDBRANCH  27  28
ENDBRANCH   5  27
TORSDOF 10
ENDMDL