MODEL 2
REMARK VINA RESULT: -5.417578175      2.365      3.754
REMARK  12 active torsions:
REMARK  status: ('A' for Active; 'I' for Inactive)
REMARK    1  A    between atoms: N1_1  and  C1_5
REMARK    2  A    between atoms: C1_5  and  C2_6
REMARK    3  A    between atoms: C2_6  and  C3_7
REMARK    4  A    between atoms: C3_7  and  N2_8
REMARK    5  A    between atoms: N2_8  and  N3_9
REMARK    6  A    between atoms: N2_8  and  C9_26
REMARK    7  A    between atoms: N3_9  and  C4_11
REMARK    8  A    between atoms: C4_11  and  C5_12
REMARK    9  A    between atoms: C7_16  and  N5_17
REMARK   10  A    between atoms: N5_17  and  N6_19
REMARK       I    between atoms: N6_19  and  C8_21
REMARK   11  A    between atoms: C9_26  and  O2_27
REMARK   12  A    between atoms: C9_26  and  C10_29
ROOT
HETATM    1  N2  UNL     1     -29.847  42.123  22.847  1.00  0.00    -0.269 N
ENDROOT
BRANCH   1   2
HETATM    2  C3  UNL     1     -31.018  42.275  22.051  1.00  0.00     0.153 C
BRANCH   2   3
HETATM    3  C2  UNL     1     -32.297  41.936  22.778  1.00  0.00     0.049 C
BRANCH   3   4
HETATM    4  C1  UNL     1     -32.764  40.560  22.321  1.00  0.00     0.231 C
BRANCH   4   5
HETATM    5  N1  UNL     1     -32.239  39.506  23.138  1.00  0.00    -0.079 N
ATOM      6  H13 UNL     1     -31.288  39.715  23.440  1.00  0.00     0.274 HD
ATOM      7  H12 UNL     1     -32.698  39.483  24.048  1.00  0.00     0.274 HD
ATOM      8  H11 UNL     1     -32.288  38.597  22.678  1.00  0.00     0.274 HD
ENDBRANCH   4   5
ENDBRANCH   3   4
ENDBRANCH   2   3
ENDBRANCH   1   2
BRANCH   1   9
HETATM    9  N3  UNL     1     -28.998  41.050  22.541  1.00  0.00    -0.309 N
ATOM     10  H3  UNL     1     -28.351  40.667  23.230  1.00  0.00     0.186 HD
BRANCH   9  11
HETATM   11  C4  UNL     1     -29.082  40.526  21.236  1.00  0.00     0.107 C
BRANCH  11  12
HETATM   12  C5  UNL     1     -27.890  40.923  20.374  1.00  0.00     0.142 C
HETATM   13  C6  UNL     1     -27.797  40.060  19.142  1.00  0.00     0.153 C
HETATM   14  N4  UNL     1     -26.384  39.993  18.886  1.00  0.00    -0.359 N
HETATM   15  C7  UNL     1     -25.732  40.321  19.942  1.00  0.00     0.191 C
ATOM     16  H4  UNL     1     -25.962  39.724  17.997  1.00  0.00     0.162 HD
HETATM   17  N8  UNL     1     -26.623  40.648  20.998  1.00  0.00    -0.350 N
ATOM     18  H8  UNL     1     -26.409  40.682  21.995  1.00  0.00     0.163 HD
BRANCH  15  19
HETATM   19  N5  UNL     1     -24.300  40.337  19.960  1.00  0.00    -0.268 N
ATOM     20  H5  UNL     1     -23.839  40.955  20.628  1.00  0.00     0.190 HD
BRANCH  19  21
HETATM   21  N6  UNL     1     -23.497  39.567  19.126  1.00  0.00    -0.251 N
HETATM   22  C8  UNL     1     -22.788  40.062  17.999  1.00  0.00     0.347 C
HETATM   23  N7  UNL     1     -21.995  39.182  17.216  1.00  0.00    -0.038 NA
HETATM   24  O1  UNL     1     -22.814  41.264  17.638  1.00  0.00    -0.249 OA
ATOM     25  H6  UNL     1     -23.410  38.573  19.340  1.00  0.00     0.191 HD
ENDBRANCH  19  21
ENDBRANCH  15  19
ENDBRANCH  11  12
ENDBRANCH   9  11
ENDBRANCH   1   9
BRANCH   1  26
HETATM   26  C9  UNL     1     -29.450  42.953  23.905  1.00  0.00     0.202 C
BRANCH  26  27
HETATM   27  O2  UNL     1     -28.761  43.992  23.525  1.00  0.00    -0.342 OA
ATOM     28  H2  UNL     1     -28.146  43.806  22.825  1.00  0.00     0.219 HD
ENDBRANCH  26  27
BRANCH  26  29
HETATM   29  C10 UNL     1     -29.708  42.803  25.318  1.00  0.00     0.150 C
HETATM   30  N9  UNL     1     -29.017  43.529  26.196  1.00  0.00    -0.371 N
HETATM   31  C11 UNL     1     -29.427  43.228  27.528  1.00  0.00     0.141 C
ATOM     32  H9  UNL     1     -28.296  44.206  25.950  1.00  0.00     0.161 HD
HETATM   33  C12 UNL     1     -30.852  42.707  27.328  1.00  0.00     0.141 C
HETATM   34  N10 UNL     1     -30.621  42.009  26.039  1.00  0.00    -0.371 N
ATOM     35  H10 UNL     1     -31.040  41.130  25.736  1.00  0.00     0.161 HD
ENDBRANCH  26  29
ENDBRANCH   1  26
TORSDOF 12
ENDMDL