MODEL 5
REMARK VINA RESULT: -4.796046535      2.185      6.844
REMARK  12 active torsions:
REMARK  status: ('A' for Active; 'I' for Inactive)
REMARK    1  A    between atoms: N1_1  and  C1_5
REMARK    2  A    between atoms: C1_5  and  C2_6
REMARK       I    between atoms: C2_6  and  N2_8
REMARK    3  A    between atoms: N2_8  and  C3_10
REMARK    4  A    between atoms: C3_10  and  C4_11
REMARK    5  A    between atoms: C4_11  and  N3_12
REMARK    6  A    between atoms: N3_12  and  C5_14
REMARK    7  A    between atoms: C8_21  and  N6_22
REMARK    8  A    between atoms: N6_22  and  C9_24
REMARK    9  A    between atoms: C9_24  and  O2_25
REMARK   10  A    between atoms: C9_24  and  C10_27
REMARK   11  A    between atoms: C10_27  and  N7_28
REMARK   12  A    between atoms: C10_27  and  N8_32
ROOT
HETATM    1  C5  UNL     1     -32.163  41.331  21.355  1.00  0.00     0.135 A
HETATM    2  N4  UNL     1     -33.306  40.984  21.968  1.00  0.00    -0.337 N
ATOM      3  H4  UNL     1     -34.098  40.659  21.412  1.00  0.00     0.168 HD
HETATM    4  C6  UNL     1     -33.421  41.060  23.319  1.00  0.00     0.182 A
HETATM    5  N5  UNL     1     -32.406  41.482  24.086  1.00  0.00    -0.347 N
ATOM      6  H5  UNL     1     -32.526  41.527  25.097  1.00  0.00     0.167 HD
HETATM    7  C7  UNL     1     -31.250  41.841  23.551  1.00  0.00     0.108 A
HETATM    8  C8  UNL     1     -30.241  42.265  24.383  1.00  0.00     0.133 A
HETATM    9  N9  UNL     1     -29.068  42.624  23.776  1.00  0.00    -0.337 N
ATOM     10  H9  UNL     1     -28.286  42.948  24.347  1.00  0.00     0.168 HD
HETATM   11  C11 UNL     1     -28.929  42.558  22.441  1.00  0.00     0.182 A
HETATM   12  N10 UNL     1     -29.921  42.140  21.636  1.00  0.00    -0.347 N
ATOM     13  H10 UNL     1     -29.785  42.099  20.626  1.00  0.00     0.167 HD
HETATM   14  C12 UNL     1     -31.098  41.775  22.183  1.00  0.00     0.108 A
ENDROOT
BRANCH   8  15
HETATM   15  N6  UNL     1     -30.356  42.332  25.610  1.00  0.00    -0.345 N
ATOM     16  H6  UNL     1     -30.905  41.549  25.965  1.00  0.00     0.163 HD
BRANCH  15  17
HETATM   17  C9  UNL     1     -29.955  43.164  26.651  1.00  0.00     0.277 C
BRANCH  17  18
HETATM   18  O2  UNL     1     -28.581  43.260  26.874  1.00  0.00    -0.373 OA
ATOM     19  H2  UNL     1     -28.098  43.838  26.295  1.00  0.00     0.212 HD
ENDBRANCH  17  18
BRANCH  17  20
HETATM   20  C10 UNL     1     -30.547  42.681  27.981  1.00  0.00     0.425 C
BRANCH  20  21
HETATM   21  N7  UNL     1     -31.402  43.710  28.535  1.00  0.00    -0.046 N
ATOM     22  H73 UNL     1     -30.919  44.603  28.628  1.00  0.00     0.277 HD
ATOM     23  H72 UNL     1     -32.127  44.003  27.880  1.00  0.00     0.277 HD
ATOM     24  H71 UNL     1     -31.792  43.390  29.422  1.00  0.00     0.277 HD
ENDBRANCH  20  21
BRANCH  20  25
HETATM   25  N8  UNL     1     -29.540  42.352  28.938  1.00  0.00    -0.046 N
ATOM     26  H83 UNL     1     -29.950  42.157  29.852  1.00  0.00     0.277 HD
ATOM     27  H82 UNL     1     -29.133  41.437  28.744  1.00  0.00     0.277 HD
ATOM     28  H81 UNL     1     -28.818  43.070  29.004  1.00  0.00     0.277 HD
ENDBRANCH  20  25
ENDBRANCH  17  20
ENDBRANCH  15  17
ENDBRANCH   8  15
BRANCH   1  29
HETATM   29  N3  UNL     1     -31.917  41.312  20.151  1.00  0.00    -0.352 N
ATOM     30  H3  UNL     1     -31.569  42.237  19.900  1.00  0.00     0.166 HD
BRANCH  29  31
HETATM   31  C4  UNL     1     -31.921  40.550  19.002  1.00  0.00     0.082 C
BRANCH  31  32
HETATM   32  C3  UNL     1     -30.996  39.382  18.890  1.00  0.00     0.167 C
BRANCH  32  33
HETATM   33  N2  UNL     1     -29.666  39.805  18.524  1.00  0.00    -0.355 N
HETATM   34  C2  UNL     1     -28.626  39.823  19.479  1.00  0.00     0.243 C
HETATM   35  O1  UNL     1     -28.734  39.502  20.682  1.00  0.00    -0.272 OA
ATOM     36  H2  UNL     1     -29.476  40.094  17.564  1.00  0.00     0.162 HD
BRANCH  34  37
HETATM   37  C1  UNL     1     -27.234  40.262  19.061  1.00  0.00     0.332 C
BRANCH  37  38
HETATM   38  N1  UNL     1     -26.404  40.555  20.196  1.00  0.00    -0.071 N
ATOM     39  H13 UNL     1     -26.427  39.798  20.879  1.00  0.00     0.274 HD
ATOM     40  H12 UNL     1     -25.414  40.519  19.951  1.00  0.00     0.274 HD
ATOM     41  H11 UNL     1     -26.648  41.448  20.624  1.00  0.00     0.274 HD
ENDBRANCH  37  38
ENDBRANCH  34  37
ENDBRANCH  32  33
ENDBRANCH  31  32
ENDBRANCH  29  31
ENDBRANCH   1  29
TORSDOF 12
ENDMDL