MODEL 4
REMARK VINA RESULT: -4.814911085      3.585      6.140
REMARK  11 active torsions:
REMARK  status: ('A' for Active; 'I' for Inactive)
REMARK    1  A    between atoms: O1_2  and  C2_3
REMARK    2  A    between atoms: C2_3  and  C3_4
REMARK    3  A    between atoms: C2_3  and  N7_28
REMARK    4  A    between atoms: C3_4  and  O2_5
REMARK    5  A    between atoms: C3_4  and  C4_7
REMARK    6  A    between atoms: C4_7  and  N1_8
REMARK    7  A    between atoms: N1_8  and  C5_10
REMARK    8  A    between atoms: C6_13  and  N3_14
REMARK    9  A    between atoms: N7_28  and  C12_30
REMARK   10  A    between atoms: C12_30  and  C13_31
REMARK   11  A    between atoms: C13_31  and  N8_32
ROOT
HETATM    1  C5  UNL     1     -31.219  44.516  27.678  1.00  0.00     0.136 A
HETATM    2  N2  UNL     1     -30.564  43.785  28.585  1.00  0.00    -0.176 N
ATOM      3  H2  UNL     1     -30.410  44.182  29.512  1.00  0.00     0.186 HD
HETATM    4  C6  UNL     1     -30.100  42.548  28.328  1.00  0.00     0.679 A
HETATM    5  N4  UNL     1     -30.297  42.018  27.115  1.00  0.00    -0.176 N
ATOM      6  H4  UNL     1     -29.948  41.082  26.913  1.00  0.00     0.186 HD
HETATM    7  C7  UNL     1     -30.948  42.704  26.158  1.00  0.00     0.141 A
HETATM    8  N5  UNL     1     -31.116  42.131  24.966  1.00  0.00    -0.337 N
ATOM      9  H5  UNL     1     -30.761  41.192  24.784  1.00  0.00     0.168 HD
HETATM   10  C8  UNL     1     -31.762  42.813  24.015  1.00  0.00     0.184 A
HETATM   11  N6  UNL     1     -32.239  44.055  24.243  1.00  0.00    -0.319 N
ATOM     12  H6  UNL     1     -32.728  44.549  23.497  1.00  0.00     0.169 HD
HETATM   13  C9  UNL     1     -32.083  44.645  25.424  1.00  0.00     0.264 A
HETATM   14  O3  UNL     1     -32.501  45.797  25.704  1.00  0.00    -0.267 OA
HETATM   15  C10 UNL     1     -31.420  43.965  26.427  1.00  0.00     0.121 A
ENDROOT
BRANCH   1  16
HETATM   16  N1  UNL     1     -31.681  45.693  27.879  1.00  0.00    -0.372 N
ATOM     17  H1  UNL     1     -31.882  46.270  27.061  1.00  0.00     0.161 HD
BRANCH  16  18
HETATM   18  C4  UNL     1     -31.939  46.262  29.186  1.00  0.00     0.157 C
BRANCH  18  19
HETATM   19  C3  UNL     1     -33.360  45.926  29.585  1.00  0.00     0.184 C
BRANCH  19  20
HETATM   20  C2  UNL     1     -34.023  47.102  30.341  1.00  0.00     0.252 C
BRANCH  20  21
HETATM   21  O1  UNL     1     -33.511  47.026  31.616  1.00  0.00    -0.369 OA
HETATM   22  C1  UNL     1     -32.972  48.220  32.092  1.00  0.00     0.204 C
ENDBRANCH  20  21
BRANCH  20  23
HETATM   23  N7  UNL     1     -35.400  47.034  30.286  1.00  0.00    -0.368 N
HETATM   24  C11 UNL     1     -35.987  46.896  28.973  1.00  0.00     0.151 C
BRANCH  23  25
HETATM   25  C12 UNL     1     -36.290  47.197  31.331  1.00  0.00     0.087 C
BRANCH  25  26
HETATM   26  C13 UNL     1     -36.857  45.899  31.829  1.00  0.00     0.274 C
BRANCH  26  27
HETATM   27  N8  UNL     1     -35.787  45.034  32.322  1.00  0.00    -0.075 N
ATOM     28  H83 UNL     1     -34.986  45.022  31.690  1.00  0.00     0.274 HD
ATOM     29  H82 UNL     1     -35.325  45.429  33.141  1.00  0.00     0.274 HD
ATOM     30  H81 UNL     1     -36.145  44.096  32.501  1.00  0.00     0.274 HD
ENDBRANCH  26  27
ENDBRANCH  25  26
ENDBRANCH  23  25
ENDBRANCH  20  23
ENDBRANCH  19  20
BRANCH  19  31
HETATM   31  O2  UNL     1     -33.258  44.829  30.441  1.00  0.00    -0.390 OA
ATOM     32  H2  UNL     1     -33.073  44.051  29.930  1.00  0.00     0.210 HD
ENDBRANCH  19  31
ENDBRANCH  18  19
ENDBRANCH  16  18
ENDBRANCH   1  16
BRANCH   4  33
HETATM   33  N3  UNL     1     -29.470  41.879  29.253  1.00  0.00    -0.234 N
ATOM     34  H32 UNL     1     -29.535  42.156  30.232  1.00  0.00     0.174 HD
ATOM     35  H31 UNL     1     -28.903  41.069  29.004  1.00  0.00     0.174 HD
ENDBRANCH   4  33
TORSDOF 11
ENDMDL