MODEL 5
REMARK VINA RESULT: -4.924773697      1.903      2.478
REMARK  5 active torsions:
REMARK  status: ('A' for Active; 'I' for Inactive)
REMARK    1  A    between atoms: N2_4  and  N3_6
REMARK    2  A    between atoms: C1_8  and  C2_9
REMARK    3  A    between atoms: C2_9  and  O1_10
REMARK    4  A    between atoms: O1_10  and  C3_11
REMARK    5  A    between atoms: C5_13  and  N4_14
REMARK       I    between atoms: N4_14  and  C6_16
ROOT
HETATM    1  C3  UNL     1      22.554   5.416  29.148  1.00  0.00     0.146 A
HETATM    2  C4  UNL     1      24.044   5.499  28.794  1.00  0.00     0.061 A
HETATM    3  C5  UNL     1      23.237   6.720  29.063  1.00  0.00     0.115 A
ENDROOT
BRANCH   1   4
HETATM    4  O1  UNL     1      21.786   4.912  28.132  1.00  0.00    -0.379 OA
BRANCH   4   5
HETATM    5  C2  UNL     1      20.672   4.256  28.655  1.00  0.00     0.214 C
BRANCH   5   6
HETATM    6  C1  UNL     1      20.877   2.790  28.649  1.00  0.00     0.107 C
HETATM    7  N3  UNL     1      20.703   2.139  27.560  1.00  0.00    -0.300 N
ATOM      8  H3  UNL     1      20.839   1.129  27.537  1.00  0.00     0.187 HD
BRANCH   7   9
HETATM    9  N2  UNL     1      20.326   2.824  26.409  1.00  0.00    -0.250 N
HETATM   10  N1  UNL     1      20.024   2.274  25.306  1.00  0.00    -0.331 N
ATOM     11  H12 UNL     1      20.065   1.255  25.279  1.00  0.00     0.178 HD
ATOM     12  H11 UNL     1      19.747   2.776  24.462  1.00  0.00     0.178 HD
ATOM     13  H2  UNL     1      20.290   3.842  26.456  1.00  0.00     0.207 HD
ENDBRANCH   7   9
ENDBRANCH   5   6
ENDBRANCH   4   5
ENDBRANCH   1   4
BRANCH   3  14
HETATM   14  N4  UNL     1      23.004   7.642  27.990  1.00  0.00    -0.358 N
HETATM   15  C6  UNL     1      23.451   8.971  28.110  1.00  0.00     0.182 C
HETATM   16  N5  UNL     1      22.775   9.895  27.486  1.00  0.00    -0.374 N
HETATM   17  N6  UNL     1      24.592   9.313  28.879  1.00  0.00    -0.064 NA
ATOM     18  H52 UNL     1      21.954   9.650  26.933  1.00  0.00     0.158 HD
ATOM     19  H51 UNL     1      23.099  10.859  27.573  1.00  0.00     0.158 HD
ATOM     20  H4  UNL     1      22.519   7.337  27.146  1.00  0.00     0.162 HD
ENDBRANCH   3  14
TORSDOF 5
ENDMDL