MODEL 5
REMARK VINA RESULT: -4.688422546      0.956      1.043
REMARK  6 active torsions:
REMARK  status: ('A' for Active; 'I' for Inactive)
REMARK    1  A    between atoms: C3_6  and  C4_7
REMARK    2  A    between atoms: C4_7  and  C5_8
REMARK    3  A    between atoms: C5_8  and  N3_9
REMARK    4  A    between atoms: N3_9  and  C6_12
REMARK    5  A    between atoms: C6_12  and  C7_13
REMARK    6  A    between atoms: C7_13  and  N4_14
ROOT
HETATM    1  C5  UNL     1      21.229   2.746  29.546  1.00  0.00     0.238 C
ENDROOT
BRANCH   1   2
HETATM    2  C4  UNL     1      21.290   4.105  30.146  1.00  0.00     0.086 C
BRANCH   2   3
HETATM    3  C3  UNL     1      21.934   5.113  29.296  1.00  0.00     0.027 A
HETATM    4  N2  UNL     1      21.857   5.317  27.972  1.00  0.00    -0.354 N
HETATM    5  C2  UNL     1      22.625   6.364  27.627  1.00  0.00     0.182 A
ATOM      6  H2  UNL     1      21.298   4.760  27.325  1.00  0.00     0.166 HD
HETATM    7  N1  UNL     1      23.207   6.851  28.710  1.00  0.00    -0.355 N
HETATM    8  C1  UNL     1      24.122   7.970  28.856  1.00  0.00     0.156 C
HETATM    9  C9  UNL     1      22.792   6.090  29.752  1.00  0.00     0.116 A
ENDBRANCH   2   3
ENDBRANCH   1   2
BRANCH   1  10
HETATM   10  N3  UNL     1      19.959   2.105  29.563  1.00  0.00    -0.073 N
ATOM     11  H32 UNL     1      20.061   1.114  29.781  1.00  0.00     0.277 HD
ATOM     12  H31 UNL     1      19.417   2.407  30.373  1.00  0.00     0.277 HD
BRANCH  10  13
HETATM   13  C6  UNL     1      19.191   2.279  28.347  1.00  0.00     0.251 C
BRANCH  13  14
HETATM   14  C7  UNL     1      20.086   1.982  27.148  1.00  0.00     0.147 C
BRANCH  14  15
HETATM   15  N4  UNL     1      19.626   2.580  25.935  1.00  0.00    -0.386 N
HETATM   16  C8  UNL     1      18.544   3.268  25.830  1.00  0.00     0.185 C
HETATM   17  N5  UNL     1      18.114   3.848  24.609  1.00  0.00    -0.097 NA
ATOM     18  H4  UNL     1      20.192   2.453  25.096  1.00  0.00     0.159 HD
ENDBRANCH  14  15
ENDBRANCH  13  14
ENDBRANCH  10  13
ENDBRANCH   1  10
TORSDOF 6
ENDMDL