MODEL 3
REMARK VINA RESULT: -5.254030832      1.272      1.744
REMARK  5 active torsions:
REMARK  status: ('A' for Active; 'I' for Inactive)
REMARK    1  A    between atoms: N2_4  and  N3_6
REMARK    2  A    between atoms: C4_14  and  C5_15
REMARK    3  A    between atoms: C5_15  and  C6_16
REMARK    4  A    between atoms: C6_16  and  N5_17
REMARK    5  A    between atoms: N5_17  and  C7_19
ROOT
HETATM    1  N3  UNL     1      20.168   1.794  26.797  1.00  0.00    -0.285 N
ATOM      2  H3  UNL     1      20.337   0.801  26.641  1.00  0.00     0.188 HD
HETATM    3  C1  UNL     1      20.182   2.232  28.007  1.00  0.00     0.104 A
HETATM    4  C2  UNL     1      20.421   1.417  29.187  1.00  0.00     0.269 A
HETATM    5  O1  UNL     1      20.654   0.169  29.142  1.00  0.00    -0.266 OA
HETATM    6  N4  UNL     1      20.342   2.272  30.297  1.00  0.00    -0.335 N
ATOM      7  H4  UNL     1      20.470   1.960  31.260  1.00  0.00     0.168 HD
HETATM    8  C3  UNL     1      20.093   3.477  29.976  1.00  0.00     0.075 A
HETATM    9  C4  UNL     1      19.969   3.595  28.512  1.00  0.00     0.083 A
ENDROOT
BRANCH   9  10
HETATM   10  C5  UNL     1      21.121   4.473  28.061  1.00  0.00     0.036 C
BRANCH  10  11
HETATM   11  C6  UNL     1      21.945   4.820  29.269  1.00  0.00     0.121 C
BRANCH  11  12
HETATM   12  N5  UNL     1      23.320   4.482  28.999  1.00  0.00    -0.386 N
ATOM     13  H5  UNL     1      23.888   5.042  28.363  1.00  0.00     0.160 HD
BRANCH  12  14
HETATM   14  C7  UNL     1      23.856   3.336  29.654  1.00  0.00     0.168 C
HETATM   15  N6  UNL     1      23.834   2.211  29.069  1.00  0.00    -0.396 N
ATOM     16  H62 UNL     1      23.430   2.144  28.134  1.00  0.00     0.156 HD
ATOM     17  H61 UNL     1      24.217   1.391  29.538  1.00  0.00     0.156 HD
ENDBRANCH  12  14
ENDBRANCH  11  12
ENDBRANCH  10  11
ENDBRANCH   9  10
BRANCH   1  18
HETATM   18  N2  UNL     1      19.934   2.604  25.689  1.00  0.00    -0.249 N
HETATM   19  N1  UNL     1      18.752   2.873  25.273  1.00  0.00    -0.331 N
ATOM     20  H12 UNL     1      17.966   2.472  25.784  1.00  0.00     0.178 HD
ATOM     21  H11 UNL     1      18.581   3.467  24.461  1.00  0.00     0.178 HD
ATOM     22  H2  UNL     1      20.732   2.997  25.190  1.00  0.00     0.207 HD
ENDBRANCH   1  18
TORSDOF 5
ENDMDL