MODEL 1
REMARK VINA RESULT: -4.091347447      0.000      0.000
REMARK  6 active torsions:
REMARK  status: ('A' for Active; 'I' for Inactive)
REMARK    1  A    between atoms: C2_2  and  C3_3
REMARK    2  A    between atoms: C3_3  and  C4_4
REMARK    3  A    between atoms: N1_5  and  C5_7
REMARK    4  A    between atoms: C6_8  and  N2_9
REMARK    5  A    between atoms: N3_14  and  C8_15
REMARK    6  A    between atoms: C8_15  and  C9_16
ROOT
HETATM    1  C5  UNL     1      21.752   4.190  29.765  1.00  0.00     0.354 C
HETATM    2  C6  UNL     1      23.094   3.509  29.968  1.00  0.00     0.264 C
HETATM    3  C7  UNL     1      23.627   4.749  29.266  1.00  0.00     0.312 C
HETATM    4  N3  UNL     1      22.455   5.445  29.693  1.00  0.00     0.120 N
ENDROOT
BRANCH   1   5
HETATM    5  N1  UNL     1      21.137   3.735  28.570  1.00  0.00    -0.371 N
HETATM    6  C4  UNL     1      19.938   3.324  28.481  1.00  0.00     0.061 C
ATOM      7  H1  UNL     1      21.700   3.738  27.719  1.00  0.00     0.160 HD
BRANCH   6   8
HETATM    8  C3  UNL     1      19.380   2.868  27.190  1.00  0.00     0.070 C
BRANCH   8   9
HETATM    9  C2  UNL     1      18.775   3.964  26.397  1.00  0.00    -0.032 C
HETATM   10  C1  UNL     1      18.213   3.692  25.239  1.00  0.00     0.007 C
ENDBRANCH   8   9
ENDBRANCH   6   8
ENDBRANCH   1   5
BRANCH   2  11
HETATM   11  N2  UNL     1      23.273   2.362  29.113  1.00  0.00    -0.070 N
ATOM     12  H23 UNL     1      24.009   1.752  29.468  1.00  0.00     0.274 HD
ATOM     13  H22 UNL     1      22.480   1.725  29.187  1.00  0.00     0.274 HD
ATOM     14  H21 UNL     1      23.447   2.618  28.141  1.00  0.00     0.274 HD
ENDBRANCH   2  11
BRANCH   4  15
HETATM   15  C8  UNL     1      22.565   6.082  30.997  1.00  0.00     0.319 C
BRANCH  15  16
HETATM   16  C9  UNL     1      22.501   7.552  30.903  1.00  0.00     0.083 C
HETATM   17  N4  UNL     1      21.749   8.272  31.658  1.00  0.00    -0.410 N
ATOM     18  H42 UNL     1      21.176   7.788  32.349  1.00  0.00     0.155 HD
ATOM     19  H41 UNL     1      21.706   9.289  31.594  1.00  0.00     0.155 HD
ENDBRANCH  15  16
ENDBRANCH   4  15
TORSDOF 6
ENDMDL