MODEL 3
REMARK VINA RESULT: -5.215532158      1.118      1.515
REMARK  5 active torsions:
REMARK  status: ('A' for Active; 'I' for Inactive)
REMARK    1  A    between atoms: N2_4  and  N3_6
REMARK    2  A    between atoms: C1_8  and  N4_9
REMARK    3  A    between atoms: N4_9  and  C2_11
REMARK    4  A    between atoms: C2_11  and  C3_12
REMARK    5  A    between atoms: C3_12  and  N5_13
ROOT
HETATM    1  N4  UNL     1      21.469   1.628  29.801  1.00  0.00    -0.384 N
ATOM      2  H4  UNL     1      21.565   0.848  30.451  1.00  0.00     0.160 HD
ENDROOT
BRANCH   1   3
HETATM    3  C1  UNL     1      20.476   1.553  28.803  1.00  0.00     0.194 C
HETATM    4  N3  UNL     1      20.726   1.865  27.580  1.00  0.00    -0.283 N
ATOM      5  H3  UNL     1      21.670   2.171  27.343  1.00  0.00     0.189 HD
BRANCH   4   6
HETATM    6  N2  UNL     1      19.780   1.806  26.564  1.00  0.00    -0.248 N
HETATM    7  N1  UNL     1      19.988   2.369  25.458  1.00  0.00    -0.331 N
ATOM      8  H12 UNL     1      20.866   2.870  25.322  1.00  0.00     0.178 HD
ATOM      9  H11 UNL     1      19.295   2.326  24.712  1.00  0.00     0.178 HD
ATOM     10  H2  UNL     1      18.907   1.300  26.715  1.00  0.00     0.207 HD
ENDBRANCH   4   6
ENDBRANCH   1   3
BRANCH   1  11
HETATM   11  C2  UNL     1      22.364   2.768  29.947  1.00  0.00     0.140 C
BRANCH  11  12
HETATM   12  C3  UNL     1      21.532   3.991  30.163  1.00  0.00     0.147 C
BRANCH  12  13
HETATM   13  N5  UNL     1      21.935   5.135  29.427  1.00  0.00    -0.333 N
HETATM   14  C4  UNL     1      22.603   6.203  30.162  1.00  0.00     0.129 C
HETATM   15  C5  UNL     1      23.108   7.287  29.254  1.00  0.00     0.040 C
HETATM   16  C6  UNL     1      23.645   6.764  27.948  1.00  0.00     0.126 C
HETATM   17  N6  UNL     1      22.590   6.057  27.246  1.00  0.00    -0.343 N
HETATM   18  C7  UNL     1      21.713   5.272  28.038  1.00  0.00     0.318 C
ATOM     19  H6  UNL     1      22.484   6.121  26.234  1.00  0.00     0.164 HD
HETATM   20  O1  UNL     1      20.753   4.704  27.516  1.00  0.00    -0.247 OA
ENDBRANCH  12  13
ENDBRANCH  11  12
ENDBRANCH   1  11
TORSDOF 5
ENDMDL