MODEL 1
REMARK VINA RESULT: -4.724069872      0.000      0.000
REMARK  6 active torsions:
REMARK  status: ('A' for Active; 'I' for Inactive)
REMARK    1  A    between atoms: N2_3  and  C2_5
REMARK    2  A    between atoms: C2_5  and  C3_6
REMARK    3  A    between atoms: C5_8  and  N3_9
REMARK    4  A    between atoms: N3_9  and  C6_11
REMARK    5  A    between atoms: C7_13  and  N4_14
REMARK    6  A    between atoms: N4_14  and  C8_16
ROOT
HETATM    1  C3  UNL     1      20.621   2.647  28.022  1.00  0.00     0.030 C
HETATM    2  C4  UNL     1      19.653   1.710  28.688  1.00  0.00     0.035 C
HETATM    3  C5  UNL     1      20.346   1.975  30.003  1.00  0.00     0.107 C
HETATM    4  C7  UNL     1      21.527   2.567  29.228  1.00  0.00     0.112 C
ENDROOT
BRANCH   1   5
HETATM    5  C2  UNL     1      19.958   3.998  27.825  1.00  0.00     0.126 C
BRANCH   5   6
HETATM    6  N2  UNL     1      19.515   4.032  26.446  1.00  0.00    -0.388 N
HETATM    7  C1  UNL     1      18.304   3.791  26.086  1.00  0.00     0.185 C
HETATM    8  N1  UNL     1      17.969   3.849  24.712  1.00  0.00    -0.097 NA
ATOM      9  H2  UNL     1      20.198   4.259  25.723  1.00  0.00     0.159 HD
ENDBRANCH   5   6
ENDBRANCH   1   5
BRANCH   4  10
HETATM   10  N4  UNL     1      22.566   1.582  29.010  1.00  0.00    -0.361 N
ATOM     11  H4  UNL     1      22.348   0.687  28.573  1.00  0.00     0.162 HD
BRANCH  10  12
HETATM   12  C8  UNL     1      23.887   1.882  29.412  1.00  0.00     0.348 C
HETATM   13  O2  UNL     1      24.861   1.457  28.765  1.00  0.00    -0.284 OA
ENDBRANCH  10  12
ENDBRANCH   4  10
BRANCH   3  14
HETATM   14  N3  UNL     1      20.676   0.771  30.725  1.00  0.00    -0.362 N
ATOM     15  H3  UNL     1      21.190   0.017  30.269  1.00  0.00     0.162 HD
BRANCH  14  16
HETATM   16  C6  UNL     1      20.273   0.655  32.074  1.00  0.00     0.348 C
HETATM   17  O1  UNL     1      19.431  -0.155  32.486  1.00  0.00    -0.284 OA
ENDBRANCH  14  16
ENDBRANCH   3  14
TORSDOF 6
ENDMDL