MODEL 5
REMARK VINA RESULT: -4.440384810      0.967      1.291
REMARK  7 active torsions:
REMARK  status: ('A' for Active; 'I' for Inactive)
REMARK    1  A    between atoms: N1_1  and  C1_5
REMARK    2  A    between atoms: C1_5  and  C2_6
REMARK    3  A    between atoms: C2_6  and  N2_7
REMARK    4  A    between atoms: N2_7  and  C3_9
REMARK    5  A    between atoms: C3_9  and  N3_10
REMARK    6  A    between atoms: C4_12  and  C5_13
REMARK    7  A    between atoms: C5_13  and  C6_14
ROOT
HETATM    1  N3  UNL     1      21.942   3.671  29.300  1.00  0.00    -0.365 N
ATOM      2  H3  UNL     1      21.668   4.632  29.506  1.00  0.00     0.165 HD
HETATM    3  C4  UNL     1      21.088   2.824  28.899  1.00  0.00     0.068 C
ENDROOT
BRANCH   1   4
HETATM    4  C3  UNL     1      23.318   3.242  29.458  1.00  0.00     0.179 C
BRANCH   4   5
HETATM    5  N2  UNL     1      24.154   4.270  29.031  1.00  0.00    -0.364 N
ATOM      6  H2  UNL     1      25.076   4.034  28.664  1.00  0.00     0.165 HD
BRANCH   5   7
HETATM    7  C2  UNL     1      23.771   5.623  29.088  1.00  0.00     0.088 C
BRANCH   7   8
HETATM    8  C1  UNL     1      24.012   6.367  27.817  1.00  0.00     0.274 C
BRANCH   8   9
HETATM    9  N1  UNL     1      22.844   6.317  26.983  1.00  0.00    -0.075 N
ATOM     10  H13 UNL     1      22.151   5.659  27.338  1.00  0.00     0.274 HD
ATOM     11  H12 UNL     1      22.289   7.170  27.053  1.00  0.00     0.274 HD
ATOM     12  H11 UNL     1      23.107   6.111  26.020  1.00  0.00     0.274 HD
ENDBRANCH   8   9
ENDBRANCH   7   8
ENDBRANCH   5   7
ENDBRANCH   4   5
ENDBRANCH   1   4
BRANCH   3  13
HETATM   13  C5  UNL     1      19.662   3.241  28.726  1.00  0.00     0.103 C
BRANCH  13  14
HETATM   14  C6  UNL     1      19.300   3.224  27.282  1.00  0.00     0.030 A
HETATM   15  C7  UNL     1      19.731   2.353  26.325  1.00  0.00     0.114 A
HETATM   16  N4  UNL     1      19.169   2.684  25.153  1.00  0.00    -0.360 N
HETATM   17  C8  UNL     1      18.389   3.772  25.418  1.00  0.00     0.180 A
ATOM     18  H4  UNL     1      19.297   2.220  24.255  1.00  0.00     0.166 HD
HETATM   19  N5  UNL     1      18.467   4.102  26.708  1.00  0.00    -0.354 N
ATOM     20  H5  UNL     1      17.985   4.874  27.169  1.00  0.00     0.166 HD
ENDBRANCH  13  14
ENDBRANCH   3  13
TORSDOF 7
ENDMDL