MODEL 3
REMARK VINA RESULT: -5.587582105      1.342      1.511
REMARK  5 active torsions:
REMARK  status: ('A' for Active; 'I' for Inactive)
REMARK    1  A    between atoms: C1_4  and  N2_5
REMARK    2  A    between atoms: N2_5  and  C2_7
REMARK    3  A    between atoms: C2_7  and  C3_8
REMARK    4  A    between atoms: C5_10  and  C6_11
REMARK    5  A    between atoms: C6_11  and  N3_12
ROOT
HETATM    1  C3  UNL     1      21.786   1.812  29.854  1.00  0.00     0.009 A
HETATM    2  C4  UNL     1      21.092   0.538  29.916  1.00  0.00     0.013 A
HETATM    3  C5  UNL     1      20.885   1.389  28.687  1.00  0.00     0.011 A
ENDROOT
BRANCH   3   4
HETATM    4  C6  UNL     1      19.575   2.074  28.485  1.00  0.00     0.155 C
BRANCH   4   5
HETATM    5  N3  UNL     1      19.309   2.469  27.120  1.00  0.00    -0.283 N
HETATM    6  C7  UNL     1      18.342   3.287  26.721  1.00  0.00     0.187 A
HETATM    7  C8  UNL     1      18.444   3.393  25.332  1.00  0.00     0.278 A
HETATM    8  O1  UNL     1      17.711   4.077  24.569  1.00  0.00    -0.265 OA
HETATM    9  N4  UNL     1      19.479   2.622  24.985  1.00  0.00    -0.251 N
HETATM   10  N5  UNL     1      19.984   2.075  26.075  1.00  0.00    -0.238 N
ATOM     11  H4  UNL     1      19.822   2.480  24.034  1.00  0.00     0.192 HD
ATOM     12  H5  UNL     1      20.782   1.441  26.098  1.00  0.00     0.208 HD
ENDBRANCH   4   5
ENDBRANCH   3   4
BRANCH   1  13
HETATM   13  C2  UNL     1      23.219   1.996  29.477  1.00  0.00     0.125 C
BRANCH  13  14
HETATM   14  N2  UNL     1      23.624   3.329  29.181  1.00  0.00    -0.386 N
ATOM     15  H2  UNL     1      22.968   3.940  28.693  1.00  0.00     0.160 HD
BRANCH  14  16
HETATM   16  C1  UNL     1      24.896   3.848  29.533  1.00  0.00     0.168 C
HETATM   17  N1  UNL     1      25.513   4.685  28.754  1.00  0.00    -0.396 N
ATOM     18  H12 UNL     1      25.063   4.962  27.881  1.00  0.00     0.156 HD
ATOM     19  H11 UNL     1      26.428   5.058  29.007  1.00  0.00     0.156 HD
ENDBRANCH  14  16
ENDBRANCH  13  14
ENDBRANCH   1  13
TORSDOF 5
ENDMDL