MODEL 2
REMARK VINA RESULT: -6.449309094      9.857     13.796
REMARK  5 active torsions:
REMARK  status: ('A' for Active; 'I' for Inactive)
REMARK    1  A    between atoms: C4_8  and  C5_9
REMARK    2  A    between atoms: C5_9  and  C6_10
REMARK    3  A    between atoms: C11_16  and  C12_17
REMARK    4  A    between atoms: C15_20  and  N3_21
REMARK    5  A    between atoms: C21_31  and  S1_32
ROOT
HETATM    1  C12 UNL     1      33.060  56.605  47.192  1.00  0.00    -0.035 A
HETATM    2  C13 UNL     1      32.819  55.962  48.419  1.00  0.00     0.013 A
HETATM    3  C14 UNL     1      32.213  56.583  49.476  1.00  0.00     0.030 A
HETATM    4  C15 UNL     1      31.802  57.894  49.387  1.00  0.00     0.032 A
HETATM    5  C25 UNL     1      32.034  58.533  48.191  1.00  0.00     0.030 A
HETATM    6  C26 UNL     1      32.641  57.924  47.122  1.00  0.00     0.013 A
ENDROOT
BRANCH   1   7
HETATM    7  C11 UNL     1      33.770  55.922  46.142  1.00  0.00     0.030 C
HETATM    8  C10 UNL     1      33.275  55.290  45.148  1.00  0.00     0.061 C
HETATM    9  C9  UNL     1      34.151  54.647  44.144  1.00  0.00     0.163 C
HETATM   10  C27 UNL     1      31.848  55.098  44.931  1.00  0.00     0.192 C
HETATM   11  C8  UNL     1      33.764  54.256  42.797  1.00  0.00     0.089 C
HETATM   12  O1  UNL     1      35.335  54.427  44.513  1.00  0.00    -0.292 OA
HETATM   13  C7  UNL     1      32.290  54.440  42.530  1.00  0.00     0.050 C
HETATM   14  C6  UNL     1      31.473  54.288  43.732  1.00  0.00    -0.004 C
HETATM   15  O5  UNL     1      30.941  55.551  45.670  1.00  0.00    -0.287 OA
BRANCH  14  16
HETATM   16  C5  UNL     1      30.435  53.482  43.838  1.00  0.00     0.042 C
BRANCH  16  17
HETATM   17  C4  UNL     1      29.056  53.781  43.546  1.00  0.00     0.056 A
HETATM   18  C2  UNL     1      28.437  53.936  42.355  1.00  0.00     0.033 A
HETATM   19  C1  UNL     1      29.012  53.755  40.986  1.00  0.00     0.070 C
HETATM   20  N1  UNL     1      27.130  54.258  42.586  1.00  0.00    -0.354 N
HETATM   21  C3  UNL     1      26.966  54.295  43.916  1.00  0.00     0.181 A
ATOM     22  H1  UNL     1      26.415  54.437  41.881  1.00  0.00     0.166 HD
HETATM   23  N2  UNL     1      28.134  54.004  44.509  1.00  0.00    -0.351 N
ATOM     24  H2  UNL     1      28.298  53.960  45.515  1.00  0.00     0.166 HD
ENDBRANCH  16  17
ENDBRANCH  14  16
ENDBRANCH   1   7
BRANCH   4  25
HETATM   25  N3  UNL     1      31.175  58.533  50.486  1.00  0.00    -0.351 N
HETATM   26  C16 UNL     1      29.912  58.493  50.706  1.00  0.00     0.114 A
HETATM   27  C17 UNL     1      28.869  57.831  49.943  1.00  0.00     0.273 A
HETATM   28  C24 UNL     1      29.270  59.154  51.842  1.00  0.00     0.024 A
HETATM   29  O2  UNL     1      29.045  57.170  48.912  1.00  0.00    -0.266 OA
HETATM   30  N4  UNL     1      27.636  58.087  50.599  1.00  0.00    -0.321 N
HETATM   31  C18 UNL     1      27.901  58.895  51.755  1.00  0.00     0.048 A
ATOM     32  H4  UNL     1      26.719  57.754  50.301  1.00  0.00     0.169 HD
HETATM   33  C19 UNL     1      27.028  59.393  52.693  1.00  0.00     0.032 A
HETATM   34  C20 UNL     1      27.544  60.152  53.718  1.00  0.00     0.026 A
HETATM   35  C21 UNL     1      28.885  60.428  53.837  1.00  0.00     0.059 A
HETATM   36  C23 UNL     1      29.742  59.920  52.887  1.00  0.00     0.039 A
ATOM     37  H3  UNL     1      31.761  59.054  51.139  1.00  0.00     0.166 HD
BRANCH  35  38
HETATM   38  S1  UNL     1      29.537  61.394  55.143  1.00  0.00     0.171 S
HETATM   39  C22 UNL     1      29.709  63.093  54.676  1.00  0.00     0.167 C
HETATM   40  O3  UNL     1      30.910  60.865  55.473  1.00  0.00    -0.223 OA
HETATM   41  O4  UNL     1      28.693  61.267  56.365  1.00  0.00    -0.223 OA
ENDBRANCH  35  38
ENDBRANCH   4  25
TORSDOF 5
ENDMDL