MODEL 1
REMARK VINA RESULT: -7.358821809      0.000      0.000
REMARK  6 active torsions:
REMARK  status: ('A' for Active; 'I' for Inactive)
REMARK    1  A    between atoms: O1_2  and  C2_3
REMARK    2  A    between atoms: C6_7  and  N1_8
REMARK    3  A    between atoms: N1_8  and  C7_10
REMARK    4  A    between atoms: C11_18  and  C12_19
REMARK    5  A    between atoms: C17_24  and  C18_25
REMARK       I    between atoms: C18_25  and  N4_27
REMARK    6  A    between atoms: N4_27  and  C19_29
ROOT
HETATM    1  C7  UNL     1      33.348  55.821  59.107  1.00  0.00     0.119 A
HETATM    2  N2  UNL     1      33.826  54.696  58.541  1.00  0.00    -0.338 N
ATOM      3  H2  UNL     1      33.632  53.812  59.011  1.00  0.00     0.168 HD
HETATM    4  C8  UNL     1      34.533  54.653  57.412  1.00  0.00     0.182 A
HETATM    5  N3  UNL     1      34.789  55.831  56.791  1.00  0.00    -0.352 N
ATOM      6  H3  UNL     1      35.327  55.840  55.925  1.00  0.00     0.166 HD
HETATM    7  C9  UNL     1      34.338  56.987  57.309  1.00  0.00     0.047 A
HETATM    8  C10 UNL     1      34.589  58.193  56.690  1.00  0.00     0.042 A
HETATM    9  C11 UNL     1      34.128  59.397  57.216  1.00  0.00    -0.023 A
HETATM   10  C27 UNL     1      33.394  59.410  58.392  1.00  0.00     0.013 A
HETATM   11  C28 UNL     1      33.134  58.191  59.027  1.00  0.00     0.018 A
HETATM   12  C29 UNL     1      33.604  57.038  58.479  1.00  0.00     0.035 A
ENDROOT
BRANCH   9  13
HETATM   13  C12 UNL     1      34.405  60.648  56.534  1.00  0.00    -0.013 A
HETATM   14  C13 UNL     1      35.648  61.216  56.693  1.00  0.00    -0.050 A
HETATM   15  C14 UNL     1      36.640  60.530  57.545  1.00  0.00     0.049 C
HETATM   16  C15 UNL     1      35.950  62.414  56.055  1.00  0.00     0.009 A
HETATM   17  C16 UNL     1      34.973  62.974  55.288  1.00  0.00     0.018 A
HETATM   18  C17 UNL     1      33.700  62.420  55.108  1.00  0.00     0.039 A
HETATM   19  C25 UNL     1      33.417  61.241  55.741  1.00  0.00    -0.035 A
HETATM   20  C26 UNL     1      32.102  60.608  55.596  1.00  0.00     0.050 C
BRANCH  18  21
HETATM   21  C18 UNL     1      32.744  63.094  54.282  1.00  0.00     0.270 C
HETATM   22  O2  UNL     1      32.130  64.102  54.805  1.00  0.00    -0.267 OA
HETATM   23  N4  UNL     1      32.379  62.804  52.962  1.00  0.00    -0.155 N
ATOM     24  H4  UNL     1      33.138  62.753  52.283  1.00  0.00     0.187 HD
BRANCH  23  25
HETATM   25  C19 UNL     1      31.191  62.595  52.513  1.00  0.00     0.685 A
HETATM   26  N5  UNL     1      30.849  61.311  52.291  1.00  0.00    -0.196 N
HETATM   27  C20 UNL     1      29.641  60.955  51.828  1.00  0.00     0.024 A
ATOM     28  H5  UNL     1      31.536  60.580  52.482  1.00  0.00     0.184 HD
HETATM   29  C21 UNL     1      29.297  59.521  51.593  1.00  0.00     0.068 C
HETATM   30  C22 UNL     1      28.708  61.964  51.568  1.00  0.00     0.050 A
HETATM   31  C23 UNL     1      29.041  63.276  51.789  1.00  0.00     0.024 A
HETATM   32  C24 UNL     1      28.053  64.329  51.514  1.00  0.00     0.068 C
HETATM   33  N6  UNL     1      30.280  63.541  52.257  1.00  0.00    -0.196 N
ATOM     34  H6  UNL     1      30.535  64.514  52.424  1.00  0.00     0.184 HD
ENDBRANCH  23  25
ENDBRANCH  18  21
ENDBRANCH   9  13
BRANCH   1  35
HETATM   35  N1  UNL     1      32.664  55.795  60.210  1.00  0.00    -0.342 N
ATOM     36  H1  UNL     1      33.112  55.952  61.113  1.00  0.00     0.167 HD
BRANCH  35  37
HETATM   37  C6  UNL     1      31.267  55.540  60.113  1.00  0.00     0.036 A
HETATM   38  C5  UNL     1      30.850  54.504  59.320  1.00  0.00     0.029 A
HETATM   39  C4  UNL     1      29.490  54.229  59.204  1.00  0.00     0.005 A
HETATM   40  C3  UNL     1      28.575  54.997  59.883  1.00  0.00     0.037 A
HETATM   41  C2  UNL     1      28.977  56.058  60.698  1.00  0.00     0.070 A
HETATM   42  C30 UNL     1      30.321  56.292  60.783  1.00  0.00     0.066 A
BRANCH  41  43
HETATM   43  O1  UNL     1      28.022  56.804  61.364  1.00  0.00    -0.356 OA
HETATM   44  C1  UNL     1      27.029  56.131  62.096  1.00  0.00     0.210 C
ENDBRANCH  41  43
ENDBRANCH  35  37
ENDBRANCH   1  35
TORSDOF 6
ENDMDL