MODEL 2
REMARK VINA RESULT: -6.664184558     12.529     14.635
REMARK  7 active torsions:
REMARK  status: ('A' for Active; 'I' for Inactive)
REMARK    1  A    between atoms: C4_4  and  C5_5
REMARK    2  A    between atoms: C6_6  and  C7_7
REMARK    3  A    between atoms: C12_12  and  C13_13
REMARK    4  A    between atoms: C16_18  and  C17_19
REMARK    5  A    between atoms: C22_24  and  S1_25
REMARK    6  A    between atoms: S1_25  and  N2_26
REMARK    7  A    between atoms: C26_35  and  C27_36
ROOT
HETATM    1  C7  UNL     1      38.429  56.859  59.859  1.00  0.00     0.029 A
HETATM    2  C8  UNL     1      39.555  56.622  60.656  1.00  0.00     0.021 A
HETATM    3  C9  UNL     1      39.708  55.464  61.379  1.00  0.00     0.002 A
HETATM    4  C10 UNL     1      38.742  54.475  61.346  1.00  0.00     0.001 A
HETATM    5  C11 UNL     1      37.632  54.691  60.570  1.00  0.00     0.014 A
HETATM    6  C12 UNL     1      37.484  55.861  59.842  1.00  0.00    -0.006 A
ENDROOT
BRANCH   6   7
HETATM    7  C13 UNL     1      36.273  56.010  59.024  1.00  0.00    -0.008 A
HETATM    8  C14 UNL     1      36.345  56.336  57.696  1.00  0.00     0.100 A
HETATM    9  N1  UNL     1      35.198  56.478  56.972  1.00  0.00    -0.374 N
HETATM   10  C15 UNL     1      33.987  56.304  57.527  1.00  0.00     0.100 A
ATOM     11  H1  UNL     1      35.260  56.722  55.984  1.00  0.00     0.164 HD
HETATM   12  C16 UNL     1      33.851  55.969  58.877  1.00  0.00    -0.008 A
HETATM   13  C23 UNL     1      35.009  55.832  59.590  1.00  0.00     0.027 A
BRANCH  12  14
HETATM   14  C17 UNL     1      32.541  55.820  59.429  1.00  0.00    -0.001 A
HETATM   15  C18 UNL     1      31.865  54.641  59.133  1.00  0.00     0.014 A
HETATM   16  C19 UNL     1      30.598  54.460  59.630  1.00  0.00     0.001 A
HETATM   17  C20 UNL     1      30.015  55.423  60.399  1.00  0.00     0.002 A
HETATM   18  C21 UNL     1      30.702  56.579  60.677  1.00  0.00     0.026 A
HETATM   19  C22 UNL     1      31.991  56.817  60.202  1.00  0.00     0.090 A
BRANCH  19  20
HETATM   20  S1  UNL     1      32.779  58.298  60.620  1.00  0.00     0.257 S
HETATM   21  O1  UNL     1      33.510  58.940  59.502  1.00  0.00    -0.201 OA
HETATM   22  O2  UNL     1      31.867  59.337  61.210  1.00  0.00    -0.201 OA
BRANCH  20  23
HETATM   23  N2  UNL     1      33.947  57.964  61.882  1.00  0.00    -0.324 N
ATOM     24  H22 UNL     1      34.877  57.573  61.731  1.00  0.00     0.169 HD
ATOM     25  H21 UNL     1      33.535  58.226  62.778  1.00  0.00     0.169 HD
ENDBRANCH  20  23
ENDBRANCH  19  20
ENDBRANCH  12  14
ENDBRANCH   6   7
BRANCH   1  26
HETATM   26  C6  UNL     1      38.303  58.090  59.129  1.00  0.00    -0.061 C
HETATM   27  C5  UNL     1      38.175  59.128  58.534  1.00  0.00    -0.061 C
BRANCH  27  28
HETATM   28  C4  UNL     1      38.012  60.405  57.842  1.00  0.00     0.020 A
HETATM   29  C3  UNL     1      39.111  61.129  57.530  1.00  0.00     0.028 A
HETATM   30  C2  UNL     1      38.921  62.342  56.868  1.00  0.00    -0.048 A
HETATM   31  C1  UNL     1      40.089  63.178  56.500  1.00  0.00     0.049 C
HETATM   32  C26 UNL     1      37.660  62.785  56.544  1.00  0.00     0.007 A
HETATM   33  C25 UNL     1      36.546  62.048  56.861  1.00  0.00     0.059 A
HETATM   34  C24 UNL     1      36.751  60.854  57.514  1.00  0.00     0.048 A
HETATM   35  N3  UNL     1      35.230  62.438  56.557  1.00  0.00    -0.102 NA
BRANCH  32  36
HETATM   36  C27 UNL     1      37.472  64.054  55.858  1.00  0.00     0.010 A
HETATM   37  C28 UNL     1      37.441  64.260  54.479  1.00  0.00     0.121 A
HETATM   38  N4  UNL     1      37.239  65.570  54.288  1.00  0.00    -0.310 N
HETATM   39  N5  UNL     1      37.143  66.182  55.463  1.00  0.00    -0.307 N
ATOM     40  H4  UNL     1      37.169  66.028  53.380  1.00  0.00     0.186 HD
HETATM   41  C29 UNL     1      36.919  67.622  55.615  1.00  0.00     0.177 C
HETATM   42  C30 UNL     1      37.280  65.291  56.431  1.00  0.00     0.123 A
ENDBRANCH  32  36
ENDBRANCH  27  28
ENDBRANCH   1  26
TORSDOF 7
ENDMDL