MODEL 2
REMARK VINA RESULT: -7.438508211      1.665      2.463
REMARK  5 active torsions:
REMARK  status: ('A' for Active; 'I' for Inactive)
REMARK    1  A    between atoms: C4_5  and  C5_6
REMARK    2  A    between atoms: C5_6  and  C6_7
REMARK    3  A    between atoms: C8_10  and  C9_11
REMARK    4  A    between atoms: C9_11  and  O2_12
REMARK    5  A    between atoms: O2_12  and  C10_13
ROOT
HETATM    1  C6  UNL     1      34.071  58.081  58.244  1.00  0.00     0.179 C
HETATM    2  C7  UNL     1      33.684  59.422  57.767  1.00  0.00     0.182 C
HETATM    3  O1  UNL     1      32.913  59.442  56.819  1.00  0.00    -0.293 OA
HETATM    4  C8  UNL     1      34.041  60.796  58.206  1.00  0.00     0.224 C
HETATM    5  O3  UNL     1      35.348  61.114  57.853  1.00  0.00    -0.336 OA
HETATM    6  C16 UNL     1      36.618  60.620  57.882  1.00  0.00     0.078 A
HETATM    7  C17 UNL     1      37.399  61.634  57.404  1.00  0.00     0.037 A
HETATM    8  C18 UNL     1      38.758  61.458  57.304  1.00  0.00     0.003 A
HETATM    9  C19 UNL     1      39.293  60.254  57.692  1.00  0.00     0.001 A
HETATM   10  C20 UNL     1      38.469  59.211  58.186  1.00  0.00     0.012 A
HETATM   11  C21 UNL     1      37.130  59.372  58.290  1.00  0.00     0.001 A
HETATM   12  C22 UNL     1      36.445  58.206  58.799  1.00  0.00     0.154 C
HETATM   13  C23 UNL     1      37.246  56.994  58.977  1.00  0.00     0.119 A
HETATM   14  C24 UNL     1      36.238  55.877  58.658  1.00  0.00     0.107 A
HETATM   15  N2  UNL     1      36.336  55.007  59.543  1.00  0.00    -0.344 N
ATOM     16  H2  UNL     1      35.789  54.147  59.545  1.00  0.00     0.167 HD
HETATM   17  C25 UNL     1      37.281  55.327  60.547  1.00  0.00     0.040 A
HETATM   18  C26 UNL     1      37.631  54.601  61.700  1.00  0.00     0.030 A
HETATM   19  C27 UNL     1      38.545  55.118  62.586  1.00  0.00     0.002 A
HETATM   20  C28 UNL     1      39.073  56.347  62.275  1.00  0.00     0.001 A
HETATM   21  C29 UNL     1      38.736  57.056  61.154  1.00  0.00     0.010 A
HETATM   22  C30 UNL     1      37.811  56.558  60.233  1.00  0.00    -0.018 A
HETATM   23  N3  UNL     1      35.610  56.467  57.478  1.00  0.00    -0.289 N
ATOM     24  H3  UNL     1      35.394  56.039  56.577  1.00  0.00     0.188 HD
HETATM   25  N4  UNL     1      35.387  57.769  57.915  1.00  0.00    -0.304 N
ENDROOT
BRANCH   1  26
HETATM   26  C5  UNL     1      33.682  57.796  59.650  1.00  0.00     0.073 C
BRANCH  26  27
HETATM   27  C4  UNL     1      32.594  56.776  59.772  1.00  0.00    -0.056 A
HETATM   28  C3  UNL     1      31.538  56.994  60.667  1.00  0.00     0.009 A
HETATM   29  C2  UNL     1      30.511  56.114  60.824  1.00  0.00     0.027 A
HETATM   30  C1  UNL     1      30.471  54.959  60.097  1.00  0.00     0.046 A
HETATM   31  N1  UNL     1      29.417  54.022  60.233  1.00  0.00    -0.102 NA
HETATM   32  C32 UNL     1      31.493  54.720  59.212  1.00  0.00     0.027 A
HETATM   33  C31 UNL     1      32.534  55.614  59.055  1.00  0.00     0.009 A
ENDBRANCH  26  27
ENDBRANCH   1  26
BRANCH   4  34
HETATM   34  C9  UNL     1      33.127  61.807  57.495  1.00  0.00     0.216 C
BRANCH  34  35
HETATM   35  O2  UNL     1      32.009  62.089  58.293  1.00  0.00    -0.348 OA
BRANCH  35  36
HETATM   36  C10 UNL     1      30.714  62.043  57.903  1.00  0.00     0.068 A
HETATM   37  C11 UNL     1      30.356  61.803  56.600  1.00  0.00     0.037 A
HETATM   38  C12 UNL     1      29.028  61.755  56.198  1.00  0.00     0.003 A
HETATM   39  C13 UNL     1      28.054  61.953  57.118  1.00  0.00     0.000 A
HETATM   40  C14 UNL     1      28.361  62.196  58.419  1.00  0.00     0.003 A
HETATM   41  C15 UNL     1      29.698  62.239  58.807  1.00  0.00     0.037 A
ENDBRANCH  35  36
ENDBRANCH  34  35
ENDBRANCH   4  34
TORSDOF 5
ENDMDL