MODEL 2
REMARK VINA RESULT: -7.183784121      4.338      7.449
REMARK  6 active torsions:
REMARK  status: ('A' for Active; 'I' for Inactive)
REMARK    1  A    between atoms: C5_5  and  N1_6
REMARK    2  A    between atoms: N1_6  and  C6_8
REMARK    3  A    between atoms: C7_9  and  C8_10
REMARK    4  A    between atoms: C19_23  and  S1_24
REMARK    5  A    between atoms: S1_24  and  N2_27
REMARK    6  A    between atoms: N2_27  and  C20_29
ROOT
HETATM    1  C6  UNL     1      36.545  58.688  59.231  1.00  0.00     0.056 A
HETATM    2  C7  UNL     1      35.564  58.363  58.331  1.00  0.00     0.002 A
HETATM    3  C15 UNL     1      35.437  59.112  57.161  1.00  0.00     0.015 A
HETATM    4  C16 UNL     1      36.267  60.166  56.886  1.00  0.00     0.013 A
HETATM    5  C17 UNL     1      37.244  60.491  57.778  1.00  0.00    -0.022 A
HETATM    6  C18 UNL     1      38.093  61.557  57.510  1.00  0.00     0.037 A
HETATM    7  C19 UNL     1      39.080  61.883  58.417  1.00  0.00     0.080 A
HETATM    8  C23 UNL     1      39.196  61.139  59.563  1.00  0.00     0.026 A
HETATM    9  C24 UNL     1      38.369  60.080  59.852  1.00  0.00     0.016 A
HETATM   10  C25 UNL     1      37.377  59.744  58.953  1.00  0.00     0.002 A
ENDROOT
BRANCH   1  11
HETATM   11  N1  UNL     1      36.696  57.962  60.409  1.00  0.00    -0.341 N
ATOM     12  H1  UNL     1      36.118  58.245  61.201  1.00  0.00     0.167 HD
BRANCH  11  13
HETATM   13  C5  UNL     1      37.489  56.972  60.598  1.00  0.00     0.105 A
HETATM   14  C4  UNL     1      37.128  55.657  60.448  1.00  0.00     0.049 A
HETATM   15  C3  UNL     1      38.048  54.652  60.672  1.00  0.00     0.012 A
HETATM   16  C2  UNL     1      39.350  54.950  61.051  1.00  0.00    -0.040 A
HETATM   17  C1  UNL     1      40.367  53.912  61.301  1.00  0.00     0.050 C
HETATM   18  C26 UNL     1      39.671  56.284  61.190  1.00  0.00     0.013 A
HETATM   19  N4  UNL     1      38.755  57.253  60.966  1.00  0.00    -0.346 N
HETATM   20  C27 UNL     1      41.066  56.635  61.597  1.00  0.00     0.068 C
ATOM     21  H4  UNL     1      39.031  58.229  61.080  1.00  0.00     0.167 HD
ENDBRANCH  11  13
ENDBRANCH   1  11
BRANCH   2  22
HETATM   22  C8  UNL     1      34.630  57.270  58.514  1.00  0.00    -0.021 A
HETATM   23  C9  UNL     1      34.828  56.033  57.949  1.00  0.00     0.015 A
HETATM   24  C10 UNL     1      33.958  54.987  58.115  1.00  0.00     0.040 A
HETATM   25  C11 UNL     1      32.834  55.158  58.871  1.00  0.00     0.105 A
HETATM   26  C12 UNL     1      32.593  56.384  59.459  1.00  0.00     0.105 A
HETATM   27  O2  UNL     1      31.775  54.323  59.228  1.00  0.00    -0.323 OA
HETATM   28  C13 UNL     1      33.501  57.442  59.275  1.00  0.00     0.052 A
HETATM   29  O1  UNL     1      31.407  56.311  60.167  1.00  0.00    -0.323 OA
HETATM   30  C14 UNL     1      30.857  55.015  60.038  1.00  0.00     0.352 A
ENDBRANCH   2  22
BRANCH   7  31
HETATM   31  S1  UNL     1      40.161  63.237  58.081  1.00  0.00     0.264 S
HETATM   32  O3  UNL     1      39.925  64.240  59.185  1.00  0.00    -0.200 OA
HETATM   33  O4  UNL     1      39.798  63.785  56.743  1.00  0.00    -0.200 OA
BRANCH  31  34
HETATM   34  N2  UNL     1      41.779  62.640  58.111  1.00  0.00    -0.264 N
ATOM     35  H2  UNL     1      42.062  61.923  57.443  1.00  0.00     0.180 HD
BRANCH  34  36
HETATM   36  C20 UNL     1      42.635  63.085  58.965  1.00  0.00     0.137 A
HETATM   37  C21 UNL     1      43.865  63.665  58.783  1.00  0.00     0.077 A
HETATM   38  C22 UNL     1      44.373  63.962  60.051  1.00  0.00     0.171 A
HETATM   39  O5  UNL     1      43.458  63.562  60.899  1.00  0.00    -0.248 OA
HETATM   40  N3  UNL     1      42.441  63.050  60.302  1.00  0.00    -0.245 N
ATOM     41  H3  UNL     1      41.614  62.676  60.767  1.00  0.00     0.196 HD
ENDBRANCH  34  36
ENDBRANCH  31  34
ENDBRANCH   7  31
TORSDOF 6
ENDMDL