MODEL 3
REMARK VINA RESULT: -5.814437146     10.352     14.589
REMARK  8 active torsions:
REMARK  status: ('A' for Active; 'I' for Inactive)
REMARK    1  A    between atoms: C3_3  and  C4_4
REMARK    2  A    between atoms: C4_4  and  O1_5
REMARK    3  A    between atoms: O1_5  and  C5_6
REMARK    4  A    between atoms: C8_9  and  N1_10
REMARK    5  A    between atoms: N1_10  and  C9_12
REMARK    6  A    between atoms: C13_22  and  N5_23
REMARK    7  A    between atoms: N5_23  and  C14_25
REMARK    8  A    between atoms: N6_34  and  C23_35
ROOT
HETATM    1  C1  UNL     1      31.544  62.924  54.795  1.00  0.00     0.112 C
HETATM    2  C2  UNL     1      32.591  62.038  55.315  1.00  0.00    -0.109 C
HETATM    3  C3  UNL     1      33.457  61.290  55.738  1.00  0.00    -0.080 C
ENDROOT
BRANCH   3   4
HETATM    4  C4  UNL     1      34.492  60.425  56.253  1.00  0.00     0.269 C
BRANCH   4   5
HETATM    5  O1  UNL     1      35.205  61.020  57.299  1.00  0.00    -0.340 OA
BRANCH   5   6
HETATM    6  C5  UNL     1      36.575  61.102  57.387  1.00  0.00     0.070 A
HETATM    7  C6  UNL     1      37.351  62.161  56.983  1.00  0.00     0.039 A
HETATM    8  C7  UNL     1      38.745  62.154  57.115  1.00  0.00     0.032 A
HETATM    9  C8  UNL     1      39.392  61.068  57.662  1.00  0.00     0.033 A
HETATM   10  C29 UNL     1      38.619  60.001  58.069  1.00  0.00     0.032 A
HETATM   11  C30 UNL     1      37.248  60.008  57.939  1.00  0.00     0.039 A
BRANCH   9  12
HETATM   12  N1  UNL     1      40.807  61.017  57.814  1.00  0.00    -0.341 N
ATOM     13  H1  UNL     1      41.369  60.299  57.356  1.00  0.00     0.167 HD
BRANCH  12  14
HETATM   14  C9  UNL     1      41.348  61.927  58.563  1.00  0.00     0.136 A
HETATM   15  N2  UNL     1      41.805  63.093  58.086  1.00  0.00    -0.337 N
HETATM   16  C10 UNL     1      42.354  63.993  58.918  1.00  0.00     0.182 A
ATOM     17  H2  UNL     1      41.735  63.297  57.089  1.00  0.00     0.168 HD
HETATM   18  N3  UNL     1      42.464  63.762  60.247  1.00  0.00    -0.349 N
HETATM   19  C11 UNL     1      42.006  62.582  60.758  1.00  0.00     0.080 A
ATOM     20  H3  UNL     1      42.884  64.461  60.859  1.00  0.00     0.166 HD
HETATM   21  C12 UNL     1      42.105  62.318  62.112  1.00  0.00     0.138 A
HETATM   22  C28 UNL     1      41.441  61.652  59.907  1.00  0.00     0.121 A
HETATM   23  N4  UNL     1      41.634  61.130  62.571  1.00  0.00    -0.199 N
HETATM   24  C13 UNL     1      41.083  60.224  61.744  1.00  0.00     0.683 A
ATOM     25  H4  UNL     1      41.701  60.920  63.567  1.00  0.00     0.183 HD
HETATM   26  N7  UNL     1      40.984  60.475  60.425  1.00  0.00    -0.185 N
ATOM     27  H7  UNL     1      40.564  59.779  59.809  1.00  0.00     0.184 HD
BRANCH  24  28
HETATM   28  N5  UNL     1      40.628  59.086  62.166  1.00  0.00    -0.192 N
ATOM     29  H5  UNL     1      41.184  58.503  62.791  1.00  0.00     0.184 HD
BRANCH  28  30
HETATM   30  C14 UNL     1      39.337  58.666  61.742  1.00  0.00     0.049 A
HETATM   31  C15 UNL     1      38.240  59.455  62.010  1.00  0.00     0.031 A
HETATM   32  C16 UNL     1      36.961  59.117  61.632  1.00  0.00     0.020 A
HETATM   33  C17 UNL     1      36.805  57.909  60.946  1.00  0.00     0.039 A
HETATM   34  C18 UNL     1      37.854  57.092  60.656  1.00  0.00    -0.035 A
HETATM   35  C27 UNL     1      35.468  57.510  60.529  1.00  0.00     0.255 C
HETATM   36  C19 UNL     1      39.113  57.484  61.060  1.00  0.00     0.038 A
HETATM   37  C20 UNL     1      37.737  55.807  59.931  1.00  0.00     0.034 C
HETATM   38  C21 UNL     1      38.070  54.649  60.843  1.00  0.00     0.017 C
HETATM   39  C22 UNL     1      36.428  55.654  59.218  1.00  0.00     0.136 C
HETATM   40  N6  UNL     1      35.313  56.291  59.839  1.00  0.00    -0.339 N
HETATM   41  O2  UNL     1      34.451  58.226  60.768  1.00  0.00    -0.267 OA
BRANCH  40  42
HETATM   42  C23 UNL     1      34.011  55.660  59.747  1.00  0.00     0.024 C
HETATM   43  C24 UNL     1      32.963  56.587  59.189  1.00  0.00     0.037 C
HETATM   44  C25 UNL     1      33.595  55.267  61.148  1.00  0.00     0.037 C
HETATM   45  C26 UNL     1      34.039  54.428  58.882  1.00  0.00     0.037 C
ENDBRANCH  40  42
ENDBRANCH  28  30
ENDBRANCH  24  28
ENDBRANCH  12  14
ENDBRANCH   9  12
ENDBRANCH   5   6
ENDBRANCH   4   5
ENDBRANCH   3   4
TORSDOF 8
ENDMDL