MODEL 4
REMARK VINA RESULT: -6.804687159      2.142      3.259
REMARK  5 active torsions:
REMARK  status: ('A' for Active; 'I' for Inactive)
REMARK    1  A    between atoms: C3_4  and  N2_5
REMARK    2  A    between atoms: N2_5  and  C4_7
REMARK    3  A    between atoms: C7_10  and  S1_11
REMARK    4  A    between atoms: S1_11  and  N3_14
REMARK    5  A    between atoms: N3_14  and  C8_16
ROOT
HETATM    1  N1  UNL     1      31.228  61.806  54.025  1.00  0.00    -0.191 NA
HETATM    2  C1  UNL     1      32.316  62.149  54.221  1.00  0.00     0.104 C
HETATM    3  C2  UNL     1      33.657  62.547  54.463  1.00  0.00     0.099 A
HETATM    4  C3  UNL     1      34.204  62.376  55.718  1.00  0.00     0.128 A
HETATM    5  N6  UNL     1      35.463  62.751  55.934  1.00  0.00    -0.338 N
ATOM      6  H6  UNL     1      35.872  62.627  56.861  1.00  0.00     0.167 HD
HETATM    7  C18 UNL     1      36.213  63.297  54.937  1.00  0.00     0.079 A
HETATM    8  C19 UNL     1      37.570  63.682  55.254  1.00  0.00     0.102 A
HETATM    9  C20 UNL     1      38.146  63.525  56.526  1.00  0.00     0.041 A
HETATM   10  C21 UNL     1      39.433  64.006  56.417  1.00  0.00     0.027 A
HETATM   11  C22 UNL     1      39.585  64.423  55.121  1.00  0.00     0.142 A
HETATM   12  O3  UNL     1      38.462  64.205  54.503  1.00  0.00    -0.320 OA
HETATM   13  C23 UNL     1      35.684  63.475  53.680  1.00  0.00     0.005 A
HETATM   14  C24 UNL     1      36.399  64.020  52.646  1.00  0.00     0.014 A
HETATM   15  C25 UNL     1      35.837  64.184  51.389  1.00  0.00     0.001 A
HETATM   16  C26 UNL     1      34.543  63.802  51.155  1.00  0.00     0.001 A
HETATM   17  C27 UNL     1      33.812  63.258  52.168  1.00  0.00     0.014 A
HETATM   18  C28 UNL     1      34.380  63.097  53.423  1.00  0.00     0.001 A
ENDROOT
BRANCH   4  19
HETATM   19  N2  UNL     1      33.503  61.877  56.640  1.00  0.00    -0.341 N
ATOM     20  H2  UNL     1      32.792  62.497  57.027  1.00  0.00     0.167 HD
BRANCH  19  21
HETATM   21  C4  UNL     1      33.553  60.604  57.212  1.00  0.00     0.033 A
HETATM   22  C5  UNL     1      33.197  60.343  58.516  1.00  0.00     0.031 A
HETATM   23  C6  UNL     1      33.270  59.053  59.030  1.00  0.00     0.027 A
HETATM   24  C7  UNL     1      33.699  57.996  58.259  1.00  0.00     0.080 A
HETATM   25  C16 UNL     1      34.045  58.295  56.960  1.00  0.00     0.027 A
HETATM   26  C17 UNL     1      33.981  59.560  56.434  1.00  0.00     0.031 A
BRANCH  24  27
HETATM   27  S1  UNL     1      33.793  56.366  58.886  1.00  0.00     0.264 S
HETATM   28  O1  UNL     1      33.723  56.497  60.393  1.00  0.00    -0.200 OA
HETATM   29  O2  UNL     1      32.540  55.654  58.444  1.00  0.00    -0.200 OA
BRANCH  27  30
HETATM   30  N3  UNL     1      35.224  55.610  58.350  1.00  0.00    -0.266 N
ATOM     31  H3  UNL     1      35.198  54.980  57.549  1.00  0.00     0.180 HD
BRANCH  30  32
HETATM   32  C8  UNL     1      36.334  55.832  58.955  1.00  0.00     0.115 A
HETATM   33  C9  UNL     1      37.101  56.889  58.516  1.00  0.00     0.051 A
HETATM   34  C10 UNL     1      38.310  57.219  59.091  1.00  0.00     0.035 A
HETATM   35  C11 UNL     1      38.738  56.432  60.154  1.00  0.00     0.059 A
HETATM   36  N4  UNL     1      39.919  56.729  60.740  1.00  0.00    -0.364 N
HETATM   37  C15 UNL     1      37.966  55.381  60.583  1.00  0.00     0.060 A
HETATM   38  C12 UNL     1      40.344  55.982  61.762  1.00  0.00     0.088 A
ATOM     39  H4  UNL     1      40.479  57.514  60.405  1.00  0.00     0.165 HD
HETATM   40  C13 UNL     1      39.596  54.913  62.226  1.00  0.00     0.019 A
HETATM   41  C14 UNL     1      38.378  54.575  61.650  1.00  0.00     0.033 A
HETATM   42  N5  UNL     1      36.775  55.094  59.980  1.00  0.00    -0.340 N
ATOM     43  H5  UNL     1      36.216  54.309  60.315  1.00  0.00     0.167 HD
ENDBRANCH  30  32
ENDBRANCH  27  30
ENDBRANCH  24  27
ENDBRANCH  19  21
ENDBRANCH   4  19
TORSDOF 5
ENDMDL