MODEL 5
REMARK VINA RESULT: -6.393591108      1.767      3.518
REMARK  6 active torsions:
REMARK  status: ('A' for Active; 'I' for Inactive)
REMARK    1  A    between atoms: N1_2  and  C2_3
REMARK    2  A    between atoms: N1_2  and  C26_37
REMARK    3  A    between atoms: C2_3  and  C3_4
REMARK    4  A    between atoms: C12_15  and  C13_16
REMARK    5  A    between atoms: C16_23  and  N6_24
REMARK    6  A    between atoms: C26_37  and  C27_38
ROOT
HETATM    1  C13 UNL     1      30.340  57.729  49.428  1.00  0.00     0.070 A
HETATM    2  N3  UNL     1      30.772  58.342  50.540  1.00  0.00    -0.328 N
ATOM      3  H3  UNL     1      31.768  58.325  50.758  1.00  0.00     0.168 HD
HETATM    4  C14 UNL     1      29.932  58.981  51.377  1.00  0.00     0.196 A
HETATM    5  N4  UNL     1      30.439  59.620  52.548  1.00  0.00    -0.063 NA
HETATM    6  N5  UNL     1      28.610  59.056  51.171  1.00  0.00    -0.311 N
HETATM    7  C15 UNL     1      27.746  59.757  52.101  1.00  0.00     0.160 C
HETATM    8  C16 UNL     1      28.126  58.456  50.072  1.00  0.00     0.126 A
HETATM    9  C17 UNL     1      28.992  57.783  49.188  1.00  0.00     0.116 A
HETATM   10  C18 UNL     1      28.329  57.080  48.116  1.00  0.00     0.105 C
HETATM   11  N7  UNL     1      27.795  56.490  47.269  1.00  0.00    -0.191 NA
ENDROOT
BRANCH   1  12
HETATM   12  C12 UNL     1      31.234  56.941  48.660  1.00  0.00     0.004 C
HETATM   13  C10 UNL     1      31.768  57.535  47.439  1.00  0.00    -0.010 C
HETATM   14  C9  UNL     1      32.194  56.889  46.205  1.00  0.00     0.010 C
HETATM   15  C11 UNL     1      31.751  58.844  47.698  1.00  0.00     0.026 C
HETATM   16  C6  UNL     1      32.181  57.446  44.837  1.00  0.00    -0.027 C
HETATM   17  C8  UNL     1      32.681  55.636  46.093  1.00  0.00     0.051 C
HETATM   18  C5  UNL     1      32.249  58.727  44.524  1.00  0.00     0.011 C
HETATM   19  C7  UNL     1      32.101  56.269  43.926  1.00  0.00     0.159 C
HETATM   20  C4  UNL     1      32.334  59.865  45.483  1.00  0.00     0.013 C
HETATM   21  C3  UNL     1      32.150  59.941  46.783  1.00  0.00    -0.020 C
HETATM   22  N2  UNL     1      32.968  55.342  44.739  1.00  0.00    -0.384 N
ATOM     23  H2  UNL     1      33.625  54.646  44.387  1.00  0.00     0.160 HD
HETATM   24  C25 UNL     1      32.974  54.702  47.198  1.00  0.00     0.001 A
HETATM   25  C20 UNL     1      32.527  54.776  48.523  1.00  0.00    -0.023 A
HETATM   26  C24 UNL     1      33.820  53.696  46.808  1.00  0.00     0.014 A
HETATM   27  C19 UNL     1      31.606  55.729  49.091  1.00  0.00     0.027 C
HETATM   28  C21 UNL     1      32.938  53.831  49.467  1.00  0.00     0.012 A
HETATM   29  C22 UNL     1      33.788  52.836  49.047  1.00  0.00     0.001 A
HETATM   30  C23 UNL     1      34.227  52.760  47.742  1.00  0.00     0.001 A
BRANCH  21  31
HETATM   31  C2  UNL     1      32.304  61.230  47.495  1.00  0.00     0.101 C
BRANCH  31  32
HETATM   32  N1  UNL     1      33.528  61.875  47.454  1.00  0.00    -0.369 N
HETATM   33  C1  UNL     1      33.640  63.180  46.971  1.00  0.00     0.154 C
BRANCH  32  34
HETATM   34  C26 UNL     1      34.684  61.317  48.026  1.00  0.00     0.101 C
BRANCH  34  35
HETATM   35  C27 UNL     1      35.785  61.005  47.098  1.00  0.00    -0.021 A
HETATM   36  C28 UNL     1      36.991  61.677  47.211  1.00  0.00     0.013 A
HETATM   37  C29 UNL     1      38.042  61.374  46.337  1.00  0.00     0.001 A
HETATM   38  C30 UNL     1      37.886  60.415  45.368  1.00  0.00     0.000 A
HETATM   39  C31 UNL     1      36.676  59.739  45.254  1.00  0.00     0.001 A
HETATM   40  C32 UNL     1      35.638  60.046  46.127  1.00  0.00     0.013 A
ENDBRANCH  34  35
ENDBRANCH  32  34
ENDBRANCH  31  32
ENDBRANCH  21  31
ENDBRANCH   1  12
BRANCH   8  41
HETATM   41  N6  UNL     1      26.862  58.515  49.852  1.00  0.00    -0.384 N
ATOM     42  H62 UNL     1      26.203  58.720  50.602  1.00  0.00     0.157 HD
ATOM     43  H61 UNL     1      26.527  58.350  48.902  1.00  0.00     0.157 HD
ENDBRANCH   8  41
TORSDOF 6
ENDMDL