MODEL 1
REMARK VINA RESULT: -5.664747476      0.000      0.000
REMARK  7 active torsions:
REMARK  status: ('A' for Active; 'I' for Inactive)
REMARK    1  A    between atoms: C5_5  and  C6_6
REMARK       I    between atoms: C6_6  and  N1_8
REMARK    2  A    between atoms: N1_8  and  C7_10
REMARK    3  A    between atoms: C14_20  and  N4_21
REMARK    4  A    between atoms: N4_21  and  C15_23
REMARK    5  A    between atoms: C19_31  and  N7_32
REMARK    6  A    between atoms: N7_32  and  S1_34
REMARK    7  A    between atoms: C23_39  and  C24_40
ROOT
HETATM    1  C7  UNL     1      36.265  55.555  59.370  1.00  0.00     0.107 A
HETATM    2  C8  UNL     1      36.977  56.631  58.850  1.00  0.00     0.050 A
HETATM    3  C9  UNL     1      38.209  56.931  59.383  1.00  0.00     0.028 A
HETATM    4  C10 UNL     1      38.767  56.208  60.414  1.00  0.00     0.060 A
HETATM    5  C11 UNL     1      40.050  56.524  60.969  1.00  0.00     0.101 C
HETATM    6  N2  UNL     1      41.078  56.790  61.431  1.00  0.00    -0.191 NA
HETATM    7  C12 UNL     1      38.023  55.147  60.901  1.00  0.00     0.112 A
HETATM    8  N3  UNL     1      36.819  54.852  60.380  1.00  0.00    -0.351 N
ATOM      9  H3  UNL     1      36.301  54.062  60.765  1.00  0.00     0.166 HD
ENDROOT
BRANCH   1  10
HETATM   10  N1  UNL     1      35.131  55.316  58.850  1.00  0.00    -0.309 N
HETATM   11  C6  UNL     1      33.901  55.200  59.537  1.00  0.00     0.257 C
HETATM   12  O1  UNL     1      33.450  54.054  59.766  1.00  0.00    -0.267 OA
ATOM     13  H1  UNL     1      35.105  55.196  57.837  1.00  0.00     0.170 HD
BRANCH  11  14
HETATM   14  C5  UNL     1      33.198  56.392  59.956  1.00  0.00     0.034 A
HETATM   15  C4  UNL     1      31.964  56.298  60.563  1.00  0.00     0.018 A
HETATM   16  C3  UNL     1      31.303  57.458  60.969  1.00  0.00     0.010 A
HETATM   17  C2  UNL     1      31.846  58.717  60.783  1.00  0.00    -0.035 A
HETATM   18  C1  UNL     1      31.144  59.950  61.216  1.00  0.00     0.050 C
HETATM   19  C14 UNL     1      33.081  58.787  60.173  1.00  0.00     0.040 A
HETATM   20  C13 UNL     1      33.748  57.647  59.766  1.00  0.00     0.047 A
BRANCH  19  21
HETATM   21  N4  UNL     1      33.672  60.088  59.973  1.00  0.00    -0.341 N
ATOM     22  H4  UNL     1      33.156  60.797  59.453  1.00  0.00     0.167 HD
BRANCH  21  23
HETATM   23  C15 UNL     1      34.822  60.367  60.433  1.00  0.00     0.119 A
HETATM   24  N5  UNL     1      34.965  60.520  61.790  1.00  0.00    -0.338 N
HETATM   25  C16 UNL     1      36.152  60.825  62.274  1.00  0.00     0.182 A
ATOM     26  H5  UNL     1      34.165  60.399  62.412  1.00  0.00     0.168 HD
HETATM   27  N6  UNL     1      37.229  60.991  61.497  1.00  0.00    -0.351 N
HETATM   28  C17 UNL     1      37.157  60.855  60.165  1.00  0.00     0.049 A
ATOM     29  H6  UNL     1      38.123  61.226  61.927  1.00  0.00     0.166 HD
HETATM   30  C18 UNL     1      38.264  61.037  59.372  1.00  0.00     0.060 A
HETATM   31  C27 UNL     1      35.904  60.528  59.602  1.00  0.00     0.042 A
HETATM   32  C19 UNL     1      38.169  60.904  58.019  1.00  0.00     0.042 A
HETATM   33  C22 UNL     1      36.960  60.589  57.494  1.00  0.00     0.038 A
HETATM   34  C23 UNL     1      35.778  60.387  58.248  1.00  0.00    -0.036 A
BRANCH  32  35
HETATM   35  N7  UNL     1      39.357  61.105  57.263  1.00  0.00    -0.317 N
ATOM     36  H7  UNL     1      39.920  60.338  56.895  1.00  0.00     0.175 HD
BRANCH  35  37
HETATM   37  S1  UNL     1      39.726  62.635  57.041  1.00  0.00     0.017 S
HETATM   38  C20 UNL     1      38.304  63.664  57.366  1.00  0.00     0.136 C
HETATM   39  C21 UNL     1      41.105  63.055  58.037  1.00  0.00     0.136 C
HETATM   40  O2  UNL     1      39.988  62.721  55.563  1.00  0.00    -0.250 OA
ENDBRANCH  35  37
ENDBRANCH  32  35
BRANCH  34  41
HETATM   41  C24 UNL     1      34.562  60.014  57.556  1.00  0.00     0.011 C
HETATM   42  C25 UNL     1      34.127  61.137  56.571  1.00  0.00     0.015 C
HETATM   43  C26 UNL     1      35.035  58.950  56.559  1.00  0.00     0.015 C
ENDBRANCH  34  41
ENDBRANCH  21  23
ENDBRANCH  19  21
ENDBRANCH  11  14
ENDBRANCH   1  10
TORSDOF 7
ENDMDL