MODEL 5
REMARK VINA RESULT: -6.199038151      2.220      4.596
REMARK  6 active torsions:
REMARK  status: ('A' for Active; 'I' for Inactive)
REMARK    1  A    between atoms: N1_1  and  S1_4
REMARK    2  A    between atoms: S1_4  and  C1_7
REMARK    3  A    between atoms: C6_12  and  N2_13
REMARK    4  A    between atoms: N2_13  and  C7_15
REMARK    5  A    between atoms: C11_21  and  C12_22
REMARK    6  A    between atoms: N5_35  and  C23_36
ROOT
HETATM    1  C7  UNL     1      34.525  60.828  55.857  1.00  0.00     0.176 A
HETATM    2  N3  UNL     1      35.754  61.242  56.281  1.00  0.00    -0.336 N
ATOM      3  H3  UNL     1      36.136  62.121  55.933  1.00  0.00     0.168 HD
HETATM    4  C8  UNL     1      36.461  60.516  57.142  1.00  0.00     0.061 A
HETATM    5  C9  UNL     1      37.697  60.969  57.545  1.00  0.00     0.033 A
HETATM    6  C10 UNL     1      38.472  60.237  58.448  1.00  0.00     0.014 A
HETATM    7  C11 UNL     1      37.985  59.041  58.937  1.00  0.00    -0.024 A
HETATM    8  C21 UNL     1      36.729  58.581  58.527  1.00  0.00     0.044 A
HETATM    9  C22 UNL     1      35.973  59.312  57.638  1.00  0.00     0.070 A
HETATM   10  N5  UNL     1      34.754  58.892  57.223  1.00  0.00    -0.274 N
HETATM   11  C29 UNL     1      34.033  59.636  56.342  1.00  0.00     0.297 A
HETATM   12  O3  UNL     1      32.920  59.142  56.031  1.00  0.00    -0.263 OA
ENDROOT
BRANCH   1  13
HETATM   13  N2  UNL     1      33.848  61.513  55.040  1.00  0.00    -0.337 N
ATOM     14  H2  UNL     1      33.926  61.195  54.074  1.00  0.00     0.167 HD
BRANCH  13  15
HETATM   15  C6  UNL     1      33.023  62.609  55.201  1.00  0.00     0.057 A
HETATM   16  C1  UNL     1      33.207  63.725  54.382  1.00  0.00     0.105 A
HETATM   17  C2  UNL     1      32.410  64.859  54.504  1.00  0.00     0.027 A
HETATM   18  C3  UNL     1      31.405  64.925  55.441  1.00  0.00     0.002 A
HETATM   19  C4  UNL     1      31.225  63.820  56.251  1.00  0.00     0.002 A
HETATM   20  C5  UNL     1      32.003  62.693  56.142  1.00  0.00     0.031 A
BRANCH  16  21
HETATM   21  S1  UNL     1      34.479  63.677  53.190  1.00  0.00     0.259 S
HETATM   22  O1  UNL     1      35.739  63.204  53.911  1.00  0.00    -0.201 OA
HETATM   23  O2  UNL     1      34.833  65.008  52.626  1.00  0.00    -0.201 OA
BRANCH  21  24
HETATM   24  N1  UNL     1      34.182  62.475  51.987  1.00  0.00    -0.324 N
ATOM     25  H12 UNL     1      33.826  61.531  52.140  1.00  0.00     0.169 HD
ATOM     26  H11 UNL     1      34.439  62.918  51.106  1.00  0.00     0.169 HD
ENDBRANCH  21  24
ENDBRANCH  16  21
ENDBRANCH  13  15
ENDBRANCH   1  13
BRANCH  10  27
HETATM   27  C23 UNL     1      34.241  57.666  57.718  1.00  0.00     0.043 A
HETATM   28  C24 UNL     1      33.398  57.745  58.828  1.00  0.00     0.030 A
HETATM   29  C25 UNL     1      32.856  56.598  59.372  1.00  0.00     0.002 A
HETATM   30  C26 UNL     1      33.145  55.367  58.824  1.00  0.00     0.000 A
HETATM   31  C27 UNL     1      33.979  55.294  57.726  1.00  0.00     0.002 A
HETATM   32  C28 UNL     1      34.523  56.435  57.178  1.00  0.00     0.030 A
ENDBRANCH  10  27
BRANCH   7  33
HETATM   33  C12 UNL     1      38.779  58.255  59.885  1.00  0.00    -0.025 A
HETATM   34  C13 UNL     1      39.588  58.845  60.831  1.00  0.00     0.013 A
HETATM   35  C14 UNL     1      40.325  58.082  61.712  1.00  0.00     0.014 A
HETATM   36  C15 UNL     1      40.294  56.703  61.693  1.00  0.00    -0.011 A
HETATM   37  C16 UNL     1      41.043  55.966  62.586  1.00  0.00     0.099 A
HETATM   38  C19 UNL     1      39.486  56.108  60.747  1.00  0.00    -0.022 A
HETATM   39  N4  UNL     1      40.981  54.610  62.530  1.00  0.00    -0.374 N
HETATM   40  C17 UNL     1      40.198  53.987  61.614  1.00  0.00     0.088 A
ATOM     41  H4  UNL     1      41.531  54.054  63.185  1.00  0.00     0.164 HD
HETATM   42  C18 UNL     1      39.453  54.733  60.726  1.00  0.00     0.029 A
HETATM   43  C20 UNL     1      38.744  56.866  59.862  1.00  0.00     0.024 A
ENDBRANCH   7  33
TORSDOF 6
ENDMDL