MODEL 3
REMARK VINA RESULT: -8.248447656      2.534      7.632
REMARK  8 active torsions:
REMARK  status: ('A' for Active; 'I' for Inactive)
REMARK    1  A    between atoms: O1_2  and  C2_3
REMARK    2  A    between atoms: C2_3  and  C4_5
REMARK       I    between atoms: C4_5  and  N1_7
REMARK    3  A    between atoms: C7_10  and  C8_11
REMARK    4  A    between atoms: C10_16  and  O3_17
REMARK    5  A    between atoms: O3_17  and  C11_18
REMARK    6  A    between atoms: C11_18  and  C12_20
REMARK    7  A    between atoms: C13_23  and  O5_24
REMARK    8  A    between atoms: C15_27  and  N4_28
ROOT
HETATM    1  C4  UNL     1      30.698  67.120   3.252  1.00  0.00     0.257 C
HETATM    2  O2  UNL     1      31.794  66.481   3.494  1.00  0.00    -0.270 OA
HETATM    3  N1  UNL     1      30.056  66.858   2.030  1.00  0.00    -0.288 N
HETATM    4  C5  UNL     1      28.915  67.437   1.613  1.00  0.00     0.101 A
HETATM    5  C6  UNL     1      28.559  66.938   0.352  1.00  0.00     0.033 A
HETATM    6  C7  UNL     1      29.523  66.030   0.006  1.00  0.00     0.009 A
HETATM    7  C9  UNL     1      30.428  65.987   1.028  1.00  0.00     0.075 A
HETATM    8  C10 UNL     1      31.474  65.190   1.023  1.00  0.00     0.177 C
ENDROOT
BRANCH   8   9
HETATM    9  O3  UNL     1      31.790  64.326  -0.054  1.00  0.00    -0.283 OA
BRANCH   9  10
HETATM   10  C11 UNL     1      32.043  62.974   0.205  1.00  0.00     0.332 C
HETATM   11  O4  UNL     1      31.419  62.124  -0.459  1.00  0.00    -0.256 OA
BRANCH  10  12
HETATM   12  C12 UNL     1      32.994  62.580   1.210  1.00  0.00     0.186 A
HETATM   13  N3  UNL     1      34.162  63.227   1.365  1.00  0.00    -0.318 N
HETATM   14  C13 UNL     1      35.054  62.880   2.286  1.00  0.00     0.145 A
ATOM     15  H3  UNL     1      34.372  64.015   0.752  1.00  0.00     0.169 HD
HETATM   16  C14 UNL     1      34.813  61.814   3.146  1.00  0.00     0.103 A
HETATM   17  C15 UNL     1      33.614  61.149   2.988  1.00  0.00     0.104 A
HETATM   18  N5  UNL     1      32.767  61.547   2.048  1.00  0.00    -0.324 N
ATOM     19  H5  UNL     1      31.888  61.039   1.952  1.00  0.00     0.169 HD
BRANCH  14  20
HETATM   20  O5  UNL     1      36.253  63.564   2.425  1.00  0.00    -0.346 OA
ATOM     21  H5  UNL     1      36.636  63.723   3.280  1.00  0.00     0.219 HD
ENDBRANCH  14  20
BRANCH  17  22
HETATM   22  N4  UNL     1      33.340  60.138   3.771  1.00  0.00    -0.385 N
ATOM     23  H42 UNL     1      33.001  60.278   4.723  1.00  0.00     0.157 HD
ATOM     24  H41 UNL     1      33.469  59.190   3.420  1.00  0.00     0.157 HD
ENDBRANCH  17  22
ENDBRANCH  10  12
ENDBRANCH   9  10
ENDBRANCH   8   9
BRANCH   6  25
HETATM   25  C8  UNL     1      29.542  65.321  -1.100  1.00  0.00     0.094 C
HETATM   26  N2  UNL     1      29.913  64.960  -2.295  1.00  0.00    -0.407 N
ATOM     27  H22 UNL     1      30.622  65.677  -2.450  1.00  0.00     0.155 HD
ATOM     28  H21 UNL     1      29.928  64.410  -3.154  1.00  0.00     0.155 HD
ENDBRANCH   6  25
BRANCH   1  29
HETATM   29  C2  UNL     1      30.289  68.033   4.306  1.00  0.00     0.209 C
HETATM   30  C3  UNL     1      31.111  67.828   5.586  1.00  0.00     0.050 C
BRANCH  29  31
HETATM   31  O1  UNL     1      30.284  69.359   3.976  1.00  0.00    -0.382 OA
HETATM   32  C1  UNL     1      29.897  70.161   5.073  1.00  0.00     0.202 C
ENDBRANCH  29  31
ENDBRANCH   1  29
TORSDOF 8
ENDMDL