MODEL 1
REMARK VINA RESULT: -8.125781513      0.000      0.000
REMARK  8 active torsions:
REMARK  status: ('A' for Active; 'I' for Inactive)
REMARK    1  A    between atoms: O1_2  and  C2_3
REMARK    2  A    between atoms: C2_3  and  C3_5
REMARK    3  A    between atoms: C3_5  and  N1_6
REMARK    4  A    between atoms: C3_5  and  C4_10
REMARK    5  A    between atoms: N1_6  and  O3_8
REMARK    6  A    between atoms: C5_13  and  S1_14
REMARK    7  A    between atoms: C7_20  and  C8_21
REMARK    8  A    between atoms: C10_28  and  O7_29
ROOT
HETATM    1  C4  UNL     1      30.232  68.549   1.918  1.00  0.00     0.099 A
HETATM    2  N2  UNL     1      30.415  67.644   0.875  1.00  0.00    -0.329 N
ATOM      3  H2  UNL     1      30.271  67.828  -0.118  1.00  0.00     0.168 HD
HETATM    4  C5  UNL     1      30.815  66.489   1.417  1.00  0.00     0.203 A
HETATM    5  N3  UNL     1      30.882  66.638   2.718  1.00  0.00    -0.329 N
ATOM      6  H3  UNL     1      31.165  65.908   3.373  1.00  0.00     0.168 HD
HETATM    7  C7  UNL     1      30.515  67.920   3.079  1.00  0.00     0.095 A
ENDROOT
BRANCH   7   8
HETATM    8  C8  UNL     1      30.504  68.371   4.447  1.00  0.00     0.117 A
HETATM    9  N4  UNL     1      29.957  69.589   4.801  1.00  0.00    -0.303 N
HETATM   10  C9  UNL     1      30.202  69.877   6.065  1.00  0.00     0.326 A
ATOM     11  H4  UNL     1      29.430  70.189   4.166  1.00  0.00     0.171 HD
HETATM   12  O6  UNL     1      29.819  70.927   6.657  1.00  0.00    -0.247 OA
HETATM   13  N5  UNL     1      30.904  68.903   6.605  1.00  0.00    -0.287 N
HETATM   14  C10 UNL     1      31.097  67.970   5.611  1.00  0.00     0.174 A
ATOM     15  H5  UNL     1      31.238  68.851   7.567  1.00  0.00     0.172 HD
BRANCH  14  16
HETATM   16  O7  UNL     1      31.819  66.845   5.887  1.00  0.00    -0.344 OA
ATOM     17  H7  UNL     1      31.529  65.990   6.183  1.00  0.00     0.219 HD
ENDBRANCH  14  16
ENDBRANCH   7   8
BRANCH   1  18
HETATM   18  C3  UNL     1      30.138  69.943   1.531  1.00  0.00     0.158 C
BRANCH  18  19
HETATM   19  C2  UNL     1      28.876  70.638   1.652  1.00  0.00     0.314 C
HETATM   20  O2  UNL     1      27.838  70.358   1.037  1.00  0.00    -0.257 OA
BRANCH  19  21
HETATM   21  O1  UNL     1      28.781  71.729   2.532  1.00  0.00    -0.321 OA
HETATM   22  C1  UNL     1      27.618  71.956   3.296  1.00  0.00     0.213 C
ENDBRANCH  19  21
ENDBRANCH  18  19
BRANCH  18  23
HETATM   23  N1  UNL     1      31.131  70.602   1.150  1.00  0.00    -0.261 N
ATOM     24  H1  UNL     1      31.629  70.286   0.318  1.00  0.00     0.194 HD
BRANCH  23  25
HETATM   25  O3  UNL     1      31.581  71.714   1.787  1.00  0.00    -0.289 OA
ATOM     26  H3  UNL     1      31.096  72.531   1.819  1.00  0.00     0.244 HD
ENDBRANCH  23  25
ENDBRANCH  18  23
ENDBRANCH   1  18
BRANCH   4  27
HETATM   27  S1  UNL     1      31.166  65.056   0.450  1.00  0.00     0.203 S
HETATM   28  C6  UNL     1      30.205  65.069  -1.047  1.00  0.00     0.170 C
HETATM   29  O4  UNL     1      32.645  65.163   0.098  1.00  0.00    -0.220 OA
HETATM   30  O5  UNL     1      30.960  63.835   1.262  1.00  0.00    -0.220 OA
ENDBRANCH   4  27
TORSDOF 8
ENDMDL