MODEL 1
REMARK VINA RESULT: -8.592458735      0.000      0.000
REMARK  10 active torsions:
REMARK  status: ('A' for Active; 'I' for Inactive)
REMARK       I    between atoms: C2_2  and  N1_4
REMARK    1  A    between atoms: N1_4  and  C3_6
REMARK    2  A    between atoms: C4_7  and  O2_8
REMARK    3  A    between atoms: C6_12  and  C7_13
REMARK    4  A    between atoms: C10_17  and  N2_18
REMARK    5  A    between atoms: N2_18  and  C11_20
REMARK    6  A    between atoms: C11_20  and  C12_26
REMARK    7  A    between atoms: N3_21  and  N4_23
REMARK    8  A    between atoms: N4_23  and  O5_24
REMARK    9  A    between atoms: C12_26  and  N5_27
REMARK   10  A    between atoms: C12_26  and  O6_31
ROOT
HETATM    1  C3  UNL     1      30.635  66.838   3.050  1.00  0.00     0.109 C
HETATM    2  C4  UNL     1      29.638  66.998   2.069  1.00  0.00     0.147 C
HETATM    3  C5  UNL     1      28.956  68.176   1.757  1.00  0.00     0.220 C
HETATM    4  O3  UNL     1      28.019  68.051   0.929  1.00  0.00    -0.284 OA
HETATM    5  C6  UNL     1      29.181  69.462   2.243  1.00  0.00     0.056 C
HETATM    6  C8  UNL     1      29.920  69.836   3.364  1.00  0.00     0.037 C
HETATM    7  C9  UNL     1      30.399  68.958   4.330  1.00  0.00     0.049 A
HETATM    8  C10 UNL     1      30.640  69.271   5.650  1.00  0.00     0.140 A
HETATM    9  N6  UNL     1      31.072  68.136   6.222  1.00  0.00    -0.243 N
ATOM     10  H6  UNL     1      31.334  68.042   7.203  1.00  0.00     0.196 HD
HETATM   11  O7  UNL     1      31.107  67.175   5.349  1.00  0.00    -0.233 OA
HETATM   12  C13 UNL     1      30.714  67.596   4.176  1.00  0.00     0.142 A
ENDROOT
BRANCH   8  13
HETATM   13  N2  UNL     1      30.466  70.422   6.151  1.00  0.00    -0.325 N
ATOM     14  H2  UNL     1      31.285  71.026   6.216  1.00  0.00     0.169 HD
BRANCH  13  15
HETATM   15  C11 UNL     1      29.248  70.943   6.626  1.00  0.00     0.153 C
HETATM   16  N3  UNL     1      28.351  71.428   5.835  1.00  0.00    -0.263 N
ATOM     17  H3  UNL     1      28.515  71.440   4.829  1.00  0.00     0.186 HD
BRANCH  16  18
HETATM   18  N4  UNL     1      27.159  71.934   6.350  1.00  0.00     0.020 NA
BRANCH  18  19
HETATM   19  O5  UNL     1      26.923  73.204   5.975  1.00  0.00    -0.277 OA
ATOM     20  H5  UNL     1      26.120  73.555   6.340  1.00  0.00     0.240 HD
ENDBRANCH  18  19
ENDBRANCH  16  18
BRANCH  15  21
HETATM   21  C12 UNL     1      29.009  70.926   8.092  1.00  0.00     0.386 C
BRANCH  21  22
HETATM   22  N5  UNL     1      27.912  70.015   8.427  1.00  0.00    -0.046 N
ATOM     23  H53 UNL     1      27.287  69.867   7.634  1.00  0.00     0.277 HD
ATOM     24  H52 UNL     1      28.239  69.057   8.546  1.00  0.00     0.277 HD
ATOM     25  H51 UNL     1      27.406  70.346   9.249  1.00  0.00     0.277 HD
ENDBRANCH  21  22
BRANCH  21  26
HETATM   26  O6  UNL     1      28.644  72.216   8.469  1.00  0.00    -0.364 OA
ATOM     27  H6  UNL     1      29.388  72.602   8.917  1.00  0.00     0.212 HD
ENDBRANCH  21  26
ENDBRANCH  15  21
ENDBRANCH  13  15
ENDBRANCH   8  13
BRANCH   5  28
HETATM   28  C7  UNL     1      28.584  70.567   1.506  1.00  0.00     0.274 C
HETATM   29  O4  UNL     1      28.795  71.754   1.847  1.00  0.00    -0.301 OA
ENDBRANCH   5  28
BRANCH   1  30
HETATM   30  N1  UNL     1      31.553  65.821   2.838  1.00  0.00    -0.323 N
HETATM   31  C2  UNL     1      32.431  65.551   1.794  1.00  0.00     0.218 C
HETATM   32  C1  UNL     1      33.330  64.346   1.870  1.00  0.00     0.117 C
HETATM   33  O1  UNL     1      32.534  66.240   0.780  1.00  0.00    -0.274 OA
ATOM     34  H1  UNL     1      31.591  65.138   3.595  1.00  0.00     0.169 HD
ENDBRANCH   1  30
BRANCH   2  35
HETATM   35  O2  UNL     1      29.346  65.843   1.377  1.00  0.00    -0.355 OA
ATOM     36  H2  UNL     1      28.459  65.812   1.038  1.00  0.00     0.218 HD
ENDBRANCH   2  35
TORSDOF 10
ENDMDL