MODEL 4
REMARK VINA RESULT: -7.958382445      1.284      1.409
REMARK  7 active torsions:
REMARK  status: ('A' for Active; 'I' for Inactive)
REMARK    1  A    between atoms: C2_2  and  O1_3
REMARK    2  A    between atoms: O1_3  and  C3_4
REMARK    3  A    between atoms: C3_4  and  C4_6
REMARK    4  A    between atoms: C4_6  and  C5_7
REMARK    5  A    between atoms: C8_13  and  C9_14
REMARK    6  A    between atoms: C12_23  and  N6_24
REMARK    7  A    between atoms: C13_29  and  N8_30
ROOT
HETATM    1  C9  UNL     1      30.200  70.626   7.624  1.00  0.00     0.201 C
HETATM    2  C10 UNL     1      28.987  71.427   7.460  1.00  0.00     0.066 C
HETATM    3  N2  UNL     1      28.020  72.046   7.343  1.00  0.00    -0.197 NA
ENDROOT
BRANCH   1   4
HETATM    4  C8  UNL     1      30.368  69.779   6.395  1.00  0.00     0.112 A
HETATM    5  N1  UNL     1      31.038  68.618   6.478  1.00  0.00    -0.309 N
HETATM    6  C7  UNL     1      31.241  67.794   5.436  1.00  0.00     0.278 A
ATOM      7  H1  UNL     1      31.415  68.346   7.386  1.00  0.00     0.170 HD
HETATM    8  C6  UNL     1      30.715  68.190   4.209  1.00  0.00     0.167 A
HETATM    9  O3  UNL     1      31.880  66.722   5.597  1.00  0.00    -0.265 OA
HETATM   10  C5  UNL     1      30.743  67.584   2.945  1.00  0.00     0.097 A
HETATM   11  N4  UNL     1      30.047  69.353   4.138  1.00  0.00    -0.076 N
HETATM   12  N9  UNL     1      30.079  68.417   2.135  1.00  0.00     0.024 N
HETATM   13  C11 UNL     1      29.662  69.481   2.860  1.00  0.00     0.740 A
HETATM   14  C13 UNL     1      29.812  68.324   0.820  1.00  0.00     0.712 A
HETATM   15  N5  UNL     1      28.972  70.437   2.217  1.00  0.00    -0.019 N
HETATM   16  C12 UNL     1      28.691  70.367   0.895  1.00  0.00     0.705 A
ATOM     17  H5  UNL     1      28.648  71.248   2.745  1.00  0.00     0.203 HD
HETATM   18  N7  UNL     1      29.120  69.298   0.202  1.00  0.00    -0.021 N
ATOM     19  H7  UNL     1      28.919  69.225  -0.795  1.00  0.00     0.203 HD
HETATM   20  N3  UNL     1      29.870  70.144   5.210  1.00  0.00    -0.266 N
ATOM     21  H3  UNL     1      29.356  71.020   5.119  1.00  0.00     0.189 HD
BRANCH  10  22
HETATM   22  C4  UNL     1      31.402  66.285   2.666  1.00  0.00     0.172 C
BRANCH  22  23
HETATM   23  C3  UNL     1      30.370  65.327   2.172  1.00  0.00     0.264 C
HETATM   24  O2  UNL     1      29.216  65.245   2.628  1.00  0.00    -0.265 OA
BRANCH  23  25
HETATM   25  O1  UNL     1      30.734  64.487   1.143  1.00  0.00    -0.322 OA
BRANCH  25  26
HETATM   26  C2  UNL     1      32.123  64.205   0.953  1.00  0.00     0.174 C
HETATM   27  C1  UNL     1      32.192  62.719   0.596  1.00  0.00     0.034 C
ENDBRANCH  25  26
ENDBRANCH  23  25
ENDBRANCH  22  23
ENDBRANCH  10  22
BRANCH  16  28
HETATM   28  N6  UNL     1      28.023  71.314   0.314  1.00  0.00    -0.234 N
ATOM     29  H62 UNL     1      28.368  72.274   0.311  1.00  0.00     0.174 HD
ATOM     30  H61 UNL     1      27.138  71.112  -0.151  1.00  0.00     0.174 HD
ENDBRANCH  16  28
BRANCH  14  31
HETATM   31  N8  UNL     1      30.196  67.335   0.091  1.00  0.00    -0.233 N
ATOM     32  H82 UNL     1      30.944  67.406  -0.598  1.00  0.00     0.174 HD
ATOM     33  H81 UNL     1      29.706  66.449   0.226  1.00  0.00     0.174 HD
ENDBRANCH  14  31
ENDBRANCH   1   4
TORSDOF 7
ENDMDL