MODEL 2
REMARK VINA RESULT: -7.970568400      3.001      3.195
REMARK  8 active torsions:
REMARK  status: ('A' for Active; 'I' for Inactive)
REMARK    1  A    between atoms: N1_1  and  S1_4
REMARK    2  A    between atoms: S1_4  and  C1_7
REMARK       I    between atoms: N4_13  and  C3_15
REMARK    3  A    between atoms: C3_15  and  C4_17
REMARK    4  A    between atoms: C5_18  and  C6_19
REMARK    5  A    between atoms: C6_19  and  O4_20
REMARK    6  A    between atoms: C7_24  and  O5_25
REMARK    7  A    between atoms: C8_27  and  N6_28
REMARK    8  A    between atoms: N6_28  and  O6_30
ROOT
HETATM    1  C1  UNL     1      28.872  66.177  -1.195  1.00  0.00     0.208 A
HETATM    2  N2  UNL     1      29.966  65.637  -1.705  1.00  0.00    -0.281 N
ATOM      3  H2  UNL     1      30.262  65.891  -2.648  1.00  0.00     0.188 HD
HETATM    4  N3  UNL     1      30.649  64.808  -1.032  1.00  0.00    -0.278 N
ATOM      5  H3  UNL     1      31.494  64.391  -1.424  1.00  0.00     0.189 HD
HETATM    6  C2  UNL     1      30.240  64.490   0.199  1.00  0.00     0.169 A
HETATM    7  N4  UNL     1      30.799  63.661   1.050  1.00  0.00    -0.302 N
ATOM      8  H4  UNL     1      30.359  63.526   1.960  1.00  0.00     0.171 HD
HETATM    9  C3  UNL     1      31.970  62.956   0.762  1.00  0.00     0.262 C
HETATM   10  O3  UNL     1      32.043  62.231  -0.264  1.00  0.00    -0.267 OA
HETATM   11  S2  UNL     1      28.828  65.441   0.344  1.00  0.00    -0.020 SA
ENDROOT
BRANCH   9  12
HETATM   12  C4  UNL     1      33.119  63.058   1.653  1.00  0.00     0.089 A
HETATM   13  C5  UNL     1      33.889  64.193   1.795  1.00  0.00     0.053 A
HETATM   14  N5  UNL     1      34.872  63.978   2.687  1.00  0.00    -0.336 N
HETATM   15  C7  UNL     1      34.768  62.706   3.143  1.00  0.00     0.170 A
ATOM     16  H5  UNL     1      35.578  64.657   2.972  1.00  0.00     0.168 HD
HETATM   17  C8  UNL     1      33.671  62.127   2.498  1.00  0.00     0.122 A
BRANCH  13  18
HETATM   18  C6  UNL     1      33.675  65.472   1.077  1.00  0.00     0.222 C
BRANCH  18  19
HETATM   19  O4  UNL     1      34.500  65.563  -0.039  1.00  0.00    -0.395 OA
ATOM     20  H4  UNL     1      34.257  64.923  -0.697  1.00  0.00     0.209 HD
ENDBRANCH  18  19
ENDBRANCH  13  18
BRANCH  15  21
HETATM   21  O5  UNL     1      35.537  62.031   4.057  1.00  0.00    -0.344 OA
ATOM     22  H5  UNL     1      35.654  62.182   4.988  1.00  0.00     0.219 HD
ENDBRANCH  15  21
BRANCH  17  23
HETATM   23  N6  UNL     1      33.193  60.802   2.674  1.00  0.00    -0.264 N
ATOM     24  H6  UNL     1      32.320  60.515   2.230  1.00  0.00     0.194 HD
BRANCH  23  25
HETATM   25  O6  UNL     1      33.826  59.996   3.360  1.00  0.00    -0.289 OA
ATOM     26  H6  UNL     1      33.681  59.063   3.262  1.00  0.00     0.244 HD
ENDBRANCH  23  25
ENDBRANCH  17  23
ENDBRANCH   9  12
BRANCH   1  27
HETATM   27  S1  UNL     1      27.797  67.333  -1.955  1.00  0.00     0.280 S
HETATM   28  O1  UNL     1      26.403  67.124  -1.445  1.00  0.00    -0.199 OA
HETATM   29  O2  UNL     1      28.277  68.736  -1.671  1.00  0.00    -0.199 OA
BRANCH  27  30
HETATM   30  N1  UNL     1      27.761  67.144  -3.670  1.00  0.00    -0.323 N
ATOM     31  H12 UNL     1      27.688  67.903  -4.347  1.00  0.00     0.169 HD
ATOM     32  H11 UNL     1      27.826  66.146  -3.872  1.00  0.00     0.169 HD
ENDBRANCH  27  30
ENDBRANCH   1  27
TORSDOF 8
ENDMDL