MODEL 4
REMARK VINA RESULT: -8.257881666      2.335      3.539
REMARK  5 active torsions:
REMARK  status: ('A' for Active; 'I' for Inactive)
REMARK    1  A    between atoms: N1_1  and  C1_4
REMARK    2  A    between atoms: C2_7  and  S1_8
REMARK    3  A    between atoms: S1_8  and  C3_9
REMARK    4  A    between atoms: C6_18  and  O3_19
REMARK    5  A    between atoms: C7_23  and  N6_24
ROOT
HETATM    1  C1  UNL     1      30.191  69.713   0.472  1.00  0.00     0.692 A
HETATM    2  N2  UNL     1      30.163  68.395   0.219  1.00  0.00    -0.169 N
ATOM      3  H2  UNL     1      30.191  68.080  -0.751  1.00  0.00     0.186 HD
HETATM    4  C2  UNL     1      30.100  67.475   1.198  1.00  0.00     0.180 A
HETATM    5  N5  UNL     1      30.067  67.931   2.457  1.00  0.00    -0.169 N
ATOM      6  H5  UNL     1      30.019  67.251   3.215  1.00  0.00     0.186 HD
HETATM    7  C7  UNL     1      30.091  69.247   2.780  1.00  0.00     0.697 A
HETATM    8  N7  UNL     1      30.154  70.111   1.760  1.00  0.00    -0.022 N
ATOM      9  H7  UNL     1      30.175  71.110   1.965  1.00  0.00     0.203 HD
ENDROOT
BRANCH   4  10
HETATM   10  S1  UNL     1      30.058  65.710   0.843  1.00  0.00    -0.031 SA
BRANCH  10  11
HETATM   11  C3  UNL     1      31.636  64.984   1.289  1.00  0.00     0.132 A
HETATM   12  N3  UNL     1      32.383  65.476   2.300  1.00  0.00    -0.309 N
HETATM   13  C4  UNL     1      33.572  64.901   2.608  1.00  0.00     0.314 A
ATOM     14  H3  UNL     1      32.052  66.280   2.833  1.00  0.00     0.170 HD
HETATM   15  O1  UNL     1      34.294  65.340   3.549  1.00  0.00    -0.262 OA
HETATM   16  C5  UNL     1      34.059  63.814   1.917  1.00  0.00     0.315 A
HETATM   17  O2  UNL     1      35.163  63.306   2.229  1.00  0.00    -0.262 OA
HETATM   18  N4  UNL     1      33.317  63.311   0.899  1.00  0.00    -0.297 N
HETATM   19  C6  UNL     1      32.141  63.889   0.604  1.00  0.00     0.178 A
ATOM     20  H4  UNL     1      33.647  62.505   0.367  1.00  0.00     0.171 HD
BRANCH  19  21
HETATM   21  O3  UNL     1      31.359  63.381  -0.448  1.00  0.00    -0.344 OA
ATOM     22  H3  UNL     1      31.485  63.772  -1.305  1.00  0.00     0.219 HD
ENDBRANCH  19  21
ENDBRANCH  10  11
ENDBRANCH   4  10
BRANCH   1  23
HETATM   23  N1  UNL     1      30.251  70.544  -0.500  1.00  0.00    -0.234 N
ATOM     24  H12 UNL     1      31.134  70.931  -0.834  1.00  0.00     0.174 HD
ATOM     25  H11 UNL     1      29.393  70.840  -0.965  1.00  0.00     0.174 HD
ENDBRANCH   1  23
BRANCH   7  26
HETATM   26  N6  UNL     1      30.055  69.670   4.131  1.00  0.00    -0.213 N
HETATM   27  C8  UNL     1      29.495  70.926   4.524  1.00  0.00     0.167 C
HETATM   28  C9  UNL     1      28.787  70.875   5.882  1.00  0.00     0.188 C
HETATM   29  O4  UNL     1      29.447  70.131   6.821  1.00  0.00    -0.388 OA
HETATM   30  C10 UNL     1      30.709  69.701   6.425  1.00  0.00     0.188 C
HETATM   31  C11 UNL     1      30.604  68.831   5.196  1.00  0.00     0.167 C
ENDBRANCH   7  26
TORSDOF 5
ENDMDL