MODEL 1
REMARK VINA RESULT: -7.092071308      0.000      0.000
REMARK  7 active torsions:
REMARK  status: ('A' for Active; 'I' for Inactive)
REMARK    1  A    between atoms: N1_2  and  S1_4
REMARK    2  A    between atoms: S1_4  and  C2_7
REMARK    3  A    between atoms: C4_10  and  C5_11
REMARK    4  A    between atoms: C5_11  and  C6_12
REMARK    5  A    between atoms: C6_12  and  O3_13
REMARK    6  A    between atoms: N3_15  and  O4_17
REMARK    7  A    between atoms: C8_21  and  N5_22
ROOT
HETATM    1  C2  UNL     1      30.095  69.527   5.108  1.00  0.00     0.167 A
HETATM    2  C3  UNL     1      29.557  69.882   3.880  1.00  0.00     0.155 A
HETATM    3  N2  UNL     1      29.729  69.106   2.773  1.00  0.00    -0.114 N
HETATM    4  C4  UNL     1      30.419  67.961   2.829  1.00  0.00     0.159 A
HETATM    5  N4  UNL     1      30.947  67.630   4.061  1.00  0.00    -0.325 N
ATOM      6  H4  UNL     1      31.482  66.764   4.133  1.00  0.00     0.169 HD
HETATM    7  C8  UNL     1      30.806  68.351   5.140  1.00  0.00     0.128 A
HETATM    8  C9  UNL     1      29.252  69.593   1.534  1.00  0.00     0.684 C
HETATM    9  N6  UNL     1      29.428  68.995   0.410  1.00  0.00    -0.234 N
ATOM     10  H61 UNL     1      29.084  69.347  -0.483  1.00  0.00     0.174 HD
ATOM     11  H62 UNL     1      29.889  68.086   0.431  1.00  0.00     0.174 HD
HETATM   12  N7  UNL     1      28.601  70.878   1.505  1.00  0.00    -0.206 N
HETATM   13  C10 UNL     1      27.806  71.171   0.332  1.00  0.00     0.170 C
HETATM   14  C11 UNL     1      28.710  71.843   2.559  1.00  0.00     0.265 C
HETATM   15  N8  UNL     1      28.795  71.080   3.808  1.00  0.00    -0.357 N
ATOM     16  H8  UNL     1      28.300  71.413   4.636  1.00  0.00     0.162 HD
ENDROOT
BRANCH   4  17
HETATM   17  C5  UNL     1      30.509  66.957   1.808  1.00  0.00     0.100 C
HETATM   18  N3  UNL     1      31.385  66.682   0.979  1.00  0.00    -0.266 N
ATOM     19  H3  UNL     1      32.237  67.242   0.969  1.00  0.00     0.194 HD
BRANCH  17  20
HETATM   20  C6  UNL     1      29.279  66.017   1.773  1.00  0.00     0.227 C
BRANCH  20  21
HETATM   21  O3  UNL     1      29.620  64.984   2.640  1.00  0.00    -0.395 OA
ATOM     22  H3  UNL     1      29.849  64.266   2.063  1.00  0.00     0.209 HD
ENDBRANCH  20  21
ENDBRANCH  17  20
BRANCH  18  23
HETATM   23  O4  UNL     1      31.261  65.642   0.058  1.00  0.00    -0.285 OA
HETATM   24  C7  UNL     1      32.186  64.574   0.161  1.00  0.00     0.237 C
ENDBRANCH  18  23
ENDBRANCH   4  17
BRANCH   7  25
HETATM   25  N5  UNL     1      31.302  68.048   6.306  1.00  0.00    -0.384 N
ATOM     26  H52 UNL     1      31.828  68.691   6.899  1.00  0.00     0.157 HD
ATOM     27  H51 UNL     1      31.128  67.089   6.607  1.00  0.00     0.157 HD
ENDBRANCH   7  25
BRANCH   1  28
HETATM   28  S1  UNL     1      29.868  70.545   6.481  1.00  0.00     0.265 S
HETATM   29  O1  UNL     1      29.542  71.971   6.153  1.00  0.00    -0.200 OA
HETATM   30  O2  UNL     1      31.233  70.615   7.174  1.00  0.00    -0.200 OA
BRANCH  28  31
HETATM   31  N1  UNL     1      28.801  69.870   7.654  1.00  0.00    -0.320 N
HETATM   32  C1  UNL     1      27.553  70.567   7.721  1.00  0.00     0.159 C
ATOM     33  H1  UNL     1      29.034  69.065   8.235  1.00  0.00     0.171 HD
ENDBRANCH  28  31
ENDBRANCH   1  28
TORSDOF 7
ENDMDL