MODEL 2
REMARK VINA RESULT: -8.709474281      2.727      9.776
REMARK  6 active torsions:
REMARK  status: ('A' for Active; 'I' for Inactive)
REMARK    1  A    between atoms: C2_5  and  N3_6
REMARK    2  A    between atoms: C4_12  and  C5_13
REMARK       I    between atoms: C5_13  and  N5_15
REMARK    3  A    between atoms: N5_15  and  N6_17
REMARK    4  A    between atoms: C6_19  and  C7_20
REMARK    5  A    between atoms: C10_23  and  O3_24
REMARK    6  A    between atoms: C13_31  and  N9_32
ROOT
HETATM    1  C1  UNL     1      35.547  61.833   2.113  1.00  0.00     0.198 C
HETATM    2  N1  UNL     1      34.370  62.591   1.741  1.00  0.00    -0.111 N
HETATM    3  N2  UNL     1      33.460  62.074   0.942  1.00  0.00    -0.114 N
ATOM      4  H2  UNL     1      33.579  61.129   0.578  1.00  0.00     0.206 HD
HETATM    5  C2  UNL     1      32.349  62.808   0.599  1.00  0.00     0.717 A
HETATM    6  N4  UNL     1      32.197  64.060   1.084  1.00  0.00    -0.008 N
HETATM    7  C3  UNL     1      31.238  65.020   0.937  1.00  0.00     0.318 A
HETATM    8  O1  UNL     1      30.224  64.805   0.215  1.00  0.00    -0.263 OA
HETATM    9  C4  UNL     1      31.591  66.113   1.659  1.00  0.00     0.191 A
HETATM   10  N7  UNL     1      32.782  65.812   2.252  1.00  0.00    -0.253 N
ATOM     11  H7  UNL     1      33.323  66.421   2.867  1.00  0.00     0.190 HD
HETATM   12  N8  UNL     1      33.102  64.591   1.885  1.00  0.00     0.006 N
HETATM   13  C13 UNL     1      34.199  63.827   2.206  1.00  0.00     0.730 A
ENDROOT
BRANCH   9  14
HETATM   14  C5  UNL     1      30.872  67.366   1.795  1.00  0.00     0.293 C
HETATM   15  O2  UNL     1      30.791  68.136   0.771  1.00  0.00    -0.264 OA
HETATM   16  N5  UNL     1      30.272  67.740   3.016  1.00  0.00    -0.265 N
ATOM     17  H5  UNL     1      30.330  67.136   3.836  1.00  0.00     0.190 HD
BRANCH  16  18
HETATM   18  N6  UNL     1      29.588  68.978   3.069  1.00  0.00    -0.308 N
HETATM   19  C6  UNL     1      29.569  69.598   4.189  1.00  0.00     0.118 C
ATOM     20  H6  UNL     1      29.127  69.362   2.244  1.00  0.00     0.186 HD
BRANCH  19  21
HETATM   21  C7  UNL     1      28.872  70.891   4.312  1.00  0.00    -0.019 A
HETATM   22  C8  UNL     1      28.403  71.544   3.193  1.00  0.00     0.015 A
HETATM   23  C9  UNL     1      27.752  72.752   3.316  1.00  0.00     0.037 A
HETATM   24  C10 UNL     1      27.564  73.320   4.554  1.00  0.00     0.065 A
HETATM   25  C11 UNL     1      28.030  72.675   5.674  1.00  0.00     0.037 A
HETATM   26  C12 UNL     1      28.680  71.468   5.550  1.00  0.00     0.015 A
BRANCH  24  27
HETATM   27  O3  UNL     1      26.896  74.553   4.636  1.00  0.00    -0.361 OA
ATOM     28  H3  UNL     1      27.140  75.159   5.325  1.00  0.00     0.217 HD
ENDBRANCH  24  27
ENDBRANCH  19  21
ENDBRANCH  16  18
ENDBRANCH   9  14
BRANCH   5  29
HETATM   29  N3  UNL     1      31.492  62.292  -0.166  1.00  0.00    -0.231 N
ATOM     30  H32 UNL     1      31.584  61.331  -0.495  1.00  0.00     0.174 HD
ATOM     31  H31 UNL     1      30.692  62.854  -0.459  1.00  0.00     0.174 HD
ENDBRANCH   5  29
BRANCH  13  32
HETATM   32  N9  UNL     1      35.098  64.306   2.980  1.00  0.00    -0.230 N
ATOM     33  H92 UNL     1      36.077  64.267   2.698  1.00  0.00     0.174 HD
ATOM     34  H91 UNL     1      34.797  64.717   3.864  1.00  0.00     0.174 HD
ENDBRANCH  13  32
TORSDOF 6
ENDMDL