MODEL 4
REMARK VINA RESULT: -7.364801905      2.744      6.577
REMARK  7 active torsions:
REMARK  status: ('A' for Active; 'I' for Inactive)
REMARK    1  A    between atoms: O1_2  and  S1_3
REMARK    2  A    between atoms: S1_3  and  N1_4
REMARK    3  A    between atoms: S1_3  and  C2_8
REMARK    4  A    between atoms: C3_11  and  C4_12
REMARK    5  A    between atoms: C5_15  and  N4_16
REMARK    6  A    between atoms: C7_23  and  O4_24
REMARK    7  A    between atoms: C8_26  and  N6_27
ROOT
HETATM    1  C2  UNL     1      30.574  68.258   1.451  1.00  0.00     0.213 A
HETATM    2  N2  UNL     1      31.223  67.142   1.163  1.00  0.00    -0.327 N
ATOM      3  H2  UNL     1      31.323  66.765   0.220  1.00  0.00     0.168 HD
HETATM    4  C3  UNL     1      31.750  66.550   2.296  1.00  0.00     0.116 A
HETATM    5  C8  UNL     1      31.367  67.368   3.288  1.00  0.00     0.207 A
HETATM    6  N7  UNL     1      30.640  68.443   2.769  1.00  0.00    -0.307 N
HETATM    7  C9  UNL     1      30.102  69.535   3.536  1.00  0.00     0.160 C
ENDROOT
BRANCH   4   8
HETATM    8  C4  UNL     1      32.446  65.281   2.244  1.00  0.00     0.118 A
HETATM    9  N3  UNL     1      31.971  64.326   1.378  1.00  0.00    -0.187 N
HETATM   10  C5  UNL     1      32.600  63.194   1.099  1.00  0.00     0.679 A
ATOM     11  H3  UNL     1      31.076  64.499   0.921  1.00  0.00     0.184 HD
HETATM   12  N5  UNL     1      33.783  62.896   1.661  1.00  0.00    -0.154 N
HETATM   13  C6  UNL     1      34.331  63.749   2.507  1.00  0.00     0.295 A
ATOM     14  H5  UNL     1      34.254  62.019   1.437  1.00  0.00     0.187 HD
HETATM   15  O3  UNL     1      35.428  63.522   3.058  1.00  0.00    -0.265 OA
HETATM   16  C7  UNL     1      33.648  64.956   2.793  1.00  0.00     0.165 A
BRANCH  10  17
HETATM   17  N4  UNL     1      32.095  62.327   0.278  1.00  0.00    -0.234 N
ATOM     18  H42 UNL     1      31.306  61.772   0.609  1.00  0.00     0.174 HD
ATOM     19  H41 UNL     1      32.467  62.210  -0.664  1.00  0.00     0.174 HD
ENDBRANCH  10  17
BRANCH  16  20
HETATM   20  O4  UNL     1      34.296  65.777   3.643  1.00  0.00    -0.354 OA
ATOM     21  H4  UNL     1      34.920  65.454   4.282  1.00  0.00     0.218 HD
ENDBRANCH  16  20
ENDBRANCH   4   8
BRANCH   5  22
HETATM   22  N6  UNL     1      31.267  67.133   4.683  1.00  0.00    -0.095 N
HETATM   23  O5  UNL     1      30.269  67.306   5.393  1.00  0.00    -0.530 OA
HETATM   24  O6  UNL     1      32.406  66.864   5.437  1.00  0.00    -0.530 OA
ENDBRANCH   5  22
BRANCH   1  25
HETATM   25  S1  UNL     1      29.763  69.328   0.291  1.00  0.00     0.204 S
HETATM   26  O2  UNL     1      29.790  68.745  -1.059  1.00  0.00    -0.213 OA
BRANCH  25  27
HETATM   27  O1  UNL     1      28.219  69.684   0.772  1.00  0.00    -0.291 OA
HETATM   28  C1  UNL     1      27.458  68.560   1.010  1.00  0.00     0.224 C
ENDBRANCH  25  27
BRANCH  25  29
HETATM   29  N1  UNL     1      30.658  70.619   0.237  1.00  0.00    -0.333 N
ATOM     30  H12 UNL     1      30.318  71.550   0.477  1.00  0.00     0.168 HD
ATOM     31  H11 UNL     1      31.608  70.400  -0.065  1.00  0.00     0.168 HD
ENDBRANCH  25  29
ENDBRANCH   1  25
TORSDOF 7
ENDMDL