MODEL 2
REMARK VINA RESULT: -8.875009849      2.051      2.459
REMARK  6 active torsions:
REMARK  status: ('A' for Active; 'I' for Inactive)
REMARK    1  A    between atoms: N1_1  and  S1_4
REMARK    2  A    between atoms: S1_4  and  C1_7
REMARK    3  A    between atoms: C5_11  and  N2_12
REMARK    4  A    between atoms: N3_14  and  C6_16
REMARK    5  A    between atoms: C8_23  and  N6_24
REMARK    6  A    between atoms: N6_24  and  O4_26
ROOT
HETATM    1  C6  UNL     1      32.665  65.090   1.922  1.00  0.00     0.194 C
HETATM    2  N4  UNL     1      32.198  64.696   0.709  1.00  0.00    -0.288 N
ATOM      3  H4  UNL     1      31.962  65.424   0.034  1.00  0.00     0.172 HD
HETATM    4  C7  UNL     1      32.021  63.405   0.327  1.00  0.00     0.340 C
HETATM    5  O3  UNL     1      31.205  63.168  -0.590  1.00  0.00    -0.246 OA
HETATM    6  N5  UNL     1      32.620  62.297   0.811  1.00  0.00    -0.139 N
ATOM      7  H5  UNL     1      32.245  61.405   0.489  1.00  0.00     0.189 HD
HETATM    8  C8  UNL     1      33.653  62.232   1.668  1.00  0.00     0.708 C
HETATM    9  N7  UNL     1      34.030  63.153   2.568  1.00  0.00    -0.151 N
ATOM     10  H7  UNL     1      34.724  62.847   3.249  1.00  0.00     0.188 HD
HETATM   11  C9  UNL     1      33.614  64.427   2.692  1.00  0.00     0.305 C
HETATM   12  O5  UNL     1      34.140  65.106   3.611  1.00  0.00    -0.263 OA
ENDROOT
BRANCH   1  13
HETATM   13  N3  UNL     1      32.173  66.275   2.494  1.00  0.00    -0.280 N
HETATM   14  N2  UNL     1      31.410  66.301   3.510  1.00  0.00    -0.299 N
ATOM     15  H2  UNL     1      31.132  65.422   3.945  1.00  0.00     0.187 HD
ATOM     16  H3  UNL     1      32.442  67.163   2.070  1.00  0.00     0.188 HD
BRANCH  14  17
HETATM   17  C5  UNL     1      30.936  67.525   4.056  1.00  0.00     0.049 A
HETATM   18  C4  UNL     1      31.050  67.774   5.407  1.00  0.00     0.031 A
HETATM   19  C3  UNL     1      30.601  68.952   5.971  1.00  0.00     0.004 A
HETATM   20  C2  UNL     1      30.009  69.937   5.183  1.00  0.00     0.025 A
HETATM   21  C1  UNL     1      29.892  69.692   3.829  1.00  0.00     0.081 A
HETATM   22  C10 UNL     1      30.347  68.510   3.285  1.00  0.00     0.056 A
BRANCH  21  23
HETATM   23  S1  UNL     1      29.150  70.926   2.835  1.00  0.00     0.256 S
HETATM   24  O1  UNL     1      28.932  72.164   3.682  1.00  0.00    -0.201 OA
HETATM   25  O2  UNL     1      27.830  70.507   2.293  1.00  0.00    -0.201 OA
BRANCH  23  26
HETATM   26  N1  UNL     1      30.258  71.366   1.570  1.00  0.00    -0.324 N
ATOM     27  H12 UNL     1      30.293  72.268   1.095  1.00  0.00     0.169 HD
ATOM     28  H11 UNL     1      30.855  70.556   1.402  1.00  0.00     0.169 HD
ENDBRANCH  23  26
ENDBRANCH  21  23
ENDBRANCH  14  17
ENDBRANCH   1  13
BRANCH   8  29
HETATM   29  N6  UNL     1      34.390  61.158   1.642  1.00  0.00    -0.098 N
ATOM     30  H6  UNL     1      35.041  61.018   0.869  1.00  0.00     0.213 HD
BRANCH  29  31
HETATM   31  O4  UNL     1      34.309  60.216   2.627  1.00  0.00    -0.276 OA
ATOM     32  H4  UNL     1      34.541  59.309   2.465  1.00  0.00     0.245 HD
ENDBRANCH  29  31
ENDBRANCH   8  29
TORSDOF 6
ENDMDL