MODEL 5
REMARK VINA RESULT: -4.715900579      1.722      2.265
REMARK  2 active torsions:
REMARK  status: ('A' for Active; 'I' for Inactive)
REMARK    1  A    between atoms: C2_2  and  N2_6
REMARK    2  A    between atoms: N2_6  and  C3_8
ROOT
HETATM    1  N2  UNL     1      28.101  81.252  63.363  1.00  0.00    -0.374 N
ATOM      2  H2  UNL     1      27.398  81.426  64.082  1.00  0.00     0.161 HD
ENDROOT
BRANCH   1   3
HETATM    3  C2  UNL     1      29.350  81.924  63.452  1.00  0.00     0.066 C
HETATM    4  C1  UNL     1      30.135  82.178  62.218  1.00  0.00     0.088 C
HETATM    5  N1  UNL     1      29.843  82.332  64.568  1.00  0.00    -0.389 N
ATOM      6  H12 UNL     1      30.739  82.815  64.633  1.00  0.00     0.157 HD
ATOM      7  H11 UNL     1      29.304  82.158  65.416  1.00  0.00     0.157 HD
ENDBRANCH   1   3
BRANCH   1   8
HETATM    8  C3  UNL     1      27.786  80.329  62.289  1.00  0.00     0.106 C
HETATM    9  C4  UNL     1      26.772  80.936  61.389  1.00  0.00     0.029 C
HETATM   10  C5  UNL     1      25.627  80.081  61.022  1.00  0.00     0.028 C
HETATM   11  C6  UNL     1      25.514  78.790  61.748  1.00  0.00     0.167 C
HETATM   12  O1  UNL     1      26.727  78.181  62.025  1.00  0.00    -0.389 OA
HETATM   13  C7  UNL     1      27.409  79.027  62.895  1.00  0.00     0.192 C
ENDBRANCH   1   8
TORSDOF 2
ENDMDL