MODEL 1
REMARK VINA RESULT: -4.813876789      0.000      0.000
REMARK  2 active torsions:
REMARK  status: ('A' for Active; 'I' for Inactive)
REMARK    1  A    between atoms: C5_5  and  C6_6
REMARK    2  A    between atoms: N1_7  and  N2_9
ROOT
HETATM    1  C1  UNL     1      29.333  82.646  64.071  1.00  0.00     0.023 C
HETATM    2  C2  UNL     1      28.908  81.694  62.995  1.00  0.00     0.013 C
HETATM    3  C3  UNL     1      30.031  80.787  62.534  1.00  0.00     0.023 C
HETATM    4  C4  UNL     1      27.764  80.816  63.412  1.00  0.00     0.047 C
HETATM    5  C5  UNL     1      26.888  80.691  62.193  1.00  0.00     0.124 C
HETATM    6  N3  UNL     1      27.579  81.404  61.139  1.00  0.00    -0.370 N
ATOM      7  H3  UNL     1      27.501  81.241  60.135  1.00  0.00     0.161 HD
HETATM    8  C7  UNL     1      28.387  82.372  61.785  1.00  0.00     0.079 C
HETATM    9  N4  UNL     1      28.595  83.589  61.357  1.00  0.00    -0.388 N
ATOM     10  H41 UNL     1      28.237  84.056  60.525  1.00  0.00     0.157 HD
ATOM     11  H42 UNL     1      29.176  84.287  61.822  1.00  0.00     0.157 HD
ENDROOT
BRANCH   5  12
HETATM   12  C6  UNL     1      26.730  79.252  61.896  1.00  0.00     0.104 C
HETATM   13  N1  UNL     1      27.011  78.403  62.803  1.00  0.00    -0.320 N
ATOM     14  H1  UNL     1      27.335  78.752  63.705  1.00  0.00     0.185 HD
BRANCH  13  15
HETATM   15  N2  UNL     1      26.900  77.018  62.632  1.00  0.00    -0.346 N
ATOM     16  H22 UNL     1      27.754  76.468  62.724  1.00  0.00     0.176 HD
ATOM     17  H21 UNL     1      26.021  76.542  62.425  1.00  0.00     0.176 HD
ENDBRANCH  13  15
ENDBRANCH   5  12
TORSDOF 2
ENDMDL