MODEL 3
REMARK VINA RESULT: -5.087820139      1.629      2.689
REMARK  2 active torsions:
REMARK  status: ('A' for Active; 'I' for Inactive)
REMARK    1  A    between atoms: C2_2  and  C4_4
REMARK    2  A    between atoms: C7_9  and  N2_10
ROOT
HETATM    1  C4  UNL     1      27.616  79.438  62.969  1.00  0.00     0.076 C
HETATM    2  N1  UNL     1      28.838  79.537  63.401  1.00  0.00    -0.380 N
ATOM      3  H1  UNL     1      29.166  78.721  63.917  1.00  0.00     0.160 HD
HETATM    4  C5  UNL     1      29.805  80.582  63.284  1.00  0.00     0.123 C
HETATM    5  C6  UNL     1      29.093  81.895  63.073  1.00  0.00     0.054 C
HETATM    6  C7  UNL     1      28.675  82.012  61.630  1.00  0.00     0.202 C
HETATM    7  C8  UNL     1      27.318  81.469  61.350  1.00  0.00     0.153 C
HETATM    8  N3  UNL     1      26.897  80.409  62.227  1.00  0.00    -0.378 N
ATOM      9  H3  UNL     1      25.885  80.343  62.337  1.00  0.00     0.160 HD
ENDROOT
BRANCH   6  10
HETATM   10  N2  UNL     1      28.728  83.443  61.293  1.00  0.00    -0.073 N
ATOM     11  H23 UNL     1      29.229  84.002  61.984  1.00  0.00     0.274 HD
ATOM     12  H22 UNL     1      29.333  83.648  60.499  1.00  0.00     0.274 HD
ATOM     13  H21 UNL     1      27.763  83.745  61.154  1.00  0.00     0.274 HD
ENDBRANCH   6  10
BRANCH   1  14
HETATM   14  C2  UNL     1      26.962  78.169  63.314  1.00  0.00     0.044 C
HETATM   15  C1  UNL     1      27.787  77.336  64.269  1.00  0.00     0.017 C
HETATM   16  C3  UNL     1      26.618  77.389  62.059  1.00  0.00     0.017 C
ENDBRANCH   1  14
TORSDOF 2
ENDMDL