MODEL 5
REMARK VINA RESULT: -4.134740230      4.402      5.420
REMARK  2 active torsions:
REMARK  status: ('A' for Active; 'I' for Inactive)
REMARK    1  A    between atoms: C2_2  and  N1_3
REMARK    2  A    between atoms: N2_5  and  C3_7
ROOT
HETATM    1  C3  UNL     1      28.357  81.755  62.662  1.00  0.00     0.316 C
HETATM    2  N3  UNL     1      29.201  82.081  61.543  1.00  0.00    -0.091 NA
HETATM    3  N4  UNL     1      30.372  82.587  62.147  1.00  0.00    -0.277 N
ATOM      4  H4  UNL     1      31.022  83.248  61.722  1.00  0.00     0.185 HD
HETATM    5  C4  UNL     1      30.496  82.015  63.456  1.00  0.00     0.186 C
HETATM    6  S1  UNL     1      31.751  82.187  64.488  1.00  0.00    -0.040 SA
HETATM    7  N5  UNL     1      29.292  81.278  63.640  1.00  0.00    -0.329 N
ATOM      8  H5  UNL     1      29.126  80.550  64.335  1.00  0.00     0.165 HD
ENDROOT
BRANCH   1   9
HETATM    9  N2  UNL     1      27.317  80.854  62.368  1.00  0.00    -0.302 N
HETATM   10  N1  UNL     1      26.639  80.899  61.316  1.00  0.00    -0.338 N
ATOM     11  H1  UNL     1      26.852  81.628  60.636  1.00  0.00     0.179 HD
ATOM     12  H2  UNL     1      27.105  80.123  63.048  1.00  0.00     0.183 HD
BRANCH  10  13
HETATM   13  C2  UNL     1      25.593  79.993  61.022  1.00  0.00     0.134 C
HETATM   14  C1  UNL     1      25.704  78.717  61.836  1.00  0.00     0.028 C
ENDBRANCH  10  13
ENDBRANCH   1   9
TORSDOF 2
ENDMDL