MODEL 2
REMARK VINA RESULT: -4.355775488      1.648      2.004
REMARK  3 active torsions:
REMARK  status: ('A' for Active; 'I' for Inactive)
REMARK    1  A    between atoms: N1_1  and  N2_4
REMARK    2  A    between atoms: C1_6  and  N3_7
REMARK    3  A    between atoms: C7_14  and  N4_15
ROOT
HETATM    1  N3  UNL     1      27.545  79.124  63.342  1.00  0.00    -0.356 N
ATOM      2  H3  UNL     1      26.584  79.338  63.075  1.00  0.00     0.166 HD
HETATM    3  C2  UNL     1      28.434  80.049  63.346  1.00  0.00     0.018 C
HETATM    4  C3  UNL     1      29.841  79.864  63.709  1.00  0.00     0.054 C
HETATM    5  C4  UNL     1      30.816  80.543  62.811  1.00  0.00     0.006 C
HETATM    6  C5  UNL     1      30.352  81.808  62.200  1.00  0.00     0.003 C
HETATM    7  C6  UNL     1      28.901  81.825  61.809  1.00  0.00     0.039 C
HETATM    8  C7  UNL     1      27.996  81.413  62.948  1.00  0.00     0.228 C
ENDROOT
BRANCH   1   9
HETATM    9  C1  UNL     1      27.908  77.788  63.716  1.00  0.00     0.196 C
HETATM   10  N2  UNL     1      26.953  76.920  63.726  1.00  0.00    -0.303 N
ATOM     11  H2  UNL     1      25.997  77.179  63.481  1.00  0.00     0.187 HD
BRANCH  10  12
HETATM   12  N1  UNL     1      27.282  75.617  64.086  1.00  0.00    -0.344 N
ATOM     13  H12 UNL     1      28.257  75.347  64.215  1.00  0.00     0.176 HD
ATOM     14  H11 UNL     1      26.511  74.960  64.213  1.00  0.00     0.176 HD
ENDBRANCH  10  12
ENDBRANCH   1   9
BRANCH   8  15
HETATM   15  N4  UNL     1      28.163  82.338  64.046  1.00  0.00    -0.070 N
ATOM     16  H43 UNL     1      27.861  83.280  63.798  1.00  0.00     0.275 HD
ATOM     17  H42 UNL     1      27.498  82.159  64.799  1.00  0.00     0.275 HD
ATOM     18  H41 UNL     1      29.127  82.324  64.380  1.00  0.00     0.275 HD
ENDBRANCH   8  15
TORSDOF 3
ENDMDL