MODEL 4
REMARK VINA RESULT: -4.530411776      2.503      3.446
REMARK  4 active torsions:
REMARK  status: ('A' for Active; 'I' for Inactive)
REMARK    1  A    between atoms: C2_2  and  N1_3
REMARK    2  A    between atoms: N2_5  and  C3_7
REMARK    3  A    between atoms: C3_7  and  O1_15
REMARK       I    between atoms: N3_8  and  C4_10
REMARK    4  A    between atoms: O1_15  and  O2_16
ROOT
HETATM    1  C3  UNL     1      27.168  75.574  64.915  1.00  0.00     0.271 C
HETATM    2  N3  UNL     1      26.634  75.393  66.059  1.00  0.00    -0.293 N
ATOM      3  H3  UNL     1      26.496  74.441  66.396  1.00  0.00     0.172 HD
HETATM    4  C4  UNL     1      26.230  76.470  66.871  1.00  0.00     0.189 C
HETATM    5  N4  UNL     1      27.061  76.944  67.736  1.00  0.00    -0.373 N
ATOM      6  H41 UNL     1      26.769  77.724  68.325  1.00  0.00     0.158 HD
ATOM      7  H42 UNL     1      27.996  76.547  67.834  1.00  0.00     0.158 HD
HETATM    8  N5  UNL     1      24.925  77.024  66.735  1.00  0.00    -0.064 NA
ENDROOT
BRANCH   1   9
HETATM    9  N2  UNL     1      27.385  76.863  64.397  1.00  0.00    -0.267 N
HETATM   10  N1  UNL     1      26.880  77.171  63.295  1.00  0.00    -0.334 N
ATOM     11  H1  UNL     1      26.329  76.454  62.825  1.00  0.00     0.180 HD
ATOM     12  H2  UNL     1      27.947  77.539  64.914  1.00  0.00     0.190 HD
BRANCH  10  13
HETATM   13  C2  UNL     1      27.003  78.430  62.631  1.00  0.00     0.135 C
HETATM   14  C1  UNL     1      25.740  78.643  61.819  1.00  0.00     0.028 C
ENDBRANCH  10  13
ENDBRANCH   1   9
BRANCH   1  15
HETATM   15  O1  UNL     1      27.545  74.488  64.163  1.00  0.00    -0.159 OA
BRANCH  15  16
HETATM   16  O2  UNL     1      28.689  74.444  63.469  1.00  0.00    -0.237 OA
HETATM   17  C5  UNL     1      29.722  74.461  64.414  1.00  0.00     0.247 C
ENDBRANCH  15  16
ENDBRANCH   1  15
TORSDOF 4
ENDMDL