MODEL 2
REMARK VINA RESULT: -5.000965376      2.819      4.630
REMARK  2 active torsions:
REMARK  status: ('A' for Active; 'I' for Inactive)
REMARK    1  A    between atoms: C4_4  and  N1_5
REMARK    2  A    between atoms: N1_5  and  C5_7
ROOT
HETATM    1  C5  UNL     1      27.164  76.910  64.132  1.00  0.00     0.171 C
HETATM    2  N2  UNL     1      27.474  75.784  63.584  1.00  0.00    -0.361 N
ATOM      3  H2  UNL     1      27.253  75.532  62.621  1.00  0.00     0.162 HD
HETATM    4  C6  UNL     1      28.178  74.928  64.513  1.00  0.00     0.142 C
HETATM    5  C7  UNL     1      28.630  75.891  65.577  1.00  0.00     0.142 C
HETATM    6  N3  UNL     1      27.626  76.928  65.484  1.00  0.00    -0.361 N
ATOM      7  H3  UNL     1      27.313  77.547  66.232  1.00  0.00     0.162 HD
ENDROOT
BRANCH   1   8
HETATM    8  N1  UNL     1      26.470  78.014  63.550  1.00  0.00    -0.358 N
ATOM      9  H1  UNL     1      25.778  78.520  64.102  1.00  0.00     0.163 HD
BRANCH   8  10
HETATM   10  C4  UNL     1      26.737  78.428  62.184  1.00  0.00     0.084 C
HETATM   11  C3  UNL     1      25.489  78.814  61.455  1.00  0.00     0.025 C
HETATM   12  C2  UNL     1      25.712  80.249  61.004  1.00  0.00     0.002 C
HETATM   13  C1  UNL     1      26.570  80.768  62.164  1.00  0.00     0.002 C
HETATM   14  C8  UNL     1      27.624  79.654  62.219  1.00  0.00     0.025 C
ENDBRANCH   8  10
ENDBRANCH   1   8
TORSDOF 2
ENDMDL