MODEL 1
REMARK VINA RESULT: -5.163974548      0.000      0.000
REMARK  1 active torsions:
REMARK  status: ('A' for Active; 'I' for Inactive)
REMARK    1  A    between atoms: C2_2  and  N1_4
ROOT
HETATM    1  N1  UNL     1      28.142  80.712  62.552  1.00  0.00    -0.321 N
HETATM    2  C4  UNL     1      27.385  81.058  61.350  1.00  0.00     0.144 C
HETATM    3  C5  UNL     1      25.938  80.685  61.552  1.00  0.00     0.041 C
HETATM    4  C6  UNL     1      25.644  79.262  61.209  1.00  0.00     0.124 C
HETATM    5  N2  UNL     1      26.285  78.307  62.053  1.00  0.00    -0.363 N
ATOM      6  H2  UNL     1      26.087  77.328  61.845  1.00  0.00     0.162 HD
HETATM    7  C7  UNL     1      27.165  78.542  63.150  1.00  0.00     0.202 C
HETATM    8  N3  UNL     1      27.192  77.535  64.150  1.00  0.00    -0.062 NA
HETATM    9  N4  UNL     1      27.923  79.564  63.316  1.00  0.00    -0.276 N
ATOM     10  H4  UNL     1      28.473  79.532  64.174  1.00  0.00     0.189 HD
ENDROOT
BRANCH   1  11
HETATM   11  C2  UNL     1      29.186  81.616  62.974  1.00  0.00     0.094 C
HETATM   12  C1  UNL     1      28.602  82.524  64.036  1.00  0.00     0.033 C
HETATM   13  C3  UNL     1      29.599  82.433  61.766  1.00  0.00     0.033 C
ENDBRANCH   1  11
TORSDOF 1
ENDMDL