MODEL 5
REMARK VINA RESULT: -4.261052826      2.241      3.091
REMARK  1 active torsions:
REMARK  status: ('A' for Active; 'I' for Inactive)
REMARK    1  A    between atoms: C4_10  and  S1_11
ROOT
HETATM    1  S1  UNL     1      28.534  79.406  63.420  1.00  0.00    -0.035 SA
HETATM    2  C5  UNL     1      30.285  79.512  63.648  1.00  0.00     0.134 C
HETATM    3  N3  UNL     1      31.429  79.571  63.817  1.00  0.00    -0.184 NA
ENDROOT
BRANCH   1   4
HETATM    4  C4  UNL     1      27.876  81.046  63.122  1.00  0.00     0.162 C
HETATM    5  C2  UNL     1      28.865  82.146  63.382  1.00  0.00     0.170 C
HETATM    6  C1  UNL     1      28.553  82.796  64.715  1.00  0.00     0.044 C
HETATM    7  O1  UNL     1      28.740  83.038  62.318  1.00  0.00    -0.272 OA
HETATM    8  N1  UNL     1      28.234  82.346  61.267  1.00  0.00    -0.253 N
HETATM    9  C3  UNL     1      27.443  81.267  61.734  1.00  0.00     0.112 C
ATOM     10  H1  UNL     1      28.398  82.570  60.285  1.00  0.00     0.195 HD
HETATM   11  N2  UNL     1      26.536  80.611  61.098  1.00  0.00    -0.386 N
ATOM     12  H22 UNL     1      26.236  80.765  60.135  1.00  0.00     0.157 HD
ATOM     13  H21 UNL     1      25.968  79.834  61.434  1.00  0.00     0.157 HD
ENDBRANCH   1   4
TORSDOF 1
ENDMDL