MODEL 5
REMARK VINA RESULT: -4.738744030      2.463      3.498
REMARK  1 active torsions:
REMARK  status: ('A' for Active; 'I' for Inactive)
REMARK       I    between atoms: C4_6  and  N2_7
REMARK    1  A    between atoms: N2_7  and  C5_9
ROOT
HETATM    1  C1  UNL     1      30.411  82.461  62.410  1.00  0.00     0.022 C
HETATM    2  C2  UNL     1      29.844  82.145  63.768  1.00  0.00     0.022 C
HETATM    3  C3  UNL     1      29.472  80.694  63.918  1.00  0.00     0.138 C
HETATM    4  N1  UNL     1      28.765  80.257  62.741  1.00  0.00    -0.227 N
ATOM      5  H1  UNL     1      28.839  79.259  62.542  1.00  0.00     0.177 HD
HETATM    6  C4  UNL     1      27.986  80.990  61.820  1.00  0.00     0.670 C
HETATM    7  N2  UNL     1      26.782  80.382  61.384  1.00  0.00    -0.222 N
ATOM      8  H2  UNL     1      26.417  80.677  60.478  1.00  0.00     0.178 HD
HETATM    9  N3  UNL     1      28.274  82.160  61.338  1.00  0.00    -0.227 N
ATOM     10  H3  UNL     1      27.568  82.502  60.685  1.00  0.00     0.177 HD
HETATM   11  C8  UNL     1      29.360  83.085  61.515  1.00  0.00     0.138 C
ENDROOT
BRANCH   7  12
HETATM   12  C5  UNL     1      26.023  79.387  62.102  1.00  0.00     0.099 A
HETATM   13  C6  UNL     1      26.222  77.946  61.977  1.00  0.00     0.028 A
HETATM   14  C7  UNL     1      24.959  78.603  61.402  1.00  0.00     0.028 A
ENDBRANCH   7  12
TORSDOF 1
ENDMDL