MODEL 2
REMARK VINA RESULT: -9.901369218      1.557      2.574
REMARK  7 active torsions:
REMARK  status: ('A' for Active; 'I' for Inactive)
REMARK    1  A    between atoms: C3_3  and  C4_4
REMARK    2  A    between atoms: C4_4  and  C5_5
REMARK    3  A    between atoms: C4_4  and  N1_16
REMARK    4  A    between atoms: C5_5  and  C6_6
REMARK    5  A    between atoms: C8_8  and  C9_9
REMARK    6  A    between atoms: N1_16  and  C16_19
REMARK    7  A    between atoms: C23_31  and  C24_32
ROOT
HETATM    1  C1  UNL     1       4.034  30.461   7.625  1.00  0.00     0.012 C
HETATM    2  C2  UNL     1       4.333  29.518   6.940  1.00  0.00    -0.115 C
HETATM    3  C3  UNL     1       4.696  28.367   6.066  1.00  0.00     0.126 C
ENDROOT
BRANCH   3   4
HETATM    4  C4  UNL     1       3.589  27.461   5.777  1.00  0.00     0.202 C
BRANCH   4   5
HETATM    5  C5  UNL     1       2.475  27.229   6.722  1.00  0.00     0.073 C
BRANCH   5   6
HETATM    6  C6  UNL     1       1.207  27.921   6.544  1.00  0.00    -0.049 A
HETATM    7  C7  UNL     1       0.667  27.874   5.227  1.00  0.00     0.014 A
HETATM    8  C8  UNL     1      -0.544  28.437   4.937  1.00  0.00    -0.058 A
HETATM    9  C11 UNL     1      -1.238  29.055   5.954  1.00  0.00     0.014 A
HETATM   10  C12 UNL     1      -0.757  29.124   7.225  1.00  0.00    -0.055 A
HETATM   11  C13 UNL     1      -1.531  29.802   8.297  1.00  0.00     0.049 C
HETATM   12  C14 UNL     1       0.483  28.548   7.518  1.00  0.00    -0.050 A
HETATM   13  C15 UNL     1       0.935  28.755   8.912  1.00  0.00     0.049 C
BRANCH   8  14
HETATM   14  C9  UNL     1      -1.107  28.383   3.552  1.00  0.00     0.034 C
HETATM   15  C10 UNL     1      -1.498  29.750   3.052  1.00  0.00     0.010 C
ENDBRANCH   8  14
ENDBRANCH   5   6
ENDBRANCH   4   5
BRANCH   4  16
HETATM   16  N1  UNL     1       4.045  26.163   5.288  1.00  0.00    -0.056 N
ATOM     17  H12 UNL     1       3.284  25.483   5.305  1.00  0.00     0.278 HD
ATOM     18  H11 UNL     1       4.219  26.197   4.284  1.00  0.00     0.278 HD
BRANCH  16  19
HETATM   19  C16 UNL     1       5.159  25.675   5.966  1.00  0.00     0.286 C
HETATM   20  C17 UNL     1       6.295  25.131   5.221  1.00  0.00     0.254 C
HETATM   21  O1  UNL     1       6.750  25.277   4.068  1.00  0.00    -0.271 OA
HETATM   22  N2  UNL     1       6.976  24.226   6.132  1.00  0.00    -0.310 N
HETATM   23  C18 UNL     1       8.111  23.343   6.310  1.00  0.00     0.178 C
HETATM   24  C21 UNL     1       6.210  24.181   7.363  1.00  0.00     0.114 C
HETATM   25  C19 UNL     1       9.417  24.041   6.461  1.00  0.00     0.043 C
HETATM   26  C20 UNL     1       7.725  22.497   7.472  1.00  0.00     0.242 C
HETATM   27  O2  UNL     1       8.443  21.557   7.916  1.00  0.00    -0.271 OA
HETATM   28  N3  UNL     1       6.461  22.932   7.954  1.00  0.00    -0.332 N
ATOM     29  H3  UNL     1       5.853  22.434   8.604  1.00  0.00     0.165 HD
HETATM   30  C22 UNL     1       6.671  25.294   8.313  1.00  0.00     0.064 C
HETATM   31  C23 UNL     1       4.844  24.522   6.917  1.00  0.00     0.078 C
BRANCH  31  32
HETATM   32  C24 UNL     1       4.009  23.469   6.335  1.00  0.00    -0.012 C
HETATM   33  C25 UNL     1       4.471  22.066   6.412  1.00  0.00     0.010 C
HETATM   34  C26 UNL     1       2.576  23.568   6.802  1.00  0.00     0.010 C
ENDBRANCH  31  32
ENDBRANCH  16  19
ENDBRANCH   4  16
ENDBRANCH   3   4
TORSDOF 7
ENDMDL