MODEL 2
REMARK VINA RESULT: -8.824831284      1.046      1.406
REMARK  9 active torsions:
REMARK  status: ('A' for Active; 'I' for Inactive)
REMARK    1  A    between atoms: C2_2  and  N1_3
REMARK    2  A    between atoms: C5_6  and  C6_7
REMARK       I    between atoms: C6_7  and  N2_9
REMARK    3  A    between atoms: N2_9  and  C7_11
REMARK    4  A    between atoms: C7_11  and  C8_12
REMARK    5  A    between atoms: N3_14  and  C10_15
REMARK    6  A    between atoms: C10_15  and  C11_16
REMARK    7  A    between atoms: C11_16  and  C12_17
REMARK    8  A    between atoms: C16_21  and  N4_22
REMARK    9  A    between atoms: N4_22  and  C17_24
ROOT
HETATM    1  C8  UNL     1       4.684  24.318   5.744  1.00  0.00     0.060 C
HETATM    2  C9  UNL     1       3.613  24.436   6.801  1.00  0.00     0.280 C
HETATM    3  N3  UNL     1       3.744  25.837   6.722  1.00  0.00     0.089 N
HETATM    4  C23 UNL     1       5.150  25.618   6.437  1.00  0.00     0.280 C
ENDROOT
BRANCH   3   5
HETATM    5  C10 UNL     1       3.132  26.605   5.709  1.00  0.00     0.277 C
BRANCH   5   6
HETATM    6  C11 UNL     1       2.623  27.951   6.118  1.00  0.00     0.070 C
BRANCH   6   7
HETATM    7  C12 UNL     1       1.153  28.006   6.315  1.00  0.00    -0.034 A
HETATM    8  C13 UNL     1       0.297  28.260   5.230  1.00  0.00     0.019 A
HETATM    9  C14 UNL     1      -1.071  28.321   5.372  1.00  0.00    -0.018 A
HETATM   10  C15 UNL     1      -1.945  28.595   4.190  1.00  0.00     0.052 C
HETATM   11  C16 UNL     1      -1.664  28.130   6.619  1.00  0.00     0.107 A
HETATM   12  N5  UNL     1      -0.845  27.889   7.642  1.00  0.00    -0.346 N
HETATM   13  C21 UNL     1       0.517  27.824   7.524  1.00  0.00     0.013 A
ATOM     14  H5  UNL     1      -1.256  27.746   8.564  1.00  0.00     0.167 HD
HETATM   15  C22 UNL     1       1.333  27.546   8.744  1.00  0.00     0.068 C
BRANCH  11  16
HETATM   16  N4  UNL     1      -2.922  28.192   6.720  1.00  0.00    -0.368 N
ATOM     17  H4  UNL     1      -3.428  27.394   6.335  1.00  0.00     0.161 HD
BRANCH  16  18
HETATM   18  C17 UNL     1      -3.741  29.207   7.288  1.00  0.00     0.021 C
HETATM   19  C18 UNL     1      -4.274  28.674   8.625  1.00  0.00     0.037 C
HETATM   20  C19 UNL     1      -3.010  30.480   7.618  1.00  0.00     0.037 C
HETATM   21  C20 UNL     1      -4.963  29.536   6.444  1.00  0.00     0.037 C
ENDBRANCH  16  18
ENDBRANCH  11  16
ENDBRANCH   6   7
ENDBRANCH   5   6
ENDBRANCH   3   5
BRANCH   1  22
HETATM   22  C7  UNL     1       5.633  23.183   5.910  1.00  0.00     0.131 C
BRANCH  22  23
HETATM   23  N2  UNL     1       5.350  22.164   4.930  1.00  0.00    -0.356 N
HETATM   24  C6  UNL     1       4.363  21.188   5.193  1.00  0.00     0.251 C
HETATM   25  O1  UNL     1       3.694  21.146   6.278  1.00  0.00    -0.268 OA
ATOM     26  H2  UNL     1       5.861  22.148   4.048  1.00  0.00     0.162 HD
BRANCH  24  27
HETATM   27  C5  UNL     1       4.098  20.175   4.166  1.00  0.00     0.034 A
HETATM   28  C4  UNL     1       2.830  19.787   3.821  1.00  0.00     0.034 A
HETATM   29  C3  UNL     1       2.670  18.831   2.837  1.00  0.00     0.091 A
HETATM   30  N1  UNL     1       3.731  18.263   2.200  1.00  0.00    -0.367 N
HETATM   31  C25 UNL     1       4.983  18.631   2.527  1.00  0.00     0.091 A
HETATM   32  C24 UNL     1       5.159  19.574   3.495  1.00  0.00     0.034 A
BRANCH  30  33
HETATM   33  C2  UNL     1       3.437  17.267   1.183  1.00  0.00     0.123 C
HETATM   34  C1  UNL     1       2.364  16.306   1.654  1.00  0.00     0.027 C
ENDBRANCH  30  33
ENDBRANCH  24  27
ENDBRANCH  22  23
ENDBRANCH   1  22
TORSDOF 9
ENDMDL