MODEL 3
REMARK VINA RESULT: -9.663131990      2.301      3.542
REMARK  7 active torsions:
REMARK  status: ('A' for Active; 'I' for Inactive)
REMARK    1  A    between atoms: C7_7  and  C8_8
REMARK    2  A    between atoms: C8_8  and  C9_9
REMARK    3  A    between atoms: C9_9  and  N1_10
REMARK       I    between atoms: N1_10  and  C11_12
REMARK    4  A    between atoms: C11_12  and  C12_14
REMARK    5  A    between atoms: C12_14  and  C13_15
REMARK    6  A    between atoms: C13_15  and  C14_16
REMARK    7  A    between atoms: C16_20  and  C17_21
ROOT
HETATM    1  C14 UNL     1       5.617  26.940   8.739  1.00  0.00     0.028 A
HETATM    2  C15 UNL     1       6.191  25.768   8.324  1.00  0.00     0.115 A
HETATM    3  N2  UNL     1       7.228  25.548   9.105  1.00  0.00    -0.350 N
ATOM      4  H2  UNL     1       7.850  24.743   9.030  1.00  0.00     0.166 HD
HETATM    5  C16 UNL     1       7.361  26.555  10.041  1.00  0.00     0.118 A
HETATM    6  N4  UNL     1       6.363  27.401   9.805  1.00  0.00    -0.339 N
HETATM    7  C24 UNL     1       5.956  28.601  10.539  1.00  0.00     0.158 C
ENDROOT
BRANCH   1   8
HETATM    8  C13 UNL     1       4.436  27.648   8.214  1.00  0.00     0.068 C
BRANCH   8   9
HETATM    9  C12 UNL     1       3.147  27.094   8.708  1.00  0.00     0.109 C
BRANCH   9  10
HETATM   10  C11 UNL     1       2.144  28.170   8.870  1.00  0.00     0.219 C
HETATM   11  N1  UNL     1       0.750  27.905   8.905  1.00  0.00    -0.356 N
HETATM   12  C10 UNL     1       0.321  26.517   8.773  1.00  0.00     0.152 C
HETATM   13  O1  UNL     1       2.538  29.353   8.983  1.00  0.00    -0.273 OA
BRANCH  11  14
HETATM   14  C9  UNL     1      -0.209  28.950   9.064  1.00  0.00     0.130 C
BRANCH  14  15
HETATM   15  C8  UNL     1      -0.683  29.579   7.788  1.00  0.00     0.059 C
BRANCH  15  16
HETATM   16  C7  UNL     1      -2.099  29.361   7.477  1.00  0.00    -0.050 A
HETATM   17  C5  UNL     1      -2.436  28.512   6.451  1.00  0.00    -0.056 A
HETATM   18  C4  UNL     1      -3.772  28.291   6.142  1.00  0.00     0.008 A
HETATM   19  C6  UNL     1      -1.374  27.832   5.671  1.00  0.00     0.049 C
HETATM   20  C3  UNL     1      -4.766  28.922   6.863  1.00  0.00     0.007 A
HETATM   21  C2  UNL     1      -4.457  29.781   7.898  1.00  0.00    -0.061 A
HETATM   22  C1  UNL     1      -5.543  30.459   8.673  1.00  0.00     0.048 C
HETATM   23  C25 UNL     1      -3.122  29.978   8.180  1.00  0.00     0.014 A
ENDBRANCH  15  16
ENDBRANCH  14  15
ENDBRANCH  11  14
ENDBRANCH   9  10
ENDBRANCH   8   9
ENDBRANCH   1   8
BRANCH   5  24
HETATM   24  C17 UNL     1       8.382  26.465  11.078  1.00  0.00     0.021 A
HETATM   25  C18 UNL     1       8.500  25.241  11.774  1.00  0.00     0.090 A
HETATM   26  C19 UNL     1       9.440  24.974  12.706  1.00  0.00     0.246 A
HETATM   27  O2  UNL     1       9.494  23.864  13.293  1.00  0.00    -0.268 OA
HETATM   28  N3  UNL     1      10.336  25.925  13.010  1.00  0.00    -0.327 N
HETATM   29  C20 UNL     1      10.271  27.105  12.377  1.00  0.00     0.015 A
ATOM     30  H3  UNL     1      11.057  25.753  13.711  1.00  0.00     0.169 HD
HETATM   31  C21 UNL     1      11.266  28.151  12.722  1.00  0.00     0.069 C
HETATM   32  C22 UNL     1       9.309  27.403  11.408  1.00  0.00    -0.026 A
HETATM   33  C23 UNL     1       9.469  28.717  10.740  1.00  0.00     0.051 C
ENDBRANCH   5  24
TORSDOF 7
ENDMDL