MODEL 3
REMARK VINA RESULT: -9.295312944      2.189      4.509
REMARK  8 active torsions:
REMARK  status: ('A' for Active; 'I' for Inactive)
REMARK    1  A    between atoms: C2_2  and  N1_3
REMARK       I    between atoms: N1_3  and  C4_5
REMARK       I    between atoms: C4_5  and  N2_7
REMARK    2  A    between atoms: N2_7  and  C5_9
REMARK    3  A    between atoms: C5_9  and  C6_10
REMARK    4  A    between atoms: C6_10  and  N3_11
REMARK       I    between atoms: N3_11  and  C7_13
REMARK    5  A    between atoms: C7_13  and  C8_15
REMARK    6  A    between atoms: C8_15  and  C9_17
REMARK    7  A    between atoms: C9_17  and  C10_18
REMARK    8  A    between atoms: C18_27  and  C19_28
ROOT
HETATM    1  C9  UNL     1       3.325  30.434   6.272  1.00  0.00     0.128 C
ENDROOT
BRANCH   1   2
HETATM    2  C8  UNL     1       4.389  29.746   5.514  1.00  0.00     0.220 C
HETATM    3  O3  UNL     1       4.798  30.152   4.437  1.00  0.00    -0.287 OA
BRANCH   2   4
HETATM    4  C7  UNL     1       4.926  28.548   6.134  1.00  0.00     0.287 C
HETATM    5  N3  UNL     1       4.934  28.314   7.509  1.00  0.00    -0.353 N
ATOM      6  H3  UNL     1       4.546  28.996   8.159  1.00  0.00     0.162 HD
HETATM    7  O2  UNL     1       5.417  27.669   5.332  1.00  0.00    -0.264 OA
BRANCH   5   8
HETATM    8  C6  UNL     1       5.509  27.074   7.985  1.00  0.00     0.143 C
BRANCH   8   9
HETATM    9  C5  UNL     1       4.629  25.923   7.652  1.00  0.00     0.144 C
BRANCH   9  10
HETATM   10  N2  UNL     1       5.372  24.858   6.916  1.00  0.00    -0.341 N
HETATM   11  C4  UNL     1       4.599  23.751   6.530  1.00  0.00     0.317 C
HETATM   12  N1  UNL     1       5.085  22.642   5.853  1.00  0.00    -0.339 N
HETATM   13  O1  UNL     1       3.344  23.743   6.818  1.00  0.00    -0.247 OA
HETATM   14  C3  UNL     1       4.222  21.487   5.568  1.00  0.00     0.154 C
ATOM     15  H2  UNL     1       6.368  24.929   6.709  1.00  0.00     0.164 HD
BRANCH  12  16
HETATM   16  C2  UNL     1       6.470  22.563   5.443  1.00  0.00     0.122 C
HETATM   17  C1  UNL     1       7.362  21.892   6.464  1.00  0.00     0.026 C
ENDBRANCH  12  16
ENDBRANCH   9  10
ENDBRANCH   8   9
ENDBRANCH   5   8
ENDBRANCH   2   4
ENDBRANCH   1   2
BRANCH   1  18
HETATM   18  C10 UNL     1       1.998  30.188   5.684  1.00  0.00    -0.037 A
HETATM   19  C11 UNL     1       1.615  30.921   4.568  1.00  0.00     0.025 A
HETATM   20  C12 UNL     1       0.423  30.702   4.007  1.00  0.00     0.091 A
HETATM   21  N4  UNL     1      -0.500  29.779   4.452  1.00  0.00    -0.360 N
HETATM   22  C13 UNL     1      -1.721  29.609   3.772  1.00  0.00     0.155 C
HETATM   23  C14 UNL     1      -0.137  29.068   5.535  1.00  0.00     0.050 A
HETATM   24  C15 UNL     1      -1.042  28.161   6.067  1.00  0.00    -0.034 A
HETATM   25  C24 UNL     1       1.114  29.254   6.172  1.00  0.00    -0.002 A
HETATM   26  C16 UNL     1      -2.359  27.957   5.502  1.00  0.00     0.050 C
HETATM   27  C17 UNL     1      -0.632  27.484   7.219  1.00  0.00     0.017 A
HETATM   28  C18 UNL     1       0.575  27.645   7.853  1.00  0.00    -0.049 A
HETATM   29  C23 UNL     1       1.432  28.534   7.310  1.00  0.00     0.022 A
BRANCH  28  30
HETATM   30  C19 UNL     1       0.779  26.858   9.108  1.00  0.00    -0.024 C
HETATM   31  C20 UNL     1       2.094  27.354   9.754  1.00  0.00     0.019 C
HETATM   32  C21 UNL     1       0.896  25.403   8.877  1.00  0.00     0.019 C
HETATM   33  C22 UNL     1      -0.356  27.175  10.045  1.00  0.00     0.019 C
ENDBRANCH  28  30
ENDBRANCH   1  18
TORSDOF 8
ENDMDL