MODEL 1
REMARK VINA RESULT: -8.712268202      0.000      0.000
REMARK  10 active torsions:
REMARK  status: ('A' for Active; 'I' for Inactive)
REMARK    1  A    between atoms: C2_2  and  C3_3
REMARK    2  A    between atoms: C4_4  and  C5_5
REMARK       I    between atoms: N1_10  and  C9_11
REMARK    3  A    between atoms: C10_16  and  C11_17
REMARK    4  A    between atoms: C11_17  and  C12_18
REMARK    5  A    between atoms: C12_18  and  C13_19
REMARK    6  A    between atoms: C13_19  and  C14_20
REMARK    7  A    between atoms: C14_20  and  C15_21
REMARK    8  A    between atoms: C15_21  and  C16_22
REMARK    9  A    between atoms: C17_23  and  C18_24
REMARK   10  A    between atoms: C22_28  and  C23_29
ROOT
HETATM    1  C5  UNL     1       6.854  24.419   6.167  1.00  0.00    -0.092 C
HETATM    2  C6  UNL     1       7.595  24.160   5.261  1.00  0.00    -0.110 C
HETATM    3  C7  UNL     1       8.522  23.846   4.167  1.00  0.00     0.112 C
ENDROOT
BRANCH   1   4
HETATM    4  C4  UNL     1       5.972  24.735   7.286  1.00  0.00     0.167 C
HETATM    5  C3  UNL     1       5.621  26.230   7.232  1.00  0.00     0.055 C
HETATM    6  C10 UNL     1       5.293  26.449   8.723  1.00  0.00     0.105 C
HETATM    7  N1  UNL     1       6.530  25.918   9.270  1.00  0.00    -0.286 N
HETATM    8  C8  UNL     1       6.673  24.652   8.588  1.00  0.00     0.243 C
HETATM    9  C9  UNL     1       7.465  26.361  10.201  1.00  0.00     0.191 C
HETATM   10  O1  UNL     1       7.279  23.649   9.014  1.00  0.00    -0.271 OA
HETATM   11  N2  UNL     1       7.683  25.706  11.279  1.00  0.00    -0.373 N
HETATM   12  N3  UNL     1       8.238  27.547   9.986  1.00  0.00    -0.063 NA
ATOM     13  H22 UNL     1       7.133  24.861  11.432  1.00  0.00     0.158 HD
ATOM     14  H21 UNL     1       8.369  26.031  11.961  1.00  0.00     0.158 HD
BRANCH   5  15
HETATM   15  C2  UNL     1       4.466  26.477   6.357  1.00  0.00    -0.029 C
HETATM   16  C1  UNL     1       3.290  25.917   6.468  1.00  0.00     0.007 C
ENDBRANCH   5  15
BRANCH   6  17
HETATM   17  C11 UNL     1       5.047  27.880   8.943  1.00  0.00     0.026 C
BRANCH  17  18
HETATM   18  C12 UNL     1       3.661  28.233   9.425  1.00  0.00     0.002 C
BRANCH  18  19
HETATM   19  C13 UNL     1       3.038  29.345   8.641  1.00  0.00     0.001 C
BRANCH  19  20
HETATM   20  C14 UNL     1       4.100  30.052   7.853  1.00  0.00     0.012 C
BRANCH  20  21
HETATM   21  C15 UNL     1       3.806  30.056   6.371  1.00  0.00     0.094 C
BRANCH  21  22
HETATM   22  C16 UNL     1       2.410  29.634   6.128  1.00  0.00    -0.101 C
HETATM   23  C17 UNL     1       1.264  29.305   5.942  1.00  0.00    -0.067 C
BRANCH  23  24
HETATM   24  C18 UNL     1      -0.110  28.933   5.734  1.00  0.00     0.018 A
HETATM   25  C19 UNL     1      -0.580  28.495   4.501  1.00  0.00     0.020 A
HETATM   26  C20 UNL     1      -1.897  28.150   4.344  1.00  0.00     0.002 A
HETATM   27  C21 UNL     1      -2.744  28.245   5.422  1.00  0.00     0.007 A
HETATM   28  C22 UNL     1      -2.307  28.675   6.653  1.00  0.00    -0.049 A
HETATM   29  C27 UNL     1      -0.980  29.020   6.803  1.00  0.00     0.028 A
BRANCH  28  30
HETATM   30  C23 UNL     1      -3.186  28.789   7.830  1.00  0.00     0.075 C
HETATM   31  C24 UNL     1      -4.646  28.740   7.369  1.00  0.00     0.283 C
HETATM   32  N4  UNL     1      -4.961  29.919   8.150  1.00  0.00     0.085 N
HETATM   33  C25 UNL     1      -5.651  30.960   7.424  1.00  0.00     0.309 C
HETATM   34  C26 UNL     1      -3.547  30.150   8.292  1.00  0.00     0.283 C
ENDBRANCH  28  30
ENDBRANCH  23  24
ENDBRANCH  21  22
ENDBRANCH  20  21
ENDBRANCH  19  20
ENDBRANCH  18  19
ENDBRANCH  17  18
ENDBRANCH   6  17
ENDBRANCH   1   4
TORSDOF 10
ENDMDL