MODEL 1
REMARK VINA RESULT: -8.525750767      0.000      0.000
REMARK  9 active torsions:
REMARK  status: ('A' for Active; 'I' for Inactive)
REMARK    1  A    between atoms: C2_2  and  N1_3
REMARK    2  A    between atoms: N1_3  and  C3_4
REMARK    3  A    between atoms: N1_3  and  C5_6
REMARK    4  A    between atoms: C5_6  and  C6_7
REMARK    5  A    between atoms: C6_7  and  N2_8
REMARK       I    between atoms: N2_8  and  C7_10
REMARK    6  A    between atoms: C7_10  and  C8_12
REMARK    7  A    between atoms: C8_12  and  N3_13
REMARK    8  A    between atoms: C17_22  and  C18_23
REMARK    9  A    between atoms: C19_24  and  C20_25
ROOT
HETATM    1  N3  UNL     1       4.548  25.884   6.782  1.00  0.00    -0.334 N
HETATM    2  C9  UNL     1       5.721  25.539   7.374  1.00  0.00     0.015 A
HETATM    3  C10 UNL     1       6.502  24.475   6.751  1.00  0.00     0.069 C
HETATM    4  C11 UNL     1       6.188  26.131   8.502  1.00  0.00    -0.033 A
HETATM    5  C12 UNL     1       7.450  25.729   9.097  1.00  0.00     0.050 C
HETATM    6  C13 UNL     1       5.441  27.131   9.079  1.00  0.00    -0.045 A
HETATM    7  C14 UNL     1       5.870  27.850  10.329  1.00  0.00     0.049 C
HETATM    8  C15 UNL     1       4.236  27.516   8.508  1.00  0.00    -0.020 A
HETATM    9  C16 UNL     1       3.421  28.590   9.117  1.00  0.00     0.052 C
HETATM   10  C17 UNL     1       3.817  26.858   7.340  1.00  0.00     0.096 A
ENDROOT
BRANCH   1  11
HETATM   11  C8  UNL     1       4.094  25.230   5.580  1.00  0.00     0.232 C
BRANCH  11  12
HETATM   12  C7  UNL     1       3.684  23.832   5.808  1.00  0.00     0.235 C
HETATM   13  N2  UNL     1       4.091  22.791   4.943  1.00  0.00    -0.358 N
ATOM     14  H2  UNL     1       4.681  23.039   4.149  1.00  0.00     0.162 HD
HETATM   15  O1  UNL     1       2.960  23.577   6.791  1.00  0.00    -0.272 OA
BRANCH  13  16
HETATM   16  C6  UNL     1       3.734  21.411   5.100  1.00  0.00     0.152 C
BRANCH  16  17
HETATM   17  C5  UNL     1       4.666  20.436   4.449  1.00  0.00     0.292 C
BRANCH  17  18
HETATM   18  N1  UNL     1       4.247  19.982   3.140  1.00  0.00     0.089 N
BRANCH  18  19
HETATM   19  C2  UNL     1       5.220  19.103   2.572  1.00  0.00     0.268 C
HETATM   20  C1  UNL     1       5.496  19.267   1.114  1.00  0.00     0.037 C
ENDBRANCH  18  19
BRANCH  18  21
HETATM   21  C3  UNL     1       2.931  19.417   3.271  1.00  0.00     0.268 C
HETATM   22  C4  UNL     1       2.895  17.977   3.695  1.00  0.00     0.037 C
ENDBRANCH  18  21
ENDBRANCH  17  18
ENDBRANCH  16  17
ENDBRANCH  13  16
ENDBRANCH  11  12
ENDBRANCH   1  11
BRANCH  10  23
HETATM   23  C18 UNL     1       2.556  27.295   6.777  1.00  0.00    -0.042 C
HETATM   24  C19 UNL     1       1.501  27.669   6.331  1.00  0.00    -0.056 C
BRANCH  24  25
HETATM   25  C20 UNL     1       0.240  28.126   5.830  1.00  0.00     0.061 A
HETATM   26  C21 UNL     1      -0.117  27.965   4.496  1.00  0.00     0.026 A
HETATM   27  C22 UNL     1      -1.327  28.406   4.000  1.00  0.00     0.019 A
HETATM   28  C23 UNL     1      -2.172  29.020   4.899  1.00  0.00     0.090 A
HETATM   29  N4  UNL     1      -1.826  29.175   6.190  1.00  0.00    -0.351 N
HETATM   30  C24 UNL     1      -0.641  28.746   6.686  1.00  0.00     0.119 A
ATOM     31  H4  UNL     1      -2.483  29.634   6.821  1.00  0.00     0.166 HD
HETATM   32  N5  UNL     1      -0.304  28.889   7.912  1.00  0.00    -0.380 N
HETATM   33  C25 UNL     1      -1.156  29.527   8.901  1.00  0.00     0.147 C
ATOM     34  H5  UNL     1       0.607  28.537   8.209  1.00  0.00     0.160 HD
ENDBRANCH  24  25
ENDBRANCH  10  23
TORSDOF 9
ENDMDL