MODEL 5
REMARK VINA RESULT: -8.102470665      1.914      3.759
REMARK  10 active torsions:
REMARK  status: ('A' for Active; 'I' for Inactive)
REMARK    1  A    between atoms: C2_2  and  C3_3
REMARK    2  A    between atoms: C3_3  and  C4_4
REMARK    3  A    between atoms: C5_5  and  C6_6
REMARK    4  A    between atoms: C6_6  and  C7_7
REMARK    5  A    between atoms: C7_7  and  C8_8
REMARK    6  A    between atoms: C10_13  and  C11_14
REMARK    7  A    between atoms: C11_14  and  C12_15
REMARK    8  A    between atoms: C12_15  and  C13_16
REMARK    9  A    between atoms: C13_16  and  C14_17
REMARK   10  A    between atoms: N3_22  and  O1_23
ROOT
HETATM    1  C4  UNL     1       6.142  24.848   7.602  1.00  0.00     0.040 A
HETATM    2  C5  UNL     1       5.563  26.095   7.562  1.00  0.00     0.067 A
HETATM    3  N3  UNL     1       5.787  27.025   8.553  1.00  0.00    -0.224 N
HETATM    4  C17 UNL     1       6.566  26.747   9.582  1.00  0.00     0.095 A
HETATM    5  C18 UNL     1       6.754  27.725  10.557  1.00  0.00    -0.030 A
HETATM    6  C19 UNL     1       6.126  29.063  10.497  1.00  0.00     0.050 C
HETATM    7  C20 UNL     1       7.583  27.361  11.611  1.00  0.00     0.009 A
HETATM    8  C21 UNL     1       8.187  26.130  11.705  1.00  0.00     0.003 A
HETATM    9  C22 UNL     1       7.968  25.199  10.713  1.00  0.00     0.032 A
HETATM   10  C23 UNL     1       7.149  25.502   9.634  1.00  0.00     0.064 A
HETATM   11  N4  UNL     1       6.934  24.567   8.649  1.00  0.00    -0.351 N
HETATM   12  C24 UNL     1       7.605  23.326   8.831  1.00  0.00     0.156 C
ENDROOT
BRANCH   2  13
HETATM   13  C6  UNL     1       4.635  26.434   6.455  1.00  0.00     0.092 C
BRANCH  13  14
HETATM   14  C7  UNL     1       3.237  26.050   6.825  1.00  0.00     0.028 C
BRANCH  14  15
HETATM   15  C8  UNL     1       2.255  26.932   6.878  1.00  0.00     0.103 A
HETATM   16  N1  UNL     1       1.830  27.529   8.003  1.00  0.00    -0.332 N
HETATM   17  C9  UNL     1       0.813  28.391   7.707  1.00  0.00     0.128 A
ATOM     18  H1  UNL     1       2.208  27.364   8.935  1.00  0.00     0.168 HD
HETATM   19  S1  UNL     1       0.018  29.310   8.783  1.00  0.00    -0.058 SA
HETATM   20  C10 UNL     1       0.601  28.328   6.357  1.00  0.00     0.068 A
HETATM   21  N2  UNL     1       1.506  27.422   5.891  1.00  0.00    -0.340 N
ATOM     22  H2  UNL     1       1.598  27.153   4.912  1.00  0.00     0.167 HD
BRANCH  20  23
HETATM   23  C11 UNL     1      -0.252  28.975   5.589  1.00  0.00     0.006 C
BRANCH  23  24
HETATM   24  C12 UNL     1      -1.320  28.256   4.884  1.00  0.00     0.030 C
BRANCH  24  25
HETATM   25  C13 UNL     1      -2.401  27.781   5.848  1.00  0.00     0.008 C
BRANCH  25  26
HETATM   26  C14 UNL     1      -3.407  28.874   6.144  1.00  0.00    -0.014 A
HETATM   27  C15 UNL     1      -4.713  28.520   6.768  1.00  0.00     0.005 A
HETATM   28  C16 UNL     1      -3.643  29.131   7.640  1.00  0.00     0.005 A
ENDBRANCH  25  26
ENDBRANCH  24  25
ENDBRANCH  23  24
ENDBRANCH  20  23
ENDBRANCH  14  15
ENDBRANCH  13  14
ENDBRANCH   2  13
BRANCH   1  29
HETATM   29  C3  UNL     1       5.968  23.843   6.522  1.00  0.00     0.085 C
BRANCH  29  30
HETATM   30  C2  UNL     1       4.934  22.826   6.817  1.00  0.00    -0.031 C
HETATM   31  C1  UNL     1       4.038  22.522   5.900  1.00  0.00     0.007 C
ENDBRANCH  29  30
ENDBRANCH   1  29
BRANCH   3  32
HETATM   32  O1  UNL     1       5.163  28.213   8.401  1.00  0.00    -0.282 OA
ATOM     33  H1  UNL     1       5.677  28.982   8.614  1.00  0.00     0.245 HD
ENDBRANCH   3  32
TORSDOF 10
ENDMDL