MODEL 2
REMARK VINA RESULT: -8.695747746      0.826      1.043
REMARK  9 active torsions:
REMARK  status: ('A' for Active; 'I' for Inactive)
REMARK    1  A    between atoms: N1_12  and  C12_13
REMARK    2  A    between atoms: C12_13  and  C13_14
REMARK    3  A    between atoms: C13_14  and  N2_15
REMARK    4  A    between atoms: N2_15  and  C14_18
REMARK    5  A    between atoms: C14_18  and  C15_19
REMARK    6  A    between atoms: C15_19  and  C16_20
REMARK    7  A    between atoms: C16_20  and  N3_21
REMARK    8  A    between atoms: N3_21  and  C17_23
REMARK    9  A    between atoms: C17_23  and  N4_25
ROOT
HETATM    1  C1  UNL     1      -4.998  29.718   8.394  1.00  0.00     0.048 C
HETATM    2  C2  UNL     1      -3.756  29.307   7.659  1.00  0.00    -0.060 A
HETATM    3  C3  UNL     1      -3.749  29.225   6.287  1.00  0.00     0.007 A
HETATM    4  C4  UNL     1      -2.620  28.849   5.588  1.00  0.00     0.015 A
HETATM    5  C5  UNL     1      -1.473  28.552   6.339  1.00  0.00    -0.002 A
HETATM    6  C6  UNL     1      -0.334  28.176   5.638  1.00  0.00    -0.037 A
HETATM    7  C7  UNL     1      -0.389  28.103   4.156  1.00  0.00     0.050 C
HETATM    8  C8  UNL     1       0.791  27.889   6.373  1.00  0.00     0.001 A
HETATM    9  C9  UNL     1       1.962  27.508   5.758  1.00  0.00     0.039 A
HETATM   10  C10 UNL     1       3.093  27.221   6.531  1.00  0.00     0.008 A
HETATM   11  C11 UNL     1       4.290  26.825   5.774  1.00  0.00     0.068 C
HETATM   12  N1  UNL     1       3.067  27.306   7.860  1.00  0.00    -0.357 N
HETATM   13  C20 UNL     1       1.906  27.683   8.455  1.00  0.00     0.121 A
HETATM   14  C21 UNL     1       0.753  27.982   7.759  1.00  0.00     0.061 A
HETATM   15  N5  UNL     1      -0.351  28.344   8.402  1.00  0.00    -0.349 N
HETATM   16  C22 UNL     1      -0.445  28.464   9.841  1.00  0.00     0.156 C
HETATM   17  C23 UNL     1      -1.481  28.633   7.695  1.00  0.00     0.045 A
HETATM   18  C24 UNL     1      -2.637  29.017   8.395  1.00  0.00     0.037 A
ENDROOT
BRANCH  12  19
HETATM   19  C12 UNL     1       4.238  26.997   8.664  1.00  0.00     0.155 C
BRANCH  19  20
HETATM   20  C13 UNL     1       4.726  28.231   9.379  1.00  0.00     0.252 C
BRANCH  20  21
HETATM   21  N2  UNL     1       6.157  28.156   9.504  1.00  0.00    -0.074 N
ATOM     22  H22 UNL     1       6.484  27.217   9.277  1.00  0.00     0.277 HD
ATOM     23  H21 UNL     1       6.607  28.684   8.757  1.00  0.00     0.277 HD
BRANCH  21  24
HETATM   24  C14 UNL     1       6.666  28.566  10.779  1.00  0.00     0.234 C
BRANCH  24  25
HETATM   25  C15 UNL     1       7.962  27.822  11.117  1.00  0.00     0.047 C
BRANCH  25  26
HETATM   26  C16 UNL     1       9.028  28.841  11.343  1.00  0.00     0.123 C
BRANCH  26  27
HETATM   27  N3  UNL     1       9.742  28.690  12.592  1.00  0.00    -0.367 N
ATOM     28  H3  UNL     1       9.464  27.934  13.218  1.00  0.00     0.161 HD
BRANCH  27  29
HETATM   29  C17 UNL     1      10.801  29.529  12.992  1.00  0.00     0.169 C
HETATM   30  S1  UNL     1      10.535  30.814  13.950  1.00  0.00    -0.041 SA
BRANCH  29  31
HETATM   31  N4  UNL     1      12.115  29.267  12.555  1.00  0.00    -0.367 N
HETATM   32  C18 UNL     1      12.679  27.917  12.599  1.00  0.00     0.151 C
HETATM   33  C19 UNL     1      12.909  30.385  12.057  1.00  0.00     0.151 C
ENDBRANCH  29  31
ENDBRANCH  27  29
ENDBRANCH  26  27
ENDBRANCH  25  26
ENDBRANCH  24  25
ENDBRANCH  21  24
ENDBRANCH  20  21
ENDBRANCH  19  20
ENDBRANCH  12  19
TORSDOF 9
ENDMDL