MODEL 2
REMARK VINA RESULT: -9.739689383      0.845      1.406
REMARK  7 active torsions:
REMARK  status: ('A' for Active; 'I' for Inactive)
REMARK    1  A    between atoms: C2_2  and  C3_3
REMARK    2  A    between atoms: C3_3  and  C4_4
REMARK    3  A    between atoms: C4_4  and  C5_5
REMARK    4  A    between atoms: C5_5  and  N1_6
REMARK       I    between atoms: N1_6  and  C6_8
REMARK       I    between atoms: C6_8  and  N2_10
REMARK    5  A    between atoms: C16_25  and  C17_26
REMARK    6  A    between atoms: C17_26  and  C18_27
REMARK    7  A    between atoms: C18_27  and  C19_28
ROOT
HETATM    1  N1  UNL     1       6.670  26.500  10.539  1.00  0.00    -0.343 N
ATOM      2  H1  UNL     1       6.125  27.248  10.969  1.00  0.00     0.164 HD
HETATM    3  C6  UNL     1       6.278  25.990   9.301  1.00  0.00     0.325 C
HETATM    4  O1  UNL     1       6.971  25.064   8.793  1.00  0.00    -0.247 OA
HETATM    5  N2  UNL     1       5.134  26.457   8.572  1.00  0.00    -0.260 N
HETATM    6  C7  UNL     1       4.740  25.920   7.291  1.00  0.00     0.195 A
HETATM    7  C8  UNL     1       3.528  26.680   6.911  1.00  0.00     0.044 A
HETATM    8  N3  UNL     1       2.568  26.839   5.953  1.00  0.00    -0.360 N
ATOM      9  H3  UNL     1       2.513  26.301   5.088  1.00  0.00     0.165 HD
HETATM   10  C9  UNL     1       1.706  27.804   6.311  1.00  0.00     0.018 A
HETATM   11  C10 UNL     1       2.090  28.312   7.534  1.00  0.00    -0.016 A
HETATM   12  C11 UNL     1       3.226  27.598   7.890  1.00  0.00     0.065 A
HETATM   13  C12 UNL     1       4.220  27.461   8.921  1.00  0.00     0.264 A
HETATM   14  O2  UNL     1       4.223  28.165   9.962  1.00  0.00    -0.267 OA
HETATM   15  C13 UNL     1       1.472  29.391   8.360  1.00  0.00     0.061 C
HETATM   16  C14 UNL     1       0.032  29.053   8.674  1.00  0.00     0.131 C
HETATM   17  N4  UNL     1      -0.795  28.919   7.511  1.00  0.00    -0.346 N
HETATM   18  C15 UNL     1      -1.933  29.741   7.303  1.00  0.00     0.224 C
HETATM   19  O3  UNL     1      -2.229  30.839   7.840  1.00  0.00    -0.273 OA
HETATM   20  C16 UNL     1      -2.799  29.087   6.286  1.00  0.00     0.083 C
HETATM   21  C21 UNL     1      -1.941  28.077   5.603  1.00  0.00     0.018 C
HETATM   22  C22 UNL     1      -1.702  28.400   4.144  1.00  0.00     0.013 C
HETATM   23  C23 UNL     1      -0.695  28.031   6.407  1.00  0.00     0.097 C
HETATM   24  C24 UNL     1       0.524  28.279   5.543  1.00  0.00     0.083 C
ENDROOT
BRANCH   1  25
HETATM   25  C5  UNL     1       7.831  25.987  11.223  1.00  0.00     0.125 C
BRANCH  25  26
HETATM   26  C4  UNL     1       8.803  27.022  11.678  1.00  0.00     0.023 C
BRANCH  26  27
HETATM   27  C3  UNL     1      10.128  26.435  12.116  1.00  0.00     0.028 C
BRANCH  27  28
HETATM   28  C2  UNL     1       9.898  25.024  12.495  1.00  0.00    -0.037 C
HETATM   29  C1  UNL     1      10.829  24.082  12.387  1.00  0.00     0.007 C
ENDBRANCH  27  28
ENDBRANCH  26  27
ENDBRANCH  25  26
ENDBRANCH   1  25
BRANCH  20  30
HETATM   30  C17 UNL     1      -3.990  28.385   6.891  1.00  0.00     0.014 C
BRANCH  30  31
HETATM   31  C18 UNL     1      -5.265  29.175   6.729  1.00  0.00     0.000 C
BRANCH  31  32
HETATM   32  C19 UNL     1      -5.441  30.132   7.882  1.00  0.00    -0.005 C
HETATM   33  C20 UNL     1      -6.268  31.337   7.489  1.00  0.00     0.005 C
ENDBRANCH  31  32
ENDBRANCH  30  31
ENDBRANCH  20  30
TORSDOF 7
ENDMDL