MODEL 1
REMARK VINA RESULT: -8.598749430      0.000      0.000
REMARK  10 active torsions:
REMARK  status: ('A' for Active; 'I' for Inactive)
REMARK    1  A    between atoms: C2_2  and  C3_3
REMARK    2  A    between atoms: C6_8  and  N2_9
REMARK    3  A    between atoms: N2_9  and  C7_10
REMARK    4  A    between atoms: C7_10  and  O1_11
REMARK    5  A    between atoms: C7_10  and  C8_13
REMARK    6  A    between atoms: C8_13  and  C9_14
REMARK    7  A    between atoms: C8_13  and  N3_18
REMARK    8  A    between atoms: C9_14  and  C10_15
REMARK       I    between atoms: N3_18  and  C13_20
REMARK       I    between atoms: C13_20  and  N4_22
REMARK    9  A    between atoms: N4_22  and  C14_23
REMARK   10  A    between atoms: N4_22  and  C16_25
ROOT
HETATM    1  C7  UNL     1       5.238  26.921   7.991  1.00  0.00     0.239 C
ENDROOT
BRANCH   1   2
HETATM    2  N2  UNL     1       3.974  27.202   7.910  1.00  0.00    -0.359 NA
BRANCH   2   3
HETATM    3  C6  UNL     1       2.806  27.465   7.830  1.00  0.00     0.198 A
HETATM    4  N1  UNL     1       2.278  27.771   6.605  1.00  0.00    -0.328 N
HETATM    5  C5  UNL     1       0.962  27.915   6.436  1.00  0.00     0.062 A
ATOM      6  H1  UNL     1       2.901  27.891   5.807  1.00  0.00     0.168 HD
HETATM    7  C4  UNL     1       0.458  28.159   5.183  1.00  0.00     0.039 A
HETATM    8  C20 UNL     1       0.082  27.760   7.477  1.00  0.00     0.061 A
HETATM    9  C3  UNL     1      -0.913  28.249   4.918  1.00  0.00    -0.050 A
HETATM   10  C22 UNL     1      -1.758  28.087   5.970  1.00  0.00    -0.053 A
HETATM   11  C21 UNL     1      -1.270  27.843   7.270  1.00  0.00     0.039 A
HETATM   12  C23 UNL     1      -3.209  28.182   5.835  1.00  0.00     0.049 C
HETATM   13  N5  UNL     1       0.588  27.468   8.687  1.00  0.00    -0.355 N
HETATM   14  C18 UNL     1       1.916  27.323   8.864  1.00  0.00     0.155 A
HETATM   15  C19 UNL     1      -0.389  27.333   9.770  1.00  0.00     0.156 C
BRANCH   9  16
HETATM   16  C2  UNL     1      -1.315  28.354   3.523  1.00  0.00     0.034 C
HETATM   17  C1  UNL     1      -1.234  29.852   3.155  1.00  0.00     0.010 C
ENDBRANCH   9  16
ENDBRANCH   2   3
ENDBRANCH   1   2
BRANCH   1  18
HETATM   18  O1  UNL     1       5.981  27.969   8.475  1.00  0.00    -0.334 OA
ATOM     19  H1  UNL     1       6.866  27.979   8.128  1.00  0.00     0.220 HD
ENDBRANCH   1  18
BRANCH   1  20
HETATM   20  C8  UNL     1       6.125  25.796   7.720  1.00  0.00     0.079 C
BRANCH  20  21
HETATM   21  C9  UNL     1       5.384  24.617   7.216  1.00  0.00     0.067 C
BRANCH  21  22
HETATM   22  C10 UNL     1       5.381  24.299   5.787  1.00  0.00    -0.017 C
HETATM   23  C11 UNL     1       4.005  24.717   5.230  1.00  0.00     0.010 C
HETATM   24  C12 UNL     1       6.475  24.831   4.929  1.00  0.00     0.010 C
ENDBRANCH  21  22
ENDBRANCH  20  21
BRANCH  20  25
HETATM   25  N3  UNL     1       7.182  25.474   8.600  1.00  0.00    -0.307 N
HETATM   26  C13 UNL     1       7.276  24.959   9.866  1.00  0.00     0.322 C
HETATM   27  O2  UNL     1       6.301  24.606  10.608  1.00  0.00    -0.247 OA
HETATM   28  N4  UNL     1       8.590  24.765  10.458  1.00  0.00    -0.335 N
ATOM     29  H3  UNL     1       8.096  25.675   8.196  1.00  0.00     0.170 HD
BRANCH  28  30
HETATM   30  C14 UNL     1       8.673  24.073  11.739  1.00  0.00     0.123 C
HETATM   31  C15 UNL     1       9.160  25.122  12.732  1.00  0.00     0.026 C
ENDBRANCH  28  30
BRANCH  28  32
HETATM   32  C16 UNL     1       9.765  25.253   9.822  1.00  0.00     0.123 C
HETATM   33  C17 UNL     1      10.594  24.123   9.225  1.00  0.00     0.026 C
ENDBRANCH  28  32
ENDBRANCH  20  25
ENDBRANCH   1  20
TORSDOF 10
ENDMDL