MODEL 5
REMARK VINA RESULT: -8.708035926      2.334      4.131
REMARK  8 active torsions:
REMARK  status: ('A' for Active; 'I' for Inactive)
REMARK    1  A    between atoms: C7_7  and  C8_8
REMARK    2  A    between atoms: C8_8  and  C9_9
REMARK    3  A    between atoms: C13_13  and  N1_14
REMARK    4  A    between atoms: N1_14  and  C14_16
REMARK    5  A    between atoms: C14_16  and  C15_17
REMARK    6  A    between atoms: C18_20  and  N2_21
REMARK       I    between atoms: N2_21  and  C19_23
REMARK    7  A    between atoms: C19_23  and  O2_25
REMARK    8  A    between atoms: O2_25  and  C20_26
ROOT
HETATM    1  N1  UNL     1      -4.995 -27.749   9.259  1.00  0.00    -0.411 N
ATOM      2  H1  UNL     1      -4.221 -27.626   9.912  1.00  0.00     0.153 HD
ENDROOT
BRANCH   1   3
HETATM    3  C13 UNL     1      -4.880 -28.595   8.111  1.00  0.00     0.151 C
HETATM    4  C12 UNL     1      -4.041 -27.943   7.031  1.00  0.00     0.052 C
HETATM    5  C8  UNL     1      -3.146 -29.192   6.938  1.00  0.00     0.060 C
HETATM    6  C26 UNL     1      -3.811 -29.682   8.199  1.00  0.00     0.275 C
HETATM    7  F1  UNL     1      -3.063 -29.691   9.342  1.00  0.00    -0.203 F
HETATM    8  F2  UNL     1      -4.407 -30.949   8.063  1.00  0.00    -0.203 F
BRANCH   5   9
HETATM    9  C7  UNL     1      -1.727 -28.844   7.016  1.00  0.00    -0.042 A
HETATM   10  C6  UNL     1      -1.063 -28.627   5.833  1.00  0.00     0.014 A
HETATM   11  C4  UNL     1       0.293 -28.289   5.827  1.00  0.00    -0.061 A
HETATM   12  C3  UNL     1       0.980 -28.171   7.013  1.00  0.00     0.013 A
HETATM   13  C5  UNL     1       1.033 -28.046   4.558  1.00  0.00     0.048 C
HETATM   14  C2  UNL     1       0.347 -28.382   8.212  1.00  0.00    -0.061 A
HETATM   15  C1  UNL     1       1.042 -28.271   9.522  1.00  0.00     0.048 C
HETATM   16  C27 UNL     1      -0.985 -28.712   8.168  1.00  0.00     0.014 A
ENDBRANCH   5   9
BRANCH   5  17
HETATM   17  C9  UNL     1      -3.629 -30.016   5.783  1.00  0.00    -0.004 C
HETATM   18  C10 UNL     1      -4.420 -29.245   4.753  1.00  0.00     0.011 C
HETATM   19  C11 UNL     1      -2.525 -30.861   5.167  1.00  0.00     0.011 C
ENDBRANCH   5  17
ENDBRANCH   1   3
BRANCH   1  20
HETATM   20  C14 UNL     1      -6.238 -27.090   9.446  1.00  0.00     0.118 C
BRANCH  20  21
HETATM   21  C15 UNL     1      -6.151 -25.643   9.876  1.00  0.00     0.003 C
HETATM   22  C16 UNL     1      -5.816 -24.871   8.613  1.00  0.00     0.008 C
HETATM   23  C17 UNL     1      -7.074 -24.623   7.805  1.00  0.00     0.026 C
HETATM   24  C18 UNL     1      -7.841 -23.562   8.618  1.00  0.00     0.086 C
HETATM   25  C24 UNL     1      -8.247 -24.191   9.882  1.00  0.00     0.026 C
HETATM   26  C25 UNL     1      -7.347 -25.128  10.571  1.00  0.00     0.008 C
BRANCH  24  27
HETATM   27  N2  UNL     1      -8.997 -23.121   7.854  1.00  0.00    -0.332 N
HETATM   28  C19 UNL     1      -8.962 -21.808   7.281  1.00  0.00     0.361 C
HETATM   29  O1  UNL     1      -7.929 -21.078   7.445  1.00  0.00    -0.238 OA
ATOM     30  H2  UNL     1      -9.808 -23.727   7.730  1.00  0.00     0.165 HD
BRANCH  28  31
HETATM   31  O2  UNL     1     -10.009 -21.289   6.548  1.00  0.00    -0.294 OA
BRANCH  31  32
HETATM   32  C20 UNL     1     -10.126 -21.480   5.154  1.00  0.00     0.061 C
HETATM   33  C21 UNL     1     -11.042 -20.387   4.597  1.00  0.00     0.046 C
HETATM   34  C22 UNL     1      -8.830 -21.386   4.416  1.00  0.00     0.046 C
HETATM   35  C23 UNL     1     -10.814 -22.817   4.871  1.00  0.00     0.046 C
ENDBRANCH  31  32
ENDBRANCH  28  31
ENDBRANCH  24  27
ENDBRANCH  20  21
ENDBRANCH   1  20
TORSDOF 8
ENDMDL