MODEL 5
REMARK VINA RESULT: -6.228351731      3.859      6.319
REMARK  8 active torsions:
REMARK  status: ('A' for Active; 'I' for Inactive)
REMARK    1  A    between atoms: C7_7  and  C8_8
REMARK    2  A    between atoms: C8_8  and  C9_9
REMARK    3  A    between atoms: C9_9  and  C10_10
REMARK    4  A    between atoms: C10_10  and  C11_11
REMARK    5  A    between atoms: C11_11  and  C12_12
REMARK    6  A    between atoms: C17_20  and  C18_21
REMARK    7  A    between atoms: C18_21  and  O1_24
REMARK    8  A    between atoms: C23_30  and  C24_31
ROOT
HETATM    1  C1  UNL     1      -0.077 -28.284   5.674  1.00  0.00     0.018 C
HETATM    2  C2  UNL     1      -1.098 -27.833   6.133  1.00  0.00    -0.077 C
HETATM    3  C3  UNL     1      -2.309 -27.280   6.667  1.00  0.00     0.028 A
HETATM    4  C4  UNL     1      -2.576 -25.942   6.462  1.00  0.00     0.035 A
HETATM    5  C5  UNL     1      -3.713 -25.338   6.941  1.00  0.00    -0.007 A
HETATM    6  C6  UNL     1      -4.025 -24.023   6.770  1.00  0.00     0.023 A
HETATM    7  C7  UNL     1      -5.203 -23.439   7.281  1.00  0.00    -0.032 A
HETATM    8  C17 UNL     1      -6.077 -24.213   7.975  1.00  0.00     0.050 A
HETATM    9  N2  UNL     1      -5.727 -25.531   8.127  1.00  0.00    -0.356 N
ATOM     10  H2  UNL     1      -6.373 -26.125   8.648  1.00  0.00     0.166 HD
HETATM   11  C21 UNL     1      -4.635 -26.096   7.662  1.00  0.00     0.043 A
HETATM   12  C22 UNL     1      -4.351 -27.431   7.858  1.00  0.00     0.043 A
HETATM   13  C23 UNL     1      -3.213 -28.039   7.378  1.00  0.00     0.016 A
ENDROOT
BRANCH  13  14
HETATM   14  C24 UNL     1      -2.938 -29.489   7.618  1.00  0.00     0.217 C
HETATM   15 CL1  UNL     1      -2.678 -30.361   6.108  1.00  0.00    -0.078 Cl
HETATM   16 CL2  UNL     1      -4.408 -30.191   8.379  1.00  0.00    -0.078 Cl
HETATM   17 CL3  UNL     1      -1.605 -29.678   8.767  1.00  0.00    -0.078 Cl
ENDBRANCH  13  14
BRANCH   7  18
HETATM   18  C8  UNL     1      -5.315 -22.017   7.069  1.00  0.00     0.040 C
BRANCH  18  19
HETATM   19  C9  UNL     1      -5.744 -21.773   5.600  1.00  0.00     0.005 C
BRANCH  19  20
HETATM   20  C10 UNL     1      -7.153 -21.334   5.657  1.00  0.00     0.002 C
BRANCH  20  21
HETATM   21  C11 UNL     1      -7.903 -21.385   4.395  1.00  0.00     0.033 C
BRANCH  21  22
HETATM   22  C12 UNL     1      -9.380 -21.207   4.500  1.00  0.00     0.185 C
HETATM   23  C13 UNL     1      -9.934 -21.668   3.138  1.00  0.00     0.033 C
HETATM   24  C14 UNL     1     -11.415 -21.844   3.138  1.00  0.00     0.004 C
HETATM   25  C15 UNL     1     -11.940 -22.547   4.380  1.00  0.00     0.027 C
HETATM   26  C16 UNL     1     -10.690 -23.156   5.036  1.00  0.00     0.232 C
HETATM   27  N1  UNL     1      -9.919 -22.031   5.543  1.00  0.00    -0.071 N
ATOM     28  H12 UNL     1      -9.183 -22.348   6.174  1.00  0.00     0.277 HD
ATOM     29  H11 UNL     1     -10.471 -21.475   6.197  1.00  0.00     0.277 HD
ENDBRANCH  21  22
ENDBRANCH  20  21
ENDBRANCH  19  20
ENDBRANCH  18  19
ENDBRANCH   7  18
BRANCH   8  30
HETATM   30  C18 UNL     1      -7.341 -23.685   8.471  1.00  0.00     0.093 C
HETATM   31  C19 UNL     1      -7.814 -24.766   9.511  1.00  0.00     0.052 C
HETATM   32  C20 UNL     1      -7.355 -22.440   9.259  1.00  0.00     0.052 C
BRANCH  30  33
HETATM   33  O1  UNL     1      -8.383 -23.801   7.524  1.00  0.00    -0.384 OA
ATOM     34  H1  UNL     1      -9.055 -24.414   7.799  1.00  0.00     0.211 HD
ENDBRANCH  30  33
ENDBRANCH   8  30
TORSDOF 8
ENDMDL