MODEL 1
REMARK VINA RESULT: -9.078548727      0.000      0.000
REMARK  7 active torsions:
REMARK  status: ('A' for Active; 'I' for Inactive)
REMARK    1  A    between atoms: C2_2  and  N1_4
REMARK    2  A    between atoms: C2_2  and  C10_15
REMARK    3  A    between atoms: N1_4  and  C4_6
REMARK    4  A    between atoms: C8_10  and  O1_11
REMARK    5  A    between atoms: C13_18  and  C14_19
REMARK    6  A    between atoms: C14_19  and  C15_20
REMARK    7  A    between atoms: C15_20  and  C16_21
ROOT
HETATM    1  C10 UNL     1      -3.115 -27.376   8.307  1.00  0.00     0.012 C
HETATM    2  C11 UNL     1      -2.313 -26.356   9.072  1.00  0.00     0.007 C
HETATM    3  C12 UNL     1      -0.826 -26.665   8.764  1.00  0.00     0.005 C
HETATM    4  C13 UNL     1      -0.520 -27.874   9.576  1.00  0.00    -0.014 C
HETATM    5  C25 UNL     1      -1.242 -29.010   8.840  1.00  0.00     0.005 C
HETATM    6  C26 UNL     1      -2.716 -28.732   8.932  1.00  0.00     0.007 C
ENDROOT
BRANCH   4   7
HETATM    7  C14 UNL     1       0.898 -28.234   9.800  1.00  0.00     0.009 C
BRANCH   7   8
HETATM    8  C15 UNL     1       1.340 -29.348   8.887  1.00  0.00     0.040 C
BRANCH   8   9
HETATM    9  C16 UNL     1       2.250 -28.906   7.836  1.00  0.00    -0.041 A
HETATM   10  C17 UNL     1       1.824 -28.041   6.805  1.00  0.00     0.025 A
HETATM   11  C18 UNL     1       2.607 -27.681   5.750  1.00  0.00     0.089 A
HETATM   12  N2  UNL     1       3.848 -28.162   5.676  1.00  0.00    -0.365 N
HETATM   13  C19 UNL     1       4.323 -28.983   6.617  1.00  0.00     0.048 A
ATOM     14  H2  UNL     1       4.443 -27.900   4.890  1.00  0.00     0.165 HD
HETATM   15  C20 UNL     1       5.624 -29.413   6.474  1.00  0.00     0.072 A
HETATM   16  C24 UNL     1       3.526 -29.368   7.716  1.00  0.00     0.036 A
HETATM   17  C21 UNL     1       6.207 -30.244   7.409  1.00  0.00     0.121 A
HETATM   18  F1  UNL     1       7.478 -30.691   7.297  1.00  0.00    -0.206 F
HETATM   19  C22 UNL     1       5.433 -30.627   8.492  1.00  0.00     0.085 A
HETATM   20  C23 UNL     1       4.108 -30.193   8.644  1.00  0.00     0.132 A
HETATM   21  F2  UNL     1       3.413 -30.564   9.723  1.00  0.00    -0.205 F
ENDBRANCH   8   9
ENDBRANCH   7   8
ENDBRANCH   4   7
BRANCH   1  22
HETATM   22  C2  UNL     1      -4.594 -27.316   8.531  1.00  0.00     0.022 C
HETATM   23  C1  UNL     1      -4.937 -28.239   9.695  1.00  0.00     0.038 C
HETATM   24  C3  UNL     1      -5.276 -27.913   7.324  1.00  0.00     0.038 C
BRANCH  22  25
HETATM   25  N1  UNL     1      -5.122 -26.051   8.915  1.00  0.00    -0.407 N
ATOM     26  H1  UNL     1      -4.765 -25.585   9.748  1.00  0.00     0.154 HD
BRANCH  25  27
HETATM   27  C4  UNL     1      -6.134 -25.442   8.148  1.00  0.00     0.098 C
HETATM   28  C5  UNL     1      -5.623 -24.140   7.595  1.00  0.00     0.026 C
HETATM   29  C6  UNL     1      -6.159 -22.908   8.193  1.00  0.00     0.004 C
HETATM   30  C7  UNL     1      -6.831 -22.949   9.500  1.00  0.00     0.033 C
HETATM   31  C8  UNL     1      -7.087 -24.321  10.064  1.00  0.00     0.138 C
HETATM   32  C9  UNL     1      -7.425 -25.216   8.910  1.00  0.00     0.133 C
HETATM   33 CL1  UNL     1      -8.581 -24.407   7.827  1.00  0.00    -0.120 Cl
BRANCH  31  34
HETATM   34  O1  UNL     1      -5.975 -24.680  10.782  1.00  0.00    -0.394 OA
ATOM     35  H1  UNL     1      -5.313 -24.016  10.627  1.00  0.00     0.210 HD
ENDBRANCH  31  34
ENDBRANCH  25  27
ENDBRANCH  22  25
ENDBRANCH   1  22
TORSDOF 7
ENDMDL