MODEL 5
REMARK VINA RESULT: -7.661430112      1.840      2.870
REMARK  11 active torsions:
REMARK  status: ('A' for Active; 'I' for Inactive)
REMARK    1  A    between atoms: C2_2  and  C3_3
REMARK    2  A    between atoms: C3_3  and  C4_4
REMARK    3  A    between atoms: C3_3  and  N1_6
REMARK    4  A    between atoms: N1_6  and  C7_8
REMARK    5  A    between atoms: C7_8  and  O1_9
REMARK    6  A    between atoms: C7_8  and  C8_11
REMARK    7  A    between atoms: C9_12  and  N2_13
REMARK    8  A    between atoms: N2_13  and  C10_15
REMARK    9  A    between atoms: C10_15  and  N3_17
REMARK   10  A    between atoms: N3_17  and  C11_19
REMARK   11  A    between atoms: C20_29  and  C21_30
ROOT
HETATM    1  C8  UNL     1      -4.940 -26.800   9.094  1.00  0.00     0.065 A
HETATM    2  C9  UNL     1      -3.832 -27.007   8.226  1.00  0.00     0.092 A
HETATM    3  S2  UNL     1      -3.765 -25.639   7.263  1.00  0.00    -0.075 SA
HETATM    4  C18 UNL     1      -5.074 -24.778   7.885  1.00  0.00    -0.003 A
HETATM    5  C19 UNL     1      -5.514 -23.403   7.415  1.00  0.00     0.057 C
HETATM    6  C20 UNL     1      -5.573 -25.597   8.874  1.00  0.00     0.077 A
ENDROOT
BRANCH   2   7
HETATM    7  N2  UNL     1      -2.898 -28.111   8.295  1.00  0.00    -0.327 N
ATOM      8  H2  UNL     1      -3.194 -29.004   7.901  1.00  0.00     0.169 HD
BRANCH   7   9
HETATM    9  C10 UNL     1      -1.619 -28.044   8.860  1.00  0.00     0.172 C
HETATM   10  S1  UNL     1      -1.343 -26.620   9.696  1.00  0.00    -0.041 SA
BRANCH   9  11
HETATM   11  N3  UNL     1      -0.600 -28.985   8.834  1.00  0.00    -0.362 N
ATOM     12  H3  UNL     1      -0.760 -29.918   9.213  1.00  0.00     0.162 HD
BRANCH  11  13
HETATM   13  C11 UNL     1       0.716 -28.643   8.262  1.00  0.00     0.083 C
HETATM   14  C12 UNL     1       1.742 -29.606   8.698  1.00  0.00     0.025 C
HETATM   15  C13 UNL     1       2.829 -29.986   7.769  1.00  0.00     0.002 C
HETATM   16  C14 UNL     1       3.707 -28.830   7.349  1.00  0.00     0.000 C
HETATM   17  C15 UNL     1       3.069 -28.127   6.214  1.00  0.00     0.000 C
HETATM   18  C16 UNL     1       1.672 -28.549   5.887  1.00  0.00     0.002 C
HETATM   19  C17 UNL     1       0.626 -28.217   6.864  1.00  0.00     0.025 C
ENDBRANCH  11  13
ENDBRANCH   9  11
ENDBRANCH   7   9
ENDBRANCH   2   7
BRANCH   1  20
HETATM   20  C7  UNL     1      -5.400 -27.959   9.866  1.00  0.00     0.152 C
BRANCH  20  21
HETATM   21  N1  UNL     1      -6.527 -28.748   9.997  1.00  0.00    -0.361 N
HETATM   22  C6  UNL     1      -7.543 -28.569  11.011  1.00  0.00     0.152 C
BRANCH  21  23
HETATM   23  C3  UNL     1      -6.655 -30.007   9.215  1.00  0.00     0.085 C
BRANCH  23  24
HETATM   24  C2  UNL     1      -5.449 -30.334   8.420  1.00  0.00     0.021 C
HETATM   25  C1  UNL     1      -5.721 -30.236   6.912  1.00  0.00     0.007 C
ENDBRANCH  23  24
BRANCH  23  26
HETATM   26  C4  UNL     1      -7.158 -31.153  10.006  1.00  0.00     0.021 C
HETATM   27  C5  UNL     1      -7.977 -32.113   9.129  1.00  0.00     0.007 C
ENDBRANCH  23  26
ENDBRANCH  21  23
ENDBRANCH  20  21
BRANCH  20  28
HETATM   28  O1  UNL     1      -4.419 -28.375  10.726  1.00  0.00    -0.345 OA
ATOM     29  H1  UNL     1      -4.223 -29.294  10.590  1.00  0.00     0.219 HD
ENDBRANCH  20  28
ENDBRANCH   1  20
BRANCH   6  30
HETATM   30  C21 UNL     1      -6.811 -25.084   9.599  1.00  0.00     0.419 C
HETATM   31  F1  UNL     1      -6.658 -23.685   9.855  1.00  0.00    -0.166 F
HETATM   32  F2  UNL     1      -6.882 -25.532  10.895  1.00  0.00    -0.166 F
HETATM   33  F3  UNL     1      -7.931 -25.134   8.846  1.00  0.00    -0.166 F
ENDBRANCH   6  30
TORSDOF 11
ENDMDL