MODEL 5
REMARK VINA RESULT: -9.000378865      1.654      3.126
REMARK  9 active torsions:
REMARK  status: ('A' for Active; 'I' for Inactive)
REMARK    1  A    between atoms: C2_2  and  C5_5
REMARK    2  A    between atoms: C5_5  and  C6_6
REMARK    3  A    between atoms: C6_6  and  N1_7
REMARK    4  A    between atoms: N1_7  and  C7_9
REMARK    5  A    between atoms: C7_9  and  C8_10
REMARK    6  A    between atoms: C8_10  and  C9_11
REMARK    7  A    between atoms: C12_14  and  N2_15
REMARK    8  A    between atoms: N2_15  and  C13_17
REMARK    9  A    between atoms: C25_33  and  C26_34
ROOT
HETATM    1  C9  UNL     1      -1.256 -27.378   9.260  1.00  0.00    -0.013 C
HETATM    2  C10 UNL     1      -1.764 -26.302   8.316  1.00  0.00     0.007 C
HETATM    3  C11 UNL     1      -2.931 -26.830   7.507  1.00  0.00     0.025 C
HETATM    4  C12 UNL     1      -3.957 -27.442   8.437  1.00  0.00     0.083 C
HETATM    5  C21 UNL     1      -3.365 -28.604   9.212  1.00  0.00     0.025 C
HETATM    6  C22 UNL     1      -1.864 -28.700   8.933  1.00  0.00     0.007 C
ENDROOT
BRANCH   1   7
HETATM    7  C8  UNL     1       0.236 -27.329   9.223  1.00  0.00     0.024 C
BRANCH   7   8
HETATM    8  C7  UNL     1       0.889 -28.712   9.186  1.00  0.00     0.115 C
BRANCH   8   9
HETATM    9  N1  UNL     1       2.098 -28.572   8.476  1.00  0.00    -0.412 N
ATOM     10  H1  UNL     1       2.827 -27.933   8.792  1.00  0.00     0.154 HD
BRANCH   9  11
HETATM   11  C6  UNL     1       2.265 -29.372   7.276  1.00  0.00     0.026 C
HETATM   12  C23 UNL     1       3.201 -28.600   6.373  1.00  0.00     0.031 C
HETATM   13  C24 UNL     1       4.509 -28.599   7.167  1.00  0.00     0.012 C
HETATM   14  C25 UNL     1       4.418 -29.791   8.094  1.00  0.00     0.053 C
HETATM   15  C27 UNL     1       3.125 -30.527   7.749  1.00  0.00     0.040 C
BRANCH  11  16
HETATM   16  C5  UNL     1       0.972 -29.693   6.734  1.00  0.00     0.038 C
BRANCH  16  17
HETATM   17  C2  UNL     1       0.494 -29.263   5.410  1.00  0.00    -0.049 C
HETATM   18  C1  UNL     1      -1.052 -29.379   5.547  1.00  0.00     0.014 C
HETATM   19  C3  UNL     1       0.698 -27.846   5.014  1.00  0.00     0.014 C
HETATM   20  C4  UNL     1       0.833 -30.238   4.293  1.00  0.00     0.014 C
ENDBRANCH  16  17
ENDBRANCH  11  16
BRANCH  14  21
HETATM   21  C26 UNL     1       5.621 -30.667   7.832  1.00  0.00     0.357 C
HETATM   22  F1  UNL     1       6.433 -30.767   8.950  1.00  0.00    -0.214 F
HETATM   23  F2  UNL     1       6.316 -30.086   6.783  1.00  0.00    -0.214 F
ENDBRANCH  14  21
ENDBRANCH   9  11
ENDBRANCH   8   9
ENDBRANCH   7   8
ENDBRANCH   1   7
BRANCH   4  24
HETATM   24  N2  UNL     1      -4.504 -26.455   9.324  1.00  0.00    -0.371 N
ATOM     25  H2  UNL     1      -4.050 -26.303  10.225  1.00  0.00     0.161 HD
BRANCH  24  26
HETATM   26  C13 UNL     1      -5.528 -25.762   9.035  1.00  0.00     0.117 A
HETATM   27  C14 UNL     1      -6.763 -26.235   9.508  1.00  0.00     0.136 A
HETATM   28  N3  UNL     1      -7.890 -25.568   9.251  1.00  0.00    -0.361 N
HETATM   29  C15 UNL     1      -7.835 -24.421   8.520  1.00  0.00     0.059 A
ATOM     30  H3  UNL     1      -8.784 -25.916   9.597  1.00  0.00     0.165 HD
HETATM   31  C16 UNL     1      -9.013 -23.750   8.267  1.00  0.00     0.032 A
HETATM   32  C20 UNL     1      -6.646 -23.930   8.041  1.00  0.00     0.060 A
HETATM   33  C17 UNL     1      -9.037 -22.584   7.536  1.00  0.00     0.002 A
HETATM   34  C18 UNL     1      -7.844 -22.096   7.058  1.00  0.00     0.002 A
HETATM   35  C19 UNL     1      -6.653 -22.765   7.310  1.00  0.00     0.032 A
HETATM   36  N4  UNL     1      -5.526 -24.626   8.319  1.00  0.00    -0.340 N
ATOM     37  H4  UNL     1      -4.635 -24.273   7.970  1.00  0.00     0.167 HD
ENDBRANCH  24  26
ENDBRANCH   4  24
TORSDOF 9
ENDMDL