MODEL 5
REMARK VINA RESULT: -8.507249993      2.252      3.109
REMARK  8 active torsions:
REMARK  status: ('A' for Active; 'I' for Inactive)
REMARK    1  A    between atoms: C2_2  and  O1_3
REMARK    2  A    between atoms: C2_2  and  C3_5
REMARK    3  A    between atoms: C3_5  and  C4_6
REMARK    4  A    between atoms: C4_6  and  C5_7
REMARK    5  A    between atoms: C5_7  and  N1_8
REMARK    6  A    between atoms: C8_11  and  C9_12
REMARK    7  A    between atoms: C11_14  and  C12_15
REMARK    8  A    between atoms: C23_29  and  C24_30
ROOT
HETATM    1  C9  UNL     1      -6.717 -26.804   9.572  1.00  0.00    -0.052 A
HETATM    2  C10 UNL     1      -5.488 -26.887   8.942  1.00  0.00     0.019 A
HETATM    3  C11 UNL     1      -4.805 -28.057   8.724  1.00  0.00    -0.032 A
HETATM    4  C22 UNL     1      -5.415 -29.215   9.177  1.00  0.00     0.027 A
HETATM    5  C23 UNL     1      -6.637 -29.201   9.809  1.00  0.00     0.049 A
HETATM    6  C25 UNL     1      -7.290 -27.973  10.005  1.00  0.00     0.023 A
ENDROOT
BRANCH   1   7
HETATM    7  C8  UNL     1      -7.237 -25.466   9.842  1.00  0.00     0.022 C
HETATM    8  C7  UNL     1      -8.182 -25.035   8.687  1.00  0.00     0.039 C
HETATM    9  C6  UNL     1      -8.983 -23.932   9.314  1.00  0.00     0.273 C
HETATM   10  N1  UNL     1      -8.100 -22.758   9.380  1.00  0.00     0.088 N
HETATM   11  C27 UNL     1      -6.711 -23.110   9.340  1.00  0.00     0.273 C
HETATM   12  C26 UNL     1      -6.323 -24.345  10.146  1.00  0.00     0.039 C
BRANCH  10  13
HETATM   13  C5  UNL     1      -8.447 -21.979   8.189  1.00  0.00     0.272 C
BRANCH  13  14
HETATM   14  C4  UNL     1      -9.858 -21.519   8.286  1.00  0.00     0.033 C
BRANCH  14  15
HETATM   15  C3  UNL     1     -10.554 -21.625   6.939  1.00  0.00     0.033 C
BRANCH  15  16
HETATM   16  C2  UNL     1      -9.641 -21.905   5.787  1.00  0.00     0.114 C
HETATM   17  C1  UNL     1     -10.452 -22.737   4.803  1.00  0.00     0.039 C
BRANCH  16  18
HETATM   18  O1  UNL     1      -9.322 -20.737   5.072  1.00  0.00    -0.396 OA
ATOM     19  H1  UNL     1      -9.394 -20.042   5.716  1.00  0.00     0.210 HD
ENDBRANCH  16  18
ENDBRANCH  15  16
ENDBRANCH  14  15
ENDBRANCH  13  14
ENDBRANCH  10  13
ENDBRANCH   1   7
BRANCH   3  20
HETATM   20  C12 UNL     1      -3.489 -28.080   8.108  1.00  0.00    -0.057 C
HETATM   21  C13 UNL     1      -3.036 -26.874   7.377  1.00  0.00     0.042 C
HETATM   22  C14 UNL     1      -2.150 -25.972   8.238  1.00  0.00     0.017 C
HETATM   23  C15 UNL     1      -2.251 -27.374   6.148  1.00  0.00     0.194 C
HETATM   24  C16 UNL     1      -1.110 -28.261   6.535  1.00  0.00     0.034 C
HETATM   25  N2  UNL     1      -3.279 -28.082   5.362  1.00  0.00    -0.061 N
HETATM   26  C17 UNL     1      -1.551 -29.345   7.448  1.00  0.00     0.013 C
HETATM   27  C18 UNL     1      -3.095 -29.373   7.399  1.00  0.00     0.051 C
HETATM   28  C19 UNL     1      -3.506 -29.407   5.961  1.00  0.00     0.126 C
HETATM   29  C20 UNL     1      -2.689 -30.350   5.128  1.00  0.00     0.046 C
HETATM   30  C21 UNL     1      -4.949 -29.822   5.847  1.00  0.00     0.046 C
ATOM     31  H22 UNL     1      -4.139 -27.543   5.272  1.00  0.00     0.278 HD
ATOM     32  H21 UNL     1      -3.042 -28.138   4.373  1.00  0.00     0.278 HD
ENDBRANCH   3  20
BRANCH   5  33
HETATM   33  C24 UNL     1      -7.314 -30.439  10.313  1.00  0.00     0.417 C
HETATM   34  F1  UNL     1      -6.355 -31.325  10.785  1.00  0.00    -0.166 F
HETATM   35  F2  UNL     1      -7.923 -31.024   9.183  1.00  0.00    -0.166 F
HETATM   36  F3  UNL     1      -8.233 -30.188  11.274  1.00  0.00    -0.166 F
ENDBRANCH   5  33
TORSDOF 8
ENDMDL