MODEL 3
REMARK VINA RESULT: -9.610458572      6.655     11.842
REMARK  8 active torsions:
REMARK  status: ('A' for Active; 'I' for Inactive)
REMARK    1  A    between atoms: C5_5  and  C6_6
REMARK    2  A    between atoms: C9_9  and  O1_10
REMARK    3  A    between atoms: C10_12  and  C11_13
REMARK    4  A    between atoms: C11_13  and  C12_14
REMARK    5  A    between atoms: C12_14  and  C13_15
REMARK    6  A    between atoms: C13_15  and  C14_16
REMARK    7  A    between atoms: C17_19  and  C18_20
REMARK    8  A    between atoms: C23_29  and  C24_30
ROOT
HETATM    1  C6  UNL     1      -3.767 -26.244   7.170  1.00  0.00     0.032 C
HETATM    2  C7  UNL     1      -3.102 -27.335   6.843  1.00  0.00     0.049 C
HETATM    3  C8  UNL     1      -3.477 -28.757   7.207  1.00  0.00     0.098 C
HETATM    4  C9  UNL     1      -2.752 -29.421   5.917  1.00  0.00     0.153 C
HETATM    5  C10 UNL     1      -1.453 -28.858   6.242  1.00  0.00     0.157 C
HETATM    6  O2  UNL     1      -1.935 -27.386   6.142  1.00  0.00    -0.347 OA
ENDROOT
BRANCH   1   7
HETATM    7  C5  UNL     1      -4.999 -26.275   8.009  1.00  0.00     0.006 C
HETATM    8  C4  UNL     1      -5.608 -25.192   8.381  1.00  0.00    -0.071 C
HETATM    9  C2  UNL     1      -6.812 -25.033   9.233  1.00  0.00    -0.019 C
HETATM   10  C21 UNL     1      -5.369 -23.827   7.781  1.00  0.00     0.035 C
HETATM   11  C1  UNL     1      -7.319 -26.368   9.643  1.00  0.00     0.020 C
HETATM   12  C3  UNL     1      -6.393 -24.264  10.477  1.00  0.00     0.020 C
HETATM   13  C23 UNL     1      -7.699 -24.227   8.339  1.00  0.00     0.028 C
HETATM   14  C22 UNL     1      -6.746 -23.326   7.533  1.00  0.00     0.012 C
BRANCH  13  15
HETATM   15  C24 UNL     1      -8.615 -23.258   9.042  1.00  0.00     0.191 C
HETATM   16  C25 UNL     1     -10.004 -23.700   9.304  1.00  0.00     0.035 C
HETATM   17  C26 UNL     1     -10.881 -23.043   8.257  1.00  0.00     0.029 C
HETATM   18  C27 UNL     1     -10.121 -21.782   8.001  1.00  0.00     0.233 C
HETATM   19  N1  UNL     1      -8.742 -22.127   8.079  1.00  0.00    -0.070 N
ATOM     20  H12 UNL     1      -8.147 -21.334   8.316  1.00  0.00     0.277 HD
ATOM     21  H11 UNL     1      -8.332 -22.333   7.168  1.00  0.00     0.277 HD
ENDBRANCH  13  15
ENDBRANCH   1   7
BRANCH   4  22
HETATM   22  O1  UNL     1      -2.843 -30.791   6.121  1.00  0.00    -0.393 OA
ATOM     23  H1  UNL     1      -2.185 -31.169   5.548  1.00  0.00     0.210 HD
ENDBRANCH   4  22
BRANCH   5  24
HETATM   24  C11 UNL     1      -0.264 -28.781   5.377  1.00  0.00     0.035 C
BRANCH  24  25
HETATM   25  C12 UNL     1       0.632 -27.727   6.211  1.00  0.00     0.007 C
BRANCH  25  26
HETATM   26  C13 UNL     1       0.877 -28.389   7.567  1.00  0.00     0.038 C
BRANCH  26  27
HETATM   27  C14 UNL     1       2.233 -28.910   7.753  1.00  0.00    -0.058 A
HETATM   28  C15 UNL     1       3.159 -28.548   6.757  1.00  0.00     0.008 A
HETATM   29  C16 UNL     1       4.416 -29.108   6.719  1.00  0.00     0.017 A
HETATM   30  C17 UNL     1       4.820 -30.055   7.667  1.00  0.00     0.047 A
HETATM   31  C19 UNL     1       3.904 -30.388   8.632  1.00  0.00     0.017 A
HETATM   32  C20 UNL     1       2.621 -29.840   8.704  1.00  0.00     0.008 A
BRANCH  30  33
HETATM   33  C18 UNL     1       6.180 -30.690   7.604  1.00  0.00     0.417 C
HETATM   34  F1  UNL     1       6.700 -30.755   8.869  1.00  0.00    -0.166 F
HETATM   35  F2  UNL     1       6.075 -32.019   7.163  1.00  0.00    -0.166 F
HETATM   36  F3  UNL     1       6.992 -30.065   6.707  1.00  0.00    -0.166 F
ENDBRANCH  30  33
ENDBRANCH  26  27
ENDBRANCH  25  26
ENDBRANCH  24  25
ENDBRANCH   5  24
TORSDOF 8
ENDMDL