MODEL 4
REMARK VINA RESULT: -8.882048237      1.798      2.704
REMARK  6 active torsions:
REMARK  status: ('A' for Active; 'I' for Inactive)
REMARK    1  A    between atoms: C5_6  and  C6_7
REMARK    2  A    between atoms: C7_10  and  C8_11
REMARK    3  A    between atoms: C8_11  and  O1_12
REMARK    4  A    between atoms: O1_12  and  C9_13
REMARK    5  A    between atoms: C15_21  and  C16_22
REMARK    6  A    between atoms: C23_32  and  C24_33
ROOT
HETATM    1  C1  UNL     1       5.558 -28.541   6.070  1.00  0.00     0.229 C
HETATM    2  N1  UNL     1       4.426 -28.528   6.279  1.00  0.00    -0.429 NA
HETATM    3  C2  UNL     1       3.090 -28.493   6.540  1.00  0.00     0.120 A
HETATM    4  C3  UNL     1       2.215 -27.852   5.691  1.00  0.00     0.046 A
HETATM    5  C4  UNL     1       0.847 -27.819   5.961  1.00  0.00     0.018 A
HETATM    6  C5  UNL     1       0.372 -28.438   7.096  1.00  0.00     0.009 A
HETATM    7  C22 UNL     1       1.264 -29.080   7.943  1.00  0.00     0.035 A
HETATM    8  C23 UNL     1       2.616 -29.113   7.676  1.00  0.00     0.089 A
ENDROOT
BRANCH   8   9
HETATM    9  C24 UNL     1       3.579 -29.796   8.573  1.00  0.00     0.420 C
HETATM   10  F1  UNL     1       4.254 -30.824   7.933  1.00  0.00    -0.166 F
HETATM   11  F2  UNL     1       2.895 -30.329   9.655  1.00  0.00    -0.166 F
HETATM   12  F3  UNL     1       4.499 -28.891   9.067  1.00  0.00    -0.166 F
ENDBRANCH   8   9
BRANCH   6  13
HETATM   13  C6  UNL     1      -1.065 -28.426   7.420  1.00  0.00     0.116 A
HETATM   14  N2  UNL     1      -1.955 -27.511   7.022  1.00  0.00    -0.342 N
HETATM   15  C7  UNL     1      -3.180 -27.821   7.510  1.00  0.00     0.058 A
ATOM     16  H2  UNL     1      -1.743 -26.702   6.439  1.00  0.00     0.167 HD
HETATM   17  C15 UNL     1      -3.043 -28.973   8.238  1.00  0.00     0.045 A
HETATM   18  N5  UNL     1      -1.742 -29.316   8.165  1.00  0.00    -0.343 N
ATOM     19  H5  UNL     1      -1.330 -30.135   8.611  1.00  0.00     0.167 HD
BRANCH  15  20
HETATM   20  C8  UNL     1      -4.414 -27.021   7.315  1.00  0.00     0.234 C
BRANCH  20  21
HETATM   21  O1  UNL     1      -4.398 -25.784   7.974  1.00  0.00    -0.343 OA
BRANCH  21  22
HETATM   22  C9  UNL     1      -5.583 -25.126   8.262  1.00  0.00     0.092 A
HETATM   23  C10 UNL     1      -6.697 -25.534   8.971  1.00  0.00     0.125 A
HETATM   24  N3  UNL     1      -7.599 -24.529   8.979  1.00  0.00    -0.366 N
HETATM   25  C11 UNL     1      -7.148 -23.477   8.316  1.00  0.00     0.013 A
ATOM     26  H3  UNL     1      -8.510 -24.575   9.437  1.00  0.00     0.165 HD
HETATM   27  C12 UNL     1      -7.843 -22.161   8.092  1.00  0.00     0.068 C
HETATM   28  C13 UNL     1      -5.897 -23.814   7.855  1.00  0.00    -0.005 A
HETATM   29  C14 UNL     1      -4.970 -22.977   7.054  1.00  0.00     0.053 C
ENDBRANCH  21  22
ENDBRANCH  20  21
ENDBRANCH  15  20
BRANCH  17  30
HETATM   30  C16 UNL     1      -4.141 -29.683   8.955  1.00  0.00     0.076 C
HETATM   31  C17 UNL     1      -4.855 -30.641   8.019  1.00  0.00     0.021 C
HETATM   32  C18 UNL     1      -6.190 -31.065   8.584  1.00  0.00     0.046 C
HETATM   33  C19 UNL     1      -7.007 -29.789   8.616  1.00  0.00     0.062 C
HETATM   34  N4  UNL     1      -6.439 -28.878   9.516  1.00  0.00    -0.377 N
HETATM   35  C20 UNL     1      -7.167 -28.674  10.745  1.00  0.00     0.154 C
HETATM   36  C21 UNL     1      -5.054 -28.757   9.662  1.00  0.00     0.073 C
ENDBRANCH  17  30
ENDBRANCH   6  13
TORSDOF 6
ENDMDL