MODEL 4
REMARK VINA RESULT: -8.481360597      3.254      5.440
REMARK  8 active torsions:
REMARK  status: ('A' for Active; 'I' for Inactive)
REMARK    1  A    between atoms: C2_2  and  C3_3
REMARK    2  A    between atoms: C2_2  and  N4_31
REMARK    3  A    between atoms: C3_3  and  C4_4
REMARK    4  A    between atoms: C6_6  and  C7_7
REMARK    5  A    between atoms: N2_13  and  C8_14
REMARK    6  A    between atoms: C12_18  and  C13_19
REMARK    7  A    between atoms: C19_25  and  N3_26
REMARK    8  A    between atoms: N4_31  and  C21_33
ROOT
HETATM    1  C4  UNL     1      -2.450 -27.364   6.761  1.00  0.00     0.038 A
HETATM    2  C5  UNL     1      -3.315 -28.033   5.938  1.00  0.00     0.063 A
HETATM    3  C6  UNL     1      -2.748 -29.256   5.624  1.00  0.00     0.134 A
HETATM    4  N1  UNL     1      -1.590 -29.288   6.222  1.00  0.00    -0.289 N
ATOM      5  H1  UNL     1      -0.924 -30.059   6.174  1.00  0.00     0.187 HD
HETATM    6  N2  UNL     1      -1.407 -28.134   6.922  1.00  0.00    -0.260 N
ENDROOT
BRANCH   6   7
HETATM    7  C8  UNL     1      -0.189 -28.096   7.689  1.00  0.00     0.057 A
HETATM    8  C9  UNL     1      -0.280 -27.645   8.977  1.00  0.00     0.031 A
HETATM    9  C10 UNL     1       0.755 -27.805   9.869  1.00  0.00     0.003 A
HETATM   10  C11 UNL     1       1.910 -28.442   9.421  1.00  0.00     0.007 A
HETATM   11  C12 UNL     1       2.042 -28.891   8.147  1.00  0.00    -0.050 A
HETATM   12  C20 UNL     1       0.985 -28.708   7.298  1.00  0.00     0.039 A
BRANCH  11  13
HETATM   13  C13 UNL     1       3.197 -29.702   7.657  1.00  0.00     0.049 C
HETATM   14  C14 UNL     1       3.990 -30.070   8.946  1.00  0.00     0.011 C
HETATM   15  C15 UNL     1       5.402 -30.490   8.634  1.00  0.00     0.001 C
HETATM   16  C16 UNL     1       5.616 -30.877   7.214  1.00  0.00     0.006 C
HETATM   17  C17 UNL     1       5.210 -29.783   6.260  1.00  0.00     0.013 C
HETATM   18  C18 UNL     1       6.398 -29.025   5.726  1.00  0.00     0.012 C
HETATM   19  C19 UNL     1       4.154 -28.877   6.820  1.00  0.00     0.195 C
BRANCH  19  20
HETATM   20  N3  UNL     1       4.790 -27.839   7.598  1.00  0.00    -0.074 N
ATOM     21  H33 UNL     1       4.830 -26.960   7.082  1.00  0.00     0.274 HD
ATOM     22  H32 UNL     1       4.198 -27.542   8.373  1.00  0.00     0.274 HD
ATOM     23  H31 UNL     1       5.715 -28.122   7.922  1.00  0.00     0.274 HD
ENDBRANCH  19  20
ENDBRANCH  11  13
ENDBRANCH   6   7
BRANCH   1  24
HETATM   24  C3  UNL     1      -2.635 -25.993   7.306  1.00  0.00     0.083 C
BRANCH  24  25
HETATM   25  C2  UNL     1      -4.187 -25.783   7.466  1.00  0.00     0.078 C
HETATM   26  C1  UNL     1      -4.532 -24.367   7.186  1.00  0.00     0.032 C
BRANCH  25  27
HETATM   27  N4  UNL     1      -4.570 -26.370   8.703  1.00  0.00    -0.413 N
ATOM     28  H4  UNL     1      -4.070 -26.157   9.566  1.00  0.00     0.154 HD
BRANCH  27  29
HETATM   29  C21 UNL     1      -5.659 -27.252   8.695  1.00  0.00     0.080 C
HETATM   30  C22 UNL     1      -5.323 -28.665   8.815  1.00  0.00     0.025 C
HETATM   31  C23 UNL     1      -6.471 -29.497   9.420  1.00  0.00     0.002 C
HETATM   32  C24 UNL     1      -7.031 -28.924  10.678  1.00  0.00     0.001 C
HETATM   33  C25 UNL     1      -6.416 -27.556  10.990  1.00  0.00     0.006 C
HETATM   34  C26 UNL     1      -6.642 -26.727   9.754  1.00  0.00     0.004 C
HETATM   35  C27 UNL     1      -6.381 -25.271  10.050  1.00  0.00     0.012 C
ENDBRANCH  27  29
ENDBRANCH  25  27
ENDBRANCH  24  25
ENDBRANCH   1  24
BRANCH   3  36
HETATM   36  C7  UNL     1      -3.397 -30.409   4.879  1.00  0.00     0.434 C
HETATM   37  F1  UNL     1      -4.396 -29.935   4.054  1.00  0.00    -0.165 F
HETATM   38  F2  UNL     1      -3.963 -31.267   5.888  1.00  0.00    -0.165 F
HETATM   39  F3  UNL     1      -2.402 -31.122   4.265  1.00  0.00    -0.165 F
ENDBRANCH   3  36
TORSDOF 8
ENDMDL