MODEL 5
REMARK VINA RESULT: -9.374499778      3.063      5.062
REMARK  7 active torsions:
REMARK  status: ('A' for Active; 'I' for Inactive)
REMARK       I    between atoms: C1_4  and  N3_6
REMARK    1  A    between atoms: N3_6  and  C2_8
REMARK    2  A    between atoms: C3_11  and  C4_12
REMARK    3  A    between atoms: C7_15  and  O1_16
REMARK    4  A    between atoms: O1_16  and  C8_17
REMARK    5  A    between atoms: C8_17  and  C9_18
REMARK    6  A    between atoms: C15_24  and  C16_25
REMARK    7  A    between atoms: C20_29  and  C21_30
ROOT
HETATM    1  C4  UNL     1      -4.365 -30.180   7.393  1.00  0.00    -0.008 A
HETATM    2  C5  UNL     1      -4.333 -30.552   6.065  1.00  0.00     0.016 A
HETATM    3  C6  UNL     1      -3.247 -30.233   5.295  1.00  0.00     0.038 A
HETATM    4  C7  UNL     1      -2.189 -29.537   5.858  1.00  0.00     0.075 A
HETATM    5  C15 UNL     1      -2.204 -29.156   7.192  1.00  0.00    -0.020 A
HETATM    6  C23 UNL     1      -3.314 -29.496   7.932  1.00  0.00     0.024 A
ENDROOT
BRANCH   1   7
HETATM    7  C3  UNL     1      -5.556 -30.548   8.187  1.00  0.00     0.060 A
HETATM    8  N4  UNL     1      -6.104 -29.638   9.020  1.00  0.00    -0.191 N
HETATM    9  C2  UNL     1      -7.180 -29.856   9.785  1.00  0.00     0.684 A
ATOM     10  H4  UNL     1      -5.667 -28.718   9.070  1.00  0.00     0.184 HD
HETATM   11  N5  UNL     1      -7.775 -31.043   9.746  1.00  0.00    -0.202 N
HETATM   12  C25 UNL     1      -7.279 -31.995   8.937  1.00  0.00     0.108 A
ATOM     13  H5  UNL     1      -8.596 -31.230  10.322  1.00  0.00     0.183 HD
HETATM   14  C24 UNL     1      -6.154 -31.767   8.136  1.00  0.00     0.048 A
BRANCH   9  15
HETATM   15  N3  UNL     1      -7.599 -28.883  10.543  1.00  0.00    -0.164 N
HETATM   16  C1  UNL     1      -7.097 -27.577  10.467  1.00  0.00     0.200 C
HETATM   17  N1  UNL     1      -6.346 -27.135  11.415  1.00  0.00    -0.373 N
HETATM   18  N2  UNL     1      -7.420 -26.769   9.355  1.00  0.00    -0.063 NA
ATOM     19  H12 UNL     1      -5.981 -26.183  11.360  1.00  0.00     0.158 HD
ATOM     20  H11 UNL     1      -6.113 -27.718  12.218  1.00  0.00     0.158 HD
ATOM     21  H3  UNL     1      -8.329 -29.082  11.227  1.00  0.00     0.187 HD
ENDBRANCH   9  15
ENDBRANCH   1   7
BRANCH   5  22
HETATM   22  C16 UNL     1      -1.035 -28.413   7.724  1.00  0.00     0.022 C
HETATM   23  C17 UNL     1      -0.717 -28.973   9.095  1.00  0.00     0.009 C
HETATM   24  C18 UNL     1       0.554 -28.302   9.574  1.00  0.00     0.001 C
HETATM   25  C19 UNL     1       0.277 -26.831   9.754  1.00  0.00     0.010 C
HETATM   26  C20 UNL     1      -1.066 -26.426   9.206  1.00  0.00     0.051 C
HETATM   27  C22 UNL     1      -1.295 -26.932   7.810  1.00  0.00     0.019 C
BRANCH  26  28
HETATM   28  C21 UNL     1      -1.078 -24.891   9.213  1.00  0.00     0.357 C
HETATM   29  F1  UNL     1      -1.783 -24.477   8.083  1.00  0.00    -0.214 F
HETATM   30  F2  UNL     1       0.235 -24.466   8.998  1.00  0.00    -0.214 F
ENDBRANCH  26  28
ENDBRANCH   5  22
BRANCH   4  31
HETATM   31  O1  UNL     1      -1.079 -29.202   5.099  1.00  0.00    -0.350 OA
BRANCH  31  32
HETATM   32  C8  UNL     1      -0.056 -30.166   4.951  1.00  0.00     0.180 C
BRANCH  32  33
HETATM   33  C9  UNL     1       1.316 -29.569   5.153  1.00  0.00     0.010 C
HETATM   34  C10 UNL     1       1.251 -28.060   5.023  1.00  0.00     0.007 C
HETATM   35  C11 UNL     1       2.093 -27.372   6.058  1.00  0.00     0.000 C
HETATM   36  C12 UNL     1       3.393 -28.094   6.323  1.00  0.00     0.000 C
HETATM   37  C13 UNL     1       3.162 -29.487   6.841  1.00  0.00     0.000 C
HETATM   38  C14 UNL     1       1.720 -29.877   6.585  1.00  0.00     0.007 C
ENDBRANCH  32  33
ENDBRANCH  31  32
ENDBRANCH   4  31
TORSDOF 7
ENDMDL