MODEL 2
REMARK VINA RESULT: -9.582489498      1.262      1.837
REMARK  9 active torsions:
REMARK  status: ('A' for Active; 'I' for Inactive)
REMARK    1  A    between atoms: C1_2  and  C2_3
REMARK    2  A    between atoms: C1_2  and  C14_29
REMARK    3  A    between atoms: C2_3  and  N1_4
REMARK    4  A    between atoms: N1_4  and  N2_6
REMARK    5  A    between atoms: N4_10  and  O2_12
REMARK    6  A    between atoms: C6_18  and  N6_19
REMARK    7  A    between atoms: N6_19  and  C7_22
REMARK    8  A    between atoms: C14_29  and  O3_30
REMARK    9  A    between atoms: O3_30  and  C15_31
ROOT
HETATM    1  N2  UNL     1      20.874  -7.530 -28.756  1.00  0.00    -0.185 N
HETATM    2  N3  UNL     1      21.915  -8.481 -28.824  1.00  0.00    -0.267 N
ATOM      3  H3  UNL     1      22.832  -8.077 -28.632  1.00  0.00     0.190 HD
HETATM    4  C3  UNL     1      21.976  -9.858 -29.095  1.00  0.00     0.121 C
HETATM    5  N4  UNL     1      22.893 -10.525 -28.544  1.00  0.00    -0.255 N
ATOM      6  H4  UNL     1      23.550 -10.044 -27.929  1.00  0.00     0.195 HD
HETATM    7  C4  UNL     1      21.014 -10.625 -29.924  1.00  0.00     0.124 C
HETATM    8  C5  UNL     1      19.673 -10.284 -29.255  1.00  0.00     0.067 C
HETATM    9  N5  UNL     1      19.218  -9.111 -29.130  1.00  0.00    -0.357 N
ATOM     10  H5  UNL     1      18.314  -9.062 -28.661  1.00  0.00     0.162 HD
HETATM   11  C6  UNL     1      19.750  -7.818 -29.533  1.00  0.00     0.426 C
ENDROOT
BRANCH   1  12
HETATM   12  N1  UNL     1      21.486  -6.363 -28.728  1.00  0.00    -0.309 N
ATOM     13  H1  UNL     1      21.005  -5.545 -28.356  1.00  0.00     0.182 HD
BRANCH  12  14
HETATM   14  C2  UNL     1      22.858  -6.241 -29.231  1.00  0.00     0.221 C
BRANCH  14  15
HETATM   15  C1  UNL     1      22.928  -4.782 -29.643  1.00  0.00     0.169 C
HETATM   16  O1  UNL     1      22.400  -4.426 -30.719  1.00  0.00    -0.294 OA
BRANCH  15  17
HETATM   17  C14 UNL     1      23.605  -3.736 -28.885  1.00  0.00     0.248 C
BRANCH  17  18
HETATM   18  O3  UNL     1      22.959  -3.828 -27.611  1.00  0.00    -0.378 OA
BRANCH  18  19
HETATM   19  C15 UNL     1      23.876  -3.768 -26.562  1.00  0.00     0.125 C
HETATM   20  C16 UNL     1      23.404  -4.908 -25.626  1.00  0.00     0.059 C
HETATM   21  C17 UNL     1      22.895  -4.480 -24.329  1.00  0.00     0.235 C
HETATM   22  N7  UNL     1      23.553  -3.303 -23.794  1.00  0.00    -0.075 N
HETATM   23  C18 UNL     1      23.186  -2.216 -24.695  1.00  0.00     0.235 C
ATOM     24  H72 UNL     1      23.333  -3.119 -22.816  1.00  0.00     0.277 HD
ATOM     25  H71 UNL     1      24.559  -3.414 -23.671  1.00  0.00     0.277 HD
HETATM   26  C19 UNL     1      23.965  -2.447 -25.977  1.00  0.00     0.059 C
ENDBRANCH  18  19
ENDBRANCH  17  18
ENDBRANCH  15  17
ENDBRANCH  14  15
ENDBRANCH  12  14
ENDBRANCH   1  12
BRANCH  11  27
HETATM   27  N6  UNL     1      18.669  -6.850 -29.338  1.00  0.00    -0.029 N
ATOM     28  H62 UNL     1      17.899  -7.201 -28.769  1.00  0.00     0.282 HD
ATOM     29  H61 UNL     1      18.920  -6.070 -28.730  1.00  0.00     0.282 HD
BRANCH  27  30
HETATM   30  C7  UNL     1      18.275  -6.449 -30.666  1.00  0.00     0.190 C
HETATM   31  C8  UNL     1      18.951  -5.129 -30.931  1.00  0.00     0.033 C
HETATM   32  C9  UNL     1      19.154  -4.835 -32.368  1.00  0.00     0.002 C
HETATM   33  C10 UNL     1      18.510  -5.810 -33.311  1.00  0.00     0.000 C
HETATM   34  C11 UNL     1      17.017  -5.772 -33.274  1.00  0.00     0.000 C
HETATM   35  C12 UNL     1      16.427  -5.400 -31.956  1.00  0.00     0.002 C
HETATM   36  C13 UNL     1      16.810  -6.468 -30.942  1.00  0.00     0.033 C
ENDBRANCH  27  30
ENDBRANCH  11  27
BRANCH   5  37
HETATM   37  O2  UNL     1      23.037 -11.857 -28.739  1.00  0.00    -0.288 OA
ATOM     38  H2  UNL     1      23.805 -12.333 -28.447  1.00  0.00     0.244 HD
ENDBRANCH   5  37
TORSDOF 9
ENDMDL