MODEL 3
REMARK VINA RESULT: -8.747589083      1.197      1.638
REMARK  11 active torsions:
REMARK  status: ('A' for Active; 'I' for Inactive)
REMARK    1  A    between atoms: C3_6  and  N3_7
REMARK    2  A    between atoms: C4_11  and  C5_12
REMARK    3  A    between atoms: C5_12  and  C6_14
REMARK    4  A    between atoms: C6_14  and  C7_15
REMARK    5  A    between atoms: C6_14  and  O2_21
REMARK    6  A    between atoms: C7_15  and  C8_16
REMARK    7  A    between atoms: O2_21  and  C13_22
REMARK       I    between atoms: C13_22  and  N4_24
REMARK    8  A    between atoms: N4_24  and  C14_26
REMARK    9  A    between atoms: C14_26  and  C15_27
REMARK   10  A    between atoms: C14_26  and  C16_30
REMARK   11  A    between atoms: C15_27  and  O4_28
ROOT
HETATM    1  N1  UNL     1      16.374  -8.762 -29.850  1.00  0.00    -0.190 NA
HETATM    2  C1  UNL     1      17.521  -8.740 -29.604  1.00  0.00     0.119 C
HETATM    3  C2  UNL     1      18.963  -8.697 -29.269  1.00  0.00     0.137 A
HETATM    4  N2  UNL     1      19.573  -9.801 -28.884  1.00  0.00    -0.327 N
ATOM      5  H2  UNL     1      19.057 -10.676 -28.791  1.00  0.00     0.168 HD
HETATM    6  C3  UNL     1      20.876  -9.751 -28.618  1.00  0.00     0.144 A
HETATM    7  S1  UNL     1      21.262  -8.124 -28.912  1.00  0.00    -0.048 SA
HETATM    8  C4  UNL     1      19.686  -7.556 -29.378  1.00  0.00     0.094 A
ENDROOT
BRANCH   8   9
HETATM    9  C5  UNL     1      19.382  -6.173 -29.728  1.00  0.00     0.198 C
HETATM   10  O1  UNL     1      18.718  -5.512 -28.840  1.00  0.00    -0.289 OA
BRANCH   9  11
HETATM   11  C6  UNL     1      19.721  -5.430 -30.928  1.00  0.00     0.209 C
BRANCH  11  12
HETATM   12  C7  UNL     1      18.566  -4.992 -31.762  1.00  0.00     0.045 C
BRANCH  12  13
HETATM   13  C8  UNL     1      17.789  -5.997 -32.514  1.00  0.00    -0.012 C
HETATM   14  C9  UNL     1      17.523  -5.791 -33.949  1.00  0.00     0.005 C
HETATM   15  C10 UNL     1      16.075  -6.190 -34.221  1.00  0.00     0.000 C
HETATM   16  C11 UNL     1      15.492  -6.637 -32.907  1.00  0.00     0.000 C
HETATM   17  C12 UNL     1      16.378  -5.977 -31.880  1.00  0.00     0.005 C
ENDBRANCH  12  13
ENDBRANCH  11  12
BRANCH  11  18
HETATM   18  O2  UNL     1      20.394  -4.190 -30.466  1.00  0.00    -0.291 OA
BRANCH  18  19
HETATM   19  C13 UNL     1      21.741  -4.218 -30.152  1.00  0.00     0.362 C
HETATM   20  O3  UNL     1      22.534  -3.921 -31.105  1.00  0.00    -0.238 OA
HETATM   21  N4  UNL     1      22.240  -4.548 -28.870  1.00  0.00    -0.320 N
ATOM     22  H4  UNL     1      21.565  -4.777 -28.141  1.00  0.00     0.165 HD
BRANCH  21  23
HETATM   23  C14 UNL     1      23.639  -4.582 -28.527  1.00  0.00     0.211 C
BRANCH  23  24
HETATM   24  C15 UNL     1      23.969  -3.295 -27.796  1.00  0.00     0.200 C
BRANCH  24  25
HETATM   25  O4  UNL     1      25.145  -3.488 -27.053  1.00  0.00    -0.398 OA
ATOM     26  H4  UNL     1      25.274  -2.737 -26.486  1.00  0.00     0.209 HD
ENDBRANCH  24  25
ENDBRANCH  23  24
BRANCH  23  27
HETATM   27  C16 UNL     1      24.022  -5.717 -27.700  1.00  0.00     0.199 C
HETATM   28  O5  UNL     1      24.980  -6.452 -28.022  1.00  0.00    -0.646 OA
HETATM   29  O6  UNL     1      23.329  -5.998 -26.543  1.00  0.00    -0.646 OA
ENDBRANCH  23  27
ENDBRANCH  21  23
ENDBRANCH  18  19
ENDBRANCH  11  18
ENDBRANCH   9  11
ENDBRANCH   8   9
BRANCH   6  30
HETATM   30  N3  UNL     1      21.685 -10.699 -28.227  1.00  0.00    -0.380 N
ATOM     31  H32 UNL     1      21.818 -11.615 -28.657  1.00  0.00     0.158 HD
ATOM     32  H31 UNL     1      22.330 -10.721 -27.436  1.00  0.00     0.158 HD
ENDBRANCH   6  30
TORSDOF 11
ENDMDL