MODEL 5
REMARK VINA RESULT: -8.194947775      0.813      1.294
REMARK  11 active torsions:
REMARK  status: ('A' for Active; 'I' for Inactive)
REMARK    1  A    between atoms: O1_2  and  C2_3
REMARK    2  A    between atoms: C2_3  and  C3_5
REMARK    3  A    between atoms: C3_5  and  N1_6
REMARK    4  A    between atoms: C3_5  and  C15_27
REMARK    5  A    between atoms: N1_6  and  C4_9
REMARK    6  A    between atoms: C4_9  and  C5_10
REMARK    7  A    between atoms: C4_9  and  C8_17
REMARK    8  A    between atoms: C5_10  and  C6_11
REMARK    9  A    between atoms: N2_13  and  O3_15
REMARK       I    between atoms: C8_17  and  N3_19
REMARK   10  A    between atoms: N3_19  and  C9_21
REMARK   11  A    between atoms: C16_30  and  N5_31
ROOT
HETATM    1  N1  UNL     1      21.891  -6.718 -27.292  1.00  0.00    -0.042 N
ATOM      2  H11 UNL     1      21.215  -5.962 -27.399  1.00  0.00     0.279 HD
ATOM      3  H12 UNL     1      21.542  -7.115 -26.419  1.00  0.00     0.279 HD
ENDROOT
BRANCH   1   4
HETATM    4  C3  UNL     1      23.221  -6.220 -27.150  1.00  0.00     0.353 C
BRANCH   4   5
HETATM    5  C2  UNL     1      23.811  -5.810 -28.408  1.00  0.00     0.297 C
HETATM    6  O2  UNL     1      25.074  -6.001 -28.532  1.00  0.00    -0.262 OA
BRANCH   5   7
HETATM    7  O1  UNL     1      23.180  -5.237 -29.502  1.00  0.00    -0.325 OA
HETATM    8  C1  UNL     1      23.446  -3.858 -29.810  1.00  0.00     0.213 C
ENDBRANCH   5   7
ENDBRANCH   4   5
BRANCH   4   9
HETATM    9  C15 UNL     1      23.242  -5.193 -26.072  1.00  0.00     0.131 A
HETATM   10  N4  UNL     1      23.505  -3.940 -26.351  1.00  0.00    -0.323 N
HETATM   11  C16 UNL     1      23.537  -3.054 -25.382  1.00  0.00     0.160 A
ATOM     12  H4  UNL     1      23.685  -3.655 -27.314  1.00  0.00     0.169 HD
HETATM   13  S1  UNL     1      23.178  -4.003 -24.012  1.00  0.00     0.024 SA
HETATM   14  N6  UNL     1      23.008  -5.489 -24.780  1.00  0.00    -0.311 N
ATOM     15  H6  UNL     1      22.783  -6.394 -24.367  1.00  0.00     0.175 HD
BRANCH  11  16
HETATM   16  N5  UNL     1      23.776  -1.765 -25.492  1.00  0.00    -0.379 N
ATOM     17  H52 UNL     1      24.322  -1.247 -26.181  1.00  0.00     0.158 HD
ATOM     18  H51 UNL     1      23.450  -1.023 -24.871  1.00  0.00     0.158 HD
ENDBRANCH  11  16
ENDBRANCH   4   9
ENDBRANCH   1   4
BRANCH   1  19
HETATM   19  C4  UNL     1      21.805  -7.689 -28.405  1.00  0.00     0.284 C
BRANCH  19  20
HETATM   20  C5  UNL     1      21.739  -9.033 -27.792  1.00  0.00     0.097 C
BRANCH  20  21
HETATM   21  C6  UNL     1      22.728 -10.047 -28.198  1.00  0.00     0.008 C
HETATM   22  C7  UNL     1      24.183  -9.598 -28.362  1.00  0.00     0.065 C
HETATM   23  N2  UNL     1      22.462 -11.253 -28.398  1.00  0.00    -0.278 N
ATOM     24  H2  UNL     1      21.500 -11.571 -28.277  1.00  0.00     0.193 HD
BRANCH  23  25
HETATM   25  O3  UNL     1      23.427 -12.174 -28.781  1.00  0.00    -0.290 OA
ATOM     26  H3  UNL     1      23.361 -13.098 -28.570  1.00  0.00     0.244 HD
ENDBRANCH  23  25
ENDBRANCH  20  21
ENDBRANCH  19  20
BRANCH  19  27
HETATM   27  C8  UNL     1      20.652  -7.200 -29.197  1.00  0.00     0.253 C
HETATM   28  O4  UNL     1      20.062  -8.055 -29.883  1.00  0.00    -0.271 OA
HETATM   29  N3  UNL     1      20.239  -5.865 -29.216  1.00  0.00    -0.333 N
ATOM     30  H3  UNL     1      20.799  -5.254 -28.622  1.00  0.00     0.168 HD
BRANCH  29  31
HETATM   31  C9  UNL     1      19.202  -5.203 -29.893  1.00  0.00    -0.011 C
HETATM   32  C10 UNL     1      19.451  -5.050 -31.345  1.00  0.00     0.052 C
HETATM   33  C11 UNL     1      18.658  -5.911 -32.300  1.00  0.00     0.006 C
HETATM   34  C12 UNL     1      17.195  -5.769 -31.943  1.00  0.00     0.001 C
HETATM   35  C13 UNL     1      17.086  -6.454 -30.559  1.00  0.00     0.006 C
HETATM   36  C14 UNL     1      17.785  -5.601 -29.568  1.00  0.00     0.052 C
ENDBRANCH  29  31
ENDBRANCH  19  27
ENDBRANCH   1  19
TORSDOF 11
ENDMDL