MODEL 3
REMARK VINA RESULT: -7.326375613      1.844      2.351
REMARK  10 active torsions:
REMARK  status: ('A' for Active; 'I' for Inactive)
REMARK    1  A    between atoms: S1_2  and  C2_3
REMARK    2  A    between atoms: C2_3  and  N1_4
REMARK    3  A    between atoms: N1_4  and  C3_7
REMARK    4  A    between atoms: C3_7  and  C4_8
REMARK    5  A    between atoms: C3_7  and  C6_11
REMARK    6  A    between atoms: C6_11  and  C7_13
REMARK    7  A    between atoms: C7_13  and  N2_15
REMARK       I    between atoms: N2_15  and  C8_17
REMARK       I    between atoms: C8_17  and  N3_19
REMARK    8  A    between atoms: N3_19  and  C9_21
REMARK    9  A    between atoms: C12_24  and  N4_25
REMARK   10  A    between atoms: C14_29  and  O6_30
ROOT
HETATM    1  N2  UNL     1      17.670  -4.153 -31.500  1.00  0.00    -0.322 N
ATOM      2  H2  UNL     1      17.039  -4.069 -30.704  1.00  0.00     0.165 HD
HETATM    3  C8  UNL     1      19.001  -4.740 -31.346  1.00  0.00     0.322 C
HETATM    4  O3  UNL     1      19.730  -4.828 -32.350  1.00  0.00    -0.247 OA
HETATM    5  N3  UNL     1      19.303  -5.146 -30.040  1.00  0.00    -0.306 N
ATOM      6  H3  UNL     1      18.587  -4.999 -29.329  1.00  0.00     0.171 HD
ENDROOT
BRANCH   1   7
HETATM    7  C7  UNL     1      17.282  -3.702 -32.797  1.00  0.00     0.231 C
HETATM    8  S2  UNL     1      17.111  -1.915 -32.865  1.00  0.00    -0.061 SA
BRANCH   7   9
HETATM    9  C6  UNL     1      16.115  -4.475 -33.287  1.00  0.00     0.198 C
HETATM   10  O2  UNL     1      14.994  -3.980 -33.189  1.00  0.00    -0.292 OA
BRANCH   9  11
HETATM   11  C3  UNL     1      16.331  -5.826 -33.874  1.00  0.00     0.327 C
BRANCH  11  12
HETATM   12  N1  UNL     1      17.660  -5.978 -34.407  1.00  0.00    -0.049 N
ATOM     13  H12 UNL     1      18.126  -6.789 -33.999  1.00  0.00     0.279 HD
ATOM     14  H11 UNL     1      18.278  -5.242 -34.065  1.00  0.00     0.279 HD
BRANCH  12  15
HETATM   15  C2  UNL     1      17.678  -6.040 -35.814  1.00  0.00     0.307 C
BRANCH  15  16
HETATM   16  S1  UNL     1      18.252  -4.461 -36.556  1.00  0.00    -0.146 SA
HETATM   17  C1  UNL     1      16.826  -3.377 -36.725  1.00  0.00     0.091 C
ENDBRANCH  15  16
ENDBRANCH  12  15
ENDBRANCH  11  12
BRANCH  11  18
HETATM   18  C4  UNL     1      15.913  -6.857 -32.915  1.00  0.00     0.161 C
HETATM   19  C5  UNL     1      15.188  -8.090 -33.374  1.00  0.00     0.093 C
HETATM   20  O1  UNL     1      16.116  -6.776 -31.734  1.00  0.00    -0.296 OA
ENDBRANCH  11  18
ENDBRANCH   9  11
ENDBRANCH   7   9
ENDBRANCH   1   7
BRANCH   5  21
HETATM   21  C9  UNL     1      20.502  -5.736 -29.626  1.00  0.00     0.069 A
HETATM   22  C10 UNL     1      20.568  -7.036 -29.216  1.00  0.00     0.035 A
HETATM   23  C11 UNL     1      21.801  -7.580 -28.792  1.00  0.00     0.038 A
HETATM   24  C12 UNL     1      22.943  -6.816 -28.788  1.00  0.00     0.105 A
HETATM   25  C13 UNL     1      22.901  -5.508 -29.196  1.00  0.00     0.075 A
HETATM   26  C14 UNL     1      21.675  -4.985 -29.611  1.00  0.00     0.094 A
BRANCH  24  27
HETATM   27  N4  UNL     1      24.196  -7.351 -28.368  1.00  0.00    -0.116 N
HETATM   28  O4  UNL     1      25.142  -6.587 -28.162  1.00  0.00    -0.532 OA
HETATM   29  O5  UNL     1      24.387  -8.698 -28.187  1.00  0.00    -0.532 OA
ENDBRANCH  24  27
BRANCH  26  30
HETATM   30  O6  UNL     1      21.670  -3.683 -30.011  1.00  0.00    -0.358 OA
ATOM     31  H6  UNL     1      22.405  -3.114 -29.815  1.00  0.00     0.217 HD
ENDBRANCH  26  30
ENDBRANCH   5  21
TORSDOF 10
ENDMDL