MODEL 2
REMARK VINA RESULT: -7.765754180      3.241      5.426
REMARK  12 active torsions:
REMARK  status: ('A' for Active; 'I' for Inactive)
REMARK    1  A    between atoms: C3_4  and  C4_5
REMARK    2  A    between atoms: C4_5  and  C5_6
REMARK    3  A    between atoms: C5_6  and  C6_7
REMARK    4  A    between atoms: C6_7  and  O2_8
REMARK    5  A    between atoms: O2_8  and  C7_9
REMARK    6  A    between atoms: C8_13  and  O3_14
REMARK    7  A    between atoms: C9_16  and  C10_17
REMARK    8  A    between atoms: C10_17  and  O4_18
REMARK    9  A    between atoms: O4_18  and  C11_19
REMARK   10  A    between atoms: C17_26  and  O6_27
REMARK   11  A    between atoms: C18_29  and  O7_30
REMARK   12  A    between atoms: C19_32  and  O8_33
ROOT
HETATM    1  C7  UNL     1      20.334  -4.499 -30.051  1.00  0.00     0.472 C
HETATM    2  N1  UNL     1      21.289  -4.189 -31.104  1.00  0.00     0.004 N
ATOM      3  H11 UNL     1      20.963  -3.536 -31.816  1.00  0.00     0.286 HD
ATOM      4  H12 UNL     1      21.481  -4.945 -31.761  1.00  0.00     0.286 HD
HETATM    5  C8  UNL     1      22.435  -3.736 -30.303  1.00  0.00     0.355 C
HETATM    6  C9  UNL     1      22.364  -4.660 -29.119  1.00  0.00     0.206 C
HETATM    7  O5  UNL     1      21.056  -5.135 -29.045  1.00  0.00    -0.327 OA
ENDROOT
BRANCH   1   8
HETATM    8  O2  UNL     1      19.355  -5.292 -30.599  1.00  0.00    -0.339 OA
BRANCH   8   9
HETATM    9  C6  UNL     1      18.663  -5.890 -29.493  1.00  0.00     0.172 C
BRANCH   9  10
HETATM   10  C5  UNL     1      17.235  -5.899 -29.841  1.00  0.00     0.029 C
BRANCH  10  11
HETATM   11  C4  UNL     1      16.836  -5.961 -31.261  1.00  0.00     0.036 C
BRANCH  11  12
HETATM   12  C3  UNL     1      16.174  -4.859 -31.962  1.00  0.00     0.153 C
HETATM   13  O1  UNL     1      16.117  -5.228 -33.326  1.00  0.00    -0.376 OA
HETATM   14  C2  UNL     1      17.151  -4.871 -34.101  1.00  0.00     0.149 C
HETATM   15  C1  UNL     1      16.594  -4.408 -35.458  1.00  0.00     0.042 C
HETATM   16  C19 UNL     1      18.175  -3.934 -33.618  1.00  0.00     0.178 C
HETATM   17  C18 UNL     1      17.875  -3.133 -32.400  1.00  0.00     0.180 C
HETATM   18  C17 UNL     1      16.539  -3.453 -31.799  1.00  0.00     0.178 C
BRANCH  16  19
HETATM   19  O8  UNL     1      19.429  -4.569 -33.439  1.00  0.00    -0.390 OA
ATOM     20  H8  UNL     1      19.565  -4.834 -32.537  1.00  0.00     0.210 HD
ENDBRANCH  16  19
BRANCH  17  21
HETATM   21  O7  UNL     1      17.830  -1.747 -32.706  1.00  0.00    -0.390 OA
ATOM     22  H7  UNL     1      17.214  -1.666 -33.425  1.00  0.00     0.210 HD
ENDBRANCH  17  21
BRANCH  18  23
HETATM   23  O6  UNL     1      15.527  -2.702 -32.487  1.00  0.00    -0.390 OA
ATOM     24  H6  UNL     1      15.946  -2.352 -33.265  1.00  0.00     0.210 HD
ENDBRANCH  18  23
ENDBRANCH  11  12
ENDBRANCH  10  11
ENDBRANCH   9  10
ENDBRANCH   8   9
ENDBRANCH   1   8
BRANCH   5  25
HETATM   25  O3  UNL     1      23.562  -3.936 -31.075  1.00  0.00    -0.368 OA
ATOM     26  H3  UNL     1      24.252  -4.215 -30.484  1.00  0.00     0.212 HD
ENDBRANCH   5  25
BRANCH   6  27
HETATM   27  C10 UNL     1      23.243  -5.874 -29.386  1.00  0.00     0.204 C
BRANCH  27  28
HETATM   28  O4  UNL     1      23.201  -6.714 -28.296  1.00  0.00    -0.383 OA
BRANCH  28  29
HETATM   29  C11 UNL     1      22.943  -8.001 -28.723  1.00  0.00     0.121 C
HETATM   30  C12 UNL     1      23.719  -8.980 -27.860  1.00  0.00     0.032 C
HETATM   31  C13 UNL     1      23.468 -10.383 -28.359  1.00  0.00     0.002 C
HETATM   32  C14 UNL     1      21.982 -10.713 -28.322  1.00  0.00     0.000 C
HETATM   33  C15 UNL     1      21.288  -9.714 -29.254  1.00  0.00     0.002 C
HETATM   34  C16 UNL     1      21.468  -8.351 -28.626  1.00  0.00     0.032 C
ENDBRANCH  28  29
ENDBRANCH  27  28
ENDBRANCH   6  27
TORSDOF 12
ENDMDL