MODEL 2
REMARK VINA RESULT: -7.802492222      2.073      3.062
REMARK  13 active torsions:
REMARK  status: ('A' for Active; 'I' for Inactive)
REMARK    1  A    between atoms: O1_2  and  C2_3
REMARK    2  A    between atoms: C2_3  and  C3_4
REMARK    3  A    between atoms: C4_5  and  O2_6
REMARK    4  A    between atoms: O2_6  and  C5_7
REMARK    5  A    between atoms: C5_7  and  C6_8
REMARK    6  A    between atoms: C6_8  and  C7_9
REMARK    7  A    between atoms: C7_9  and  C8_10
REMARK    8  A    between atoms: C11_13  and  N1_15
REMARK    9  A    between atoms: C16_24  and  C17_25
REMARK   10  A    between atoms: C17_25  and  O5_27
REMARK   11  A    between atoms: C19_29  and  O6_30
REMARK   12  A    between atoms: C19_29  and  N2_32
REMARK   13  A    between atoms: N2_32  and  N3_34
ROOT
HETATM    1  C8  UNL     1      16.918  -5.384 -31.073  1.00  0.00     0.006 C
HETATM    2  C9  UNL     1      17.359  -6.053 -32.305  1.00  0.00     0.024 C
HETATM    3  C10 UNL     1      18.715  -6.073 -32.796  1.00  0.00     0.075 C
HETATM    4  C11 UNL     1      18.598  -5.633 -34.263  1.00  0.00     0.221 C
HETATM    5  C12 UNL     1      18.542  -6.816 -35.202  1.00  0.00     0.078 C
HETATM    6  O3  UNL     1      17.411  -4.887 -34.310  1.00  0.00    -0.348 OA
HETATM    7  C13 UNL     1      16.538  -5.615 -33.500  1.00  0.00     0.136 C
HETATM    8  C14 UNL     1      15.360  -4.767 -33.161  1.00  0.00     0.111 C
HETATM    9  C15 UNL     1      15.811  -3.659 -32.307  1.00  0.00     0.136 C
HETATM   10  O4  UNL     1      15.580  -2.516 -32.625  1.00  0.00    -0.297 OA
HETATM   11  C16 UNL     1      16.563  -3.958 -31.038  1.00  0.00     0.088 C
ENDROOT
BRANCH   1  12
HETATM   12  C7  UNL     1      17.431  -5.980 -29.783  1.00  0.00     0.013 C
BRANCH  12  13
HETATM   13  C6  UNL     1      17.173  -7.430 -29.570  1.00  0.00     0.070 C
BRANCH  13  14
HETATM   14  C5  UNL     1      18.482  -8.026 -29.173  1.00  0.00     0.104 C
HETATM   15  C19 UNL     1      18.671  -9.328 -29.149  1.00  0.00     0.184 C
BRANCH  14  16
HETATM   16  O2  UNL     1      19.520  -7.192 -28.822  1.00  0.00    -0.323 OA
BRANCH  16  17
HETATM   17  C4  UNL     1      20.809  -7.447 -29.243  1.00  0.00     0.140 C
HETATM   18  C3  UNL     1      21.824  -7.038 -28.519  1.00  0.00     0.024 C
BRANCH  18  19
HETATM   19  C2  UNL     1      23.240  -7.297 -28.946  1.00  0.00     0.196 C
BRANCH  19  20
HETATM   20  O1  UNL     1      23.290  -8.633 -29.345  1.00  0.00    -0.392 OA
HETATM   21  C1  UNL     1      23.829  -9.418 -28.341  1.00  0.00     0.201 C
ENDBRANCH  19  20
ENDBRANCH  18  19
ENDBRANCH  16  17
ENDBRANCH  14  16
BRANCH  15  22
HETATM   22  O6  UNL     1      17.613 -10.189 -29.506  1.00  0.00    -0.343 OA
ATOM     23  H6  UNL     1      17.319 -10.848 -28.889  1.00  0.00     0.219 HD
ENDBRANCH  15  22
BRANCH  15  24
HETATM   24  N2  UNL     1      19.909  -9.908 -28.774  1.00  0.00    -0.285 N
ATOM     25  H2  UNL     1      20.502  -9.414 -28.107  1.00  0.00     0.188 HD
BRANCH  24  26
HETATM   26  N3  UNL     1      20.344 -11.128 -29.284  1.00  0.00    -0.343 N
ATOM     27  H32 UNL     1      20.191 -11.312 -30.276  1.00  0.00     0.176 HD
ATOM     28  H31 UNL     1      20.802 -11.830 -28.703  1.00  0.00     0.176 HD
ENDBRANCH  24  26
ENDBRANCH  15  24
ENDBRANCH  13  14
ENDBRANCH  12  13
ENDBRANCH   1  12
BRANCH  11  29
HETATM   29  C17 UNL     1      17.465  -2.874 -30.703  1.00  0.00     0.125 C
HETATM   30  C18 UNL     1      17.013  -1.827 -29.722  1.00  0.00     0.040 C
BRANCH  29  31
HETATM   31  O5  UNL     1      18.107  -2.229 -31.756  1.00  0.00    -0.395 OA
ATOM     32  H5  UNL     1      17.572  -1.701 -32.337  1.00  0.00     0.210 HD
ENDBRANCH  29  31
ENDBRANCH  11  29
BRANCH   4  33
HETATM   33  N1  UNL     1      19.673  -4.745 -34.645  1.00  0.00    -0.047 N
ATOM     34  H13 UNL     1      20.297  -4.557 -33.860  1.00  0.00     0.278 HD
ATOM     35  H12 UNL     1      20.334  -5.209 -35.267  1.00  0.00     0.278 HD
ATOM     36  H11 UNL     1      19.322  -3.879 -35.055  1.00  0.00     0.278 HD
ENDBRANCH   4  33
TORSDOF 13
ENDMDL