MODEL 3
REMARK VINA RESULT: -8.256667243      2.691      6.290
REMARK  14 active torsions:
REMARK  status: ('A' for Active; 'I' for Inactive)
REMARK    1  A    between atoms: C3_3  and  C5_5
REMARK    2  A    between atoms: C5_5  and  C6_6
REMARK    3  A    between atoms: C6_6  and  C7_7
REMARK    4  A    between atoms: C7_7  and  O2_9
REMARK    5  A    between atoms: O2_9  and  C8_10
REMARK    6  A    between atoms: C10_12  and  O3_13
REMARK    7  A    between atoms: C10_12  and  C11_15
REMARK    8  A    between atoms: C11_15  and  O5_17
REMARK    9  A    between atoms: O5_17  and  C12_18
REMARK   10  A    between atoms: C12_18  and  C13_19
REMARK   11  A    between atoms: C15_21  and  O6_22
REMARK   12  A    between atoms: C15_21  and  N1_24
REMARK   13  A    between atoms: N1_24  and  O7_26
REMARK   14  A    between atoms: C18_30  and  O8_31
ROOT
HETATM    1  C8  UNL     1      16.688  -6.112 -31.561  1.00  0.00     0.164 C
HETATM    2  C9  UNL     1      17.463  -6.829 -30.485  1.00  0.00     0.089 C
HETATM    3  C10 UNL     1      18.439  -5.966 -29.764  1.00  0.00     0.200 C
HETATM    4  C15 UNL     1      18.904  -4.753 -30.523  1.00  0.00     0.196 C
HETATM    5  C16 UNL     1      17.837  -3.959 -31.178  1.00  0.00     0.074 C
HETATM    6  C17 UNL     1      17.721  -2.579 -30.567  1.00  0.00     0.018 C
HETATM    7  C18 UNL     1      16.488  -4.645 -31.250  1.00  0.00     0.159 C
ENDROOT
BRANCH   1   8
HETATM    8  O2  UNL     1      15.535  -6.794 -31.906  1.00  0.00    -0.313 OA
BRANCH   8   9
HETATM    9  C7  UNL     1      15.368  -7.790 -32.834  1.00  0.00     0.259 C
HETATM   10  O1  UNL     1      14.896  -8.859 -32.362  1.00  0.00    -0.265 OA
BRANCH   9  11
HETATM   11  C6  UNL     1      15.688  -7.688 -34.257  1.00  0.00     0.115 C
BRANCH  11  12
HETATM   12  C5  UNL     1      15.022  -6.609 -35.025  1.00  0.00     0.043 C
BRANCH  12  13
HETATM   13  C3  UNL     1      15.574  -6.302 -36.350  1.00  0.00    -0.087 C
HETATM   14  C2  UNL     1      15.022  -5.318 -37.080  1.00  0.00    -0.029 C
HETATM   15  C1  UNL     1      13.878  -4.522 -36.549  1.00  0.00     0.036 C
HETATM   16  C4  UNL     1      16.709  -7.062 -36.926  1.00  0.00     0.043 C
ENDBRANCH  12  13
ENDBRANCH  11  12
ENDBRANCH   9  11
ENDBRANCH   8   9
ENDBRANCH   1   8
BRANCH   7  17
HETATM   17  O8  UNL     1      15.710  -4.176 -32.313  1.00  0.00    -0.388 OA
HETATM   18  C19 UNL     1      16.436  -3.804 -33.427  1.00  0.00     0.202 C
ENDBRANCH   7  17
BRANCH   3  19
HETATM   19  O3  UNL     1      17.845  -5.586 -28.558  1.00  0.00    -0.375 OA
ATOM     20  H3  UNL     1      18.545  -5.372 -27.954  1.00  0.00     0.211 HD
ENDBRANCH   3  19
BRANCH   3  21
HETATM   21  C11 UNL     1      19.681  -6.744 -29.411  1.00  0.00     0.298 C
HETATM   22  O4  UNL     1      20.541  -6.267 -28.625  1.00  0.00    -0.262 OA
BRANCH  21  23
HETATM   23  O5  UNL     1      19.924  -7.997 -29.933  1.00  0.00    -0.319 OA
BRANCH  23  24
HETATM   24  C12 UNL     1      19.865  -9.188 -29.194  1.00  0.00     0.178 C
BRANCH  24  25
HETATM   25  C13 UNL     1      20.843 -10.242 -29.595  1.00  0.00     0.022 C
HETATM   26  C14 UNL     1      21.917 -10.407 -28.513  1.00  0.00     0.007 C
ENDBRANCH  24  25
ENDBRANCH  23  24
ENDBRANCH  21  23
ENDBRANCH   3  21
BRANCH   4  27
HETATM   27  O6  UNL     1      19.813  -5.237 -31.503  1.00  0.00    -0.366 OA
ATOM     28  H6  UNL     1      19.560  -6.138 -31.666  1.00  0.00     0.212 HD
ENDBRANCH   4  27
BRANCH   4  29
HETATM   29  N1  UNL     1      19.723  -3.948 -29.660  1.00  0.00    -0.266 N
ATOM     30  H1  UNL     1      19.368  -3.579 -28.778  1.00  0.00     0.191 HD
BRANCH  29  31
HETATM   31  O7  UNL     1      20.961  -3.707 -30.064  1.00  0.00    -0.292 OA
ATOM     32  H7  UNL     1      21.298  -2.832 -29.913  1.00  0.00     0.244 HD
ENDBRANCH  29  31
ENDBRANCH   4  29
TORSDOF 14
ENDMDL