MODEL 1
REMARK VINA RESULT: -7.781621407      0.000      0.000
REMARK  13 active torsions:
REMARK  status: ('A' for Active; 'I' for Inactive)
REMARK    1  A    between atoms: C2_2  and  C12_30
REMARK    2  A    between atoms: N1_3  and  N2_5
REMARK    3  A    between atoms: N2_5  and  C3_7
REMARK    4  A    between atoms: C3_7  and  C4_8
REMARK    5  A    between atoms: C3_7  and  N3_25
REMARK    6  A    between atoms: C4_8  and  C5_9
REMARK    7  A    between atoms: C5_9  and  C6_10
REMARK    8  A    between atoms: C6_10  and  O1_12
REMARK    9  A    between atoms: O1_12  and  C7_13
REMARK   10  A    between atoms: C9_16  and  O2_17
REMARK   11  A    between atoms: C10_19  and  O3_20
REMARK   12  A    between atoms: C11_22  and  O4_23
REMARK   13  A    between atoms: N3_25  and  N4_27
ROOT
HETATM    1  C4  UNL     1      17.168  -3.500 -29.791  1.00  0.00     0.057 C
ENDROOT
BRANCH   1   2
HETATM    2  C3  UNL     1      17.746  -2.112 -29.714  1.00  0.00     0.219 C
BRANCH   2   3
HETATM    3  N2  UNL     1      17.433  -1.414 -30.986  1.00  0.00    -0.312 N
ATOM      4  H2  UNL     1      17.143  -0.436 -31.002  1.00  0.00     0.182 HD
BRANCH   3   5
HETATM    5  N1  UNL     1      17.552  -2.152 -32.147  1.00  0.00    -0.311 N
HETATM    6  C2  UNL     1      16.631  -2.374 -32.988  1.00  0.00     0.003 C
HETATM    7  C1  UNL     1      15.286  -1.794 -32.719  1.00  0.00     0.065 C
ATOM      8  H1  UNL     1      18.467  -2.558 -32.346  1.00  0.00     0.186 HD
BRANCH   6   9
HETATM    9  C12 UNL     1      16.902  -3.184 -34.189  1.00  0.00     0.024 C
HETATM   10  C13 UNL     1      16.233  -2.538 -35.379  1.00  0.00     0.016 C
HETATM   11  C14 UNL     1      16.370  -4.588 -33.995  1.00  0.00     0.016 C
ENDBRANCH   6   9
ENDBRANCH   3   5
ENDBRANCH   2   3
BRANCH   2  12
HETATM   12  N3  UNL     1      17.073  -1.346 -28.701  1.00  0.00    -0.253 N
ATOM     13  H3  UNL     1      17.227  -1.629 -27.734  1.00  0.00     0.189 HD
BRANCH  12  14
HETATM   14  N4  UNL     1      16.230  -0.250 -28.909  1.00  0.00    -0.042 N
HETATM   15  O5  UNL     1      15.183  -0.352 -29.570  1.00  0.00    -0.517 OA
HETATM   16  O6  UNL     1      16.583   0.954 -28.349  1.00  0.00    -0.517 OA
ENDBRANCH  12  14
ENDBRANCH   2  12
ENDBRANCH   1   2
BRANCH   1  17
HETATM   17  C5  UNL     1      17.940  -4.470 -28.989  1.00  0.00     0.081 C
BRANCH  17  18
HETATM   18  C6  UNL     1      19.131  -5.001 -29.743  1.00  0.00     0.114 C
HETATM   19  S1  UNL     1      18.848  -5.570 -31.236  1.00  0.00    -0.058 SA
BRANCH  18  20
HETATM   20  O1  UNL     1      20.387  -5.021 -29.237  1.00  0.00    -0.326 OA
BRANCH  20  21
HETATM   21  C7  UNL     1      21.546  -5.615 -29.695  1.00  0.00     0.222 C
HETATM   22  S2  UNL     1      22.720  -4.260 -30.096  1.00  0.00    -0.132 SA
HETATM   23  C8  UNL     1      23.553  -3.776 -28.589  1.00  0.00     0.111 C
HETATM   24  C9  UNL     1      23.899  -4.957 -27.708  1.00  0.00     0.159 C
HETATM   25  C10 UNL     1      22.702  -5.862 -27.503  1.00  0.00     0.179 C
HETATM   26  C11 UNL     1      22.253  -6.532 -28.753  1.00  0.00     0.188 C
BRANCH  24  27
HETATM   27  O2  UNL     1      25.013  -5.638 -28.173  1.00  0.00    -0.392 OA
ATOM     28  H2  UNL     1      25.821  -5.238 -27.874  1.00  0.00     0.210 HD
ENDBRANCH  24  27
BRANCH  25  29
HETATM   29  O3  UNL     1      23.122  -6.860 -26.601  1.00  0.00    -0.390 OA
ATOM     30  H3  UNL     1      23.034  -6.482 -25.734  1.00  0.00     0.210 HD
ENDBRANCH  25  29
BRANCH  26  31
HETATM   31  O4  UNL     1      23.387  -7.024 -29.412  1.00  0.00    -0.389 OA
ATOM     32  H4  UNL     1      23.184  -7.901 -29.716  1.00  0.00     0.210 HD
ENDBRANCH  26  31
ENDBRANCH  20  21
ENDBRANCH  18  20
ENDBRANCH  17  18
ENDBRANCH   1  17
TORSDOF 13
ENDMDL