MODEL 5
REMARK VINA RESULT: -8.951973925      4.467      8.159
REMARK  8 active torsions:
REMARK  status: ('A' for Active; 'I' for Inactive)
REMARK    1  A    between atoms: C2_2  and  C3_3
REMARK    2  A    between atoms: N1_5  and  C5_6
REMARK    3  A    between atoms: C6_8  and  C7_9
REMARK       I    between atoms: C7_9  and  N2_11
REMARK    4  A    between atoms: N2_11  and  C8_13
REMARK    5  A    between atoms: C8_13  and  C9_14
REMARK    6  A    between atoms: C8_13  and  C12_19
REMARK    7  A    between atoms: C9_14  and  C10_15
REMARK    8  A    between atoms: C10_15  and  C11_16
ROOT
HETATM    1  C5  UNL     1      18.192  -4.126 -31.558  1.00  0.00     0.112 A
HETATM    2  S1  UNL     1      19.691  -4.912 -31.833  1.00  0.00    -0.046 SA
HETATM    3  C6  UNL     1      20.571  -4.256 -30.522  1.00  0.00     0.145 A
HETATM    4  N3  UNL     1      19.676  -3.477 -29.949  1.00  0.00    -0.335 N
ATOM      5  H3  UNL     1      19.924  -2.942 -29.117  1.00  0.00     0.167 HD
HETATM    6  C13 UNL     1      18.463  -3.390 -30.450  1.00  0.00     0.149 A
HETATM    7  C14 UNL     1      17.476  -2.505 -29.799  1.00  0.00     0.120 C
HETATM    8  N4  UNL     1      16.721  -1.797 -29.269  1.00  0.00    -0.190 NA
ENDROOT
BRANCH   1   9
HETATM    9  N1  UNL     1      17.007  -4.279 -32.365  1.00  0.00    -0.369 N
HETATM   10  C4  UNL     1      16.155  -5.397 -32.253  1.00  0.00     0.156 C
HETATM   11  C3  UNL     1      15.018  -5.517 -33.218  1.00  0.00     0.203 C
HETATM   12  N5  UNL     1      14.628  -4.323 -33.890  1.00  0.00    -0.068 N
HETATM   13  C16 UNL     1      15.775  -3.585 -34.398  1.00  0.00     0.252 C
ATOM     14  H52 UNL     1      13.955  -4.519 -34.632  1.00  0.00     0.277 HD
ATOM     15  H51 UNL     1      14.044  -3.737 -33.295  1.00  0.00     0.277 HD
HETATM   16  C15 UNL     1      16.718  -3.213 -33.312  1.00  0.00     0.151 C
BRANCH  11  17
HETATM   17  C2  UNL     1      15.325  -6.620 -34.248  1.00  0.00     0.030 C
HETATM   18  C1  UNL     1      15.233  -7.958 -33.535  1.00  0.00     0.007 C
ENDBRANCH  11  17
ENDBRANCH   1   9
BRANCH   3  19
HETATM   19  C7  UNL     1      21.979  -4.501 -30.135  1.00  0.00     0.276 C
HETATM   20  O1  UNL     1      22.881  -4.083 -30.874  1.00  0.00    -0.265 OA
HETATM   21  N2  UNL     1      22.246  -5.192 -28.956  1.00  0.00    -0.341 N
ATOM     22  H2  UNL     1      21.453  -5.507 -28.399  1.00  0.00     0.163 HD
BRANCH  21  23
HETATM   23  C8  UNL     1      23.582  -5.493 -28.467  1.00  0.00     0.186 C
BRANCH  23  24
HETATM   24  C9  UNL     1      23.694  -4.984 -27.072  1.00  0.00     0.046 C
BRANCH  24  25
HETATM   25  C10 UNL     1      23.892  -3.518 -26.921  1.00  0.00     0.116 C
BRANCH  25  26
HETATM   26  C11 UNL     1      23.561  -2.949 -25.617  1.00  0.00     0.172 C
HETATM   27  O2  UNL     1      23.705  -3.561 -24.552  1.00  0.00    -0.648 OA
HETATM   28  O3  UNL     1      23.057  -1.656 -25.545  1.00  0.00    -0.648 OA
ENDBRANCH  25  26
ENDBRANCH  24  25
ENDBRANCH  23  24
BRANCH  23  29
HETATM   29  C12 UNL     1      23.826  -6.961 -28.452  1.00  0.00     0.196 C
HETATM   30  O4  UNL     1      23.380  -7.772 -29.282  1.00  0.00    -0.646 OA
HETATM   31  O5  UNL     1      24.622  -7.462 -27.419  1.00  0.00    -0.646 OA
ENDBRANCH  23  29
ENDBRANCH  21  23
ENDBRANCH   3  19
TORSDOF 8
ENDMDL