MODEL 5
REMARK VINA RESULT: -8.435129242      2.429      4.417
REMARK  9 active torsions:
REMARK  status: ('A' for Active; 'I' for Inactive)
REMARK    1  A    between atoms: C2_2  and  C3_3
REMARK    2  A    between atoms: C2_2  and  C12_22
REMARK    3  A    between atoms: C3_3  and  C4_4
REMARK       I    between atoms: C4_4  and  N1_6
REMARK    4  A    between atoms: N1_6  and  C5_8
REMARK    5  A    between atoms: C8_13  and  S1_14
REMARK    6  A    between atoms: S1_14  and  C9_15
REMARK    7  A    between atoms: C12_22  and  O3_23
REMARK    8  A    between atoms: C12_22  and  N6_25
REMARK    9  A    between atoms: N6_25  and  C13_27
ROOT
HETATM    1  C9  UNL     1      23.763  -4.097 -26.754  1.00  0.00     0.206 C
HETATM    2  C10 UNL     1      24.606  -3.034 -27.251  1.00  0.00     0.069 C
HETATM    3  N4  UNL     1      25.272  -2.161 -27.637  1.00  0.00    -0.197 NA
ENDROOT
BRANCH   1   4
HETATM    4  S1  UNL     1      24.025  -5.655 -27.688  1.00  0.00    -0.079 SA
BRANCH   4   5
HETATM    5  C8  UNL     1      22.489  -5.987 -28.532  1.00  0.00     0.151 A
HETATM    6  N3  UNL     1      22.024  -7.247 -28.531  1.00  0.00    -0.318 N
HETATM    7  C6  UNL     1      20.891  -7.604 -29.153  1.00  0.00     0.152 A
HETATM    8  C7  UNL     1      22.771  -8.257 -27.826  1.00  0.00     0.159 C
HETATM    9  C5  UNL     1      20.202  -6.587 -29.814  1.00  0.00     0.145 A
HETATM   10  N2  UNL     1      20.435  -8.957 -29.136  1.00  0.00    -0.080 NA
HETATM   11  C11 UNL     1      20.667  -5.284 -29.825  1.00  0.00     0.277 A
HETATM   12  N5  UNL     1      21.813  -5.009 -29.177  1.00  0.00    -0.302 N
HETATM   13  O2  UNL     1      20.039  -4.364 -30.424  1.00  0.00    -0.266 OA
ATOM     14  H5  UNL     1      22.176  -4.056 -29.172  1.00  0.00     0.171 HD
BRANCH   9  15
HETATM   15  N1  UNL     1      19.002  -6.903 -30.497  1.00  0.00    -0.320 N
HETATM   16  C4  UNL     1      17.745  -6.815 -29.798  1.00  0.00     0.222 C
HETATM   17  O1  UNL     1      17.742  -6.456 -28.609  1.00  0.00    -0.273 OA
ATOM     18  H1  UNL     1      19.027  -7.190 -31.476  1.00  0.00     0.169 HD
BRANCH  16  19
HETATM   19  C3  UNL     1      16.525  -7.152 -30.523  1.00  0.00     0.111 C
BRANCH  19  20
HETATM   20  C2  UNL     1      16.533  -6.710 -31.950  1.00  0.00     0.038 C
HETATM   21  C1  UNL     1      16.204  -5.193 -31.893  1.00  0.00     0.015 C
BRANCH  20  22
HETATM   22  C12 UNL     1      15.393  -7.350 -32.750  1.00  0.00     0.217 C
BRANCH  22  23
HETATM   23  O3  UNL     1      15.101  -8.609 -32.225  1.00  0.00    -0.377 OA
ATOM     24  H3  UNL     1      15.073  -9.249 -32.927  1.00  0.00     0.212 HD
ENDBRANCH  22  23
BRANCH  22  25
HETATM   25  N6  UNL     1      15.609  -7.379 -34.137  1.00  0.00    -0.392 N
ATOM     26  H6  UNL     1      16.333  -8.001 -34.497  1.00  0.00     0.156 HD
BRANCH  25  27
HETATM   27  C13 UNL     1      14.894  -6.611 -35.049  1.00  0.00     0.079 C
HETATM   28  C14 UNL     1      13.683  -5.958 -34.342  1.00  0.00     0.025 C
HETATM   29  C15 UNL     1      13.511  -4.601 -34.928  1.00  0.00     0.002 C
HETATM   30  C16 UNL     1      14.562  -4.425 -35.998  1.00  0.00     0.002 C
HETATM   31  C17 UNL     1      15.627  -5.480 -35.679  1.00  0.00     0.025 C
ENDBRANCH  25  27
ENDBRANCH  22  25
ENDBRANCH  20  22
ENDBRANCH  19  20
ENDBRANCH  16  19
ENDBRANCH   9  15
ENDBRANCH   4   5
ENDBRANCH   1   4
TORSDOF 9
ENDMDL