MODEL 1
REMARK VINA RESULT: -8.219421711      0.000      0.000
REMARK  12 active torsions:
REMARK  status: ('A' for Active; 'I' for Inactive)
REMARK    1  A    between atoms: C3_5  and  C4_6
REMARK    2  A    between atoms: C5_7  and  C7_10
REMARK       I    between atoms: C7_10  and  N3_12
REMARK    3  A    between atoms: N3_12  and  C8_14
REMARK    4  A    between atoms: C8_14  and  C9_15
REMARK    5  A    between atoms: C12_19  and  S2_20
REMARK    6  A    between atoms: S2_20  and  C13_21
REMARK    7  A    between atoms: C13_21  and  C14_22
REMARK    8  A    between atoms: C14_22  and  O3_24
REMARK    9  A    between atoms: O3_24  and  C15_25
REMARK   10  A    between atoms: C15_25  and  C17_27
REMARK   11  A    between atoms: C17_27  and  O4_28
REMARK   12  A    between atoms: O4_28  and  S3_29
ROOT
HETATM    1  C4  UNL     1      17.145  -4.761  14.722  1.00  0.00     0.065 C
HETATM    2  C5  UNL     1      16.121  -3.980  14.981  1.00  0.00     0.114 C
HETATM    3  C6  UNL     1      15.954  -3.331  16.249  1.00  0.00     0.105 C
HETATM    4  N2  UNL     1      15.802  -2.801  17.261  1.00  0.00    -0.191 NA
ENDROOT
BRANCH   2   5
HETATM    5  C7  UNL     1      15.114  -3.769  13.953  1.00  0.00     0.262 C
HETATM    6  O1  UNL     1      13.902  -3.788  14.263  1.00  0.00    -0.267 OA
HETATM    7  N3  UNL     1      15.476  -3.544  12.597  1.00  0.00    -0.356 N
ATOM      8  H3  UNL     1      16.469  -3.533  12.364  1.00  0.00     0.162 HD
BRANCH   7   9
HETATM    9  C8  UNL     1      14.537  -3.331  11.540  1.00  0.00     0.126 C
BRANCH   9  10
HETATM   10  C9  UNL     1      14.828  -4.152  10.299  1.00  0.00    -0.005 C
HETATM   11  C10 UNL     1      16.306  -4.482  10.201  1.00  0.00     0.011 C
HETATM   12  C11 UNL     1      14.462  -3.262   9.106  1.00  0.00     0.011 C
ENDBRANCH   9  10
ENDBRANCH   7   9
ENDBRANCH   2   5
BRANCH   1  13
HETATM   13  C3  UNL     1      18.140  -4.954  15.807  1.00  0.00     0.077 A
HETATM   14  N1  UNL     1      18.804  -4.022  16.477  1.00  0.00    -0.353 N
HETATM   15  C2  UNL     1      19.652  -4.372  17.394  1.00  0.00     0.030 A
ATOM     16  H1  UNL     1      18.648  -3.035  16.273  1.00  0.00     0.166 HD
HETATM   17  C1  UNL     1      20.449  -3.368  18.210  1.00  0.00     0.070 C
HETATM   18  C12 UNL     1      19.817  -5.716  17.624  1.00  0.00     0.066 A
HETATM   19  S1  UNL     1      18.732  -6.398  16.497  1.00  0.00    -0.063 SA
BRANCH  18  20
HETATM   20  S2  UNL     1      20.921  -6.491  18.828  1.00  0.00    -0.111 SA
BRANCH  20  21
HETATM   21  C13 UNL     1      20.022  -7.288  20.157  1.00  0.00     0.191 C
BRANCH  21  22
HETATM   22  C14 UNL     1      19.241  -6.374  21.006  1.00  0.00     0.268 C
HETATM   23  O2  UNL     1      18.969  -6.721  22.175  1.00  0.00    -0.264 OA
BRANCH  22  24
HETATM   24  O3  UNL     1      18.767  -5.123  20.608  1.00  0.00    -0.314 OA
BRANCH  24  25
HETATM   25  C15 UNL     1      17.400  -4.811  20.793  1.00  0.00     0.153 C
HETATM   26  C16 UNL     1      16.649  -5.304  19.571  1.00  0.00     0.042 C
BRANCH  25  27
HETATM   27  C17 UNL     1      17.122  -3.357  20.956  1.00  0.00     0.222 C
BRANCH  27  28
HETATM   28  O4  UNL     1      17.516  -3.006  22.265  1.00  0.00    -0.273 OA
BRANCH  28  29
HETATM   29  S3  UNL     1      18.871  -2.020  22.235  1.00  0.00     0.261 S
HETATM   30  C18 UNL     1      20.309  -2.890  22.848  1.00  0.00     0.194 C
HETATM   31  O5  UNL     1      19.128  -1.431  20.887  1.00  0.00    -0.199 OA
HETATM   32  O6  UNL     1      18.600  -0.871  23.188  1.00  0.00    -0.199 OA
ENDBRANCH  28  29
ENDBRANCH  27  28
ENDBRANCH  25  27
ENDBRANCH  24  25
ENDBRANCH  22  24
ENDBRANCH  21  22
ENDBRANCH  20  21
ENDBRANCH  18  20
ENDBRANCH   1  13
TORSDOF 12
ENDMDL