MODEL 4
REMARK VINA RESULT: -8.255413628      2.004      2.747
REMARK  13 active torsions:
REMARK  status: ('A' for Active; 'I' for Inactive)
REMARK    1  A    between atoms: C2_2  and  C3_3
REMARK    2  A    between atoms: C2_2  and  C16_21
REMARK    3  A    between atoms: C3_3  and  C4_4
REMARK    4  A    between atoms: C7_7  and  C8_8
REMARK    5  A    between atoms: C8_8  and  O2_10
REMARK    6  A    between atoms: O2_10  and  C9_11
REMARK    7  A    between atoms: C11_13  and  S1_14
REMARK    8  A    between atoms: S1_14  and  S2_15
REMARK    9  A    between atoms: C14_18  and  O3_19
REMARK   10  A    between atoms: C16_21  and  O4_22
REMARK   11  A    between atoms: C16_21  and  O5_24
REMARK   12  A    between atoms: O5_24  and  C17_25
REMARK   13  A    between atoms: C17_25  and  C18_26
REMARK       I    between atoms: C18_26  and  N1_28
ROOT
HETATM    1  C4  UNL     1      17.873  -3.888  16.525  1.00  0.00     0.041 C
HETATM    2  C5  UNL     1      17.995  -3.104  15.233  1.00  0.00    -0.022 C
HETATM    3  C6  UNL     1      17.540  -3.640  14.146  1.00  0.00    -0.016 C
HETATM    4  C7  UNL     1      16.899  -4.940  13.973  1.00  0.00     0.111 C
HETATM    5  C13 UNL     1      16.920  -5.791  15.219  1.00  0.00     0.051 C
HETATM    6  C14 UNL     1      18.059  -5.314  16.075  1.00  0.00     0.130 C
ENDROOT
BRANCH   1   7
HETATM    7  C3  UNL     1      16.543  -3.512  17.053  1.00  0.00     0.049 C
BRANCH   7   8
HETATM    8  C2  UNL     1      16.194  -3.897  18.427  1.00  0.00    -0.035 C
HETATM    9  C1  UNL     1      15.573  -5.023  18.763  1.00  0.00     0.019 C
BRANCH   8  10
HETATM   10  C16 UNL     1      16.519  -2.962  19.546  1.00  0.00     0.287 C
BRANCH  10  11
HETATM   11  O4  UNL     1      15.530  -1.940  19.563  1.00  0.00    -0.367 OA
ATOM     12  H4  UNL     1      14.793  -2.254  20.075  1.00  0.00     0.213 HD
ENDBRANCH  10  11
BRANCH  10  13
HETATM   13  O5  UNL     1      16.436  -3.578  20.798  1.00  0.00    -0.348 OA
BRANCH  13  14
HETATM   14  C17 UNL     1      17.488  -3.412  21.626  1.00  0.00     0.274 C
BRANCH  14  15
HETATM   15  C18 UNL     1      18.585  -2.527  21.188  1.00  0.00     0.253 C
HETATM   16  O6  UNL     1      18.511  -1.304  20.976  1.00  0.00    -0.270 OA
HETATM   17  N1  UNL     1      19.889  -3.121  20.979  1.00  0.00    -0.239 N
HETATM   18  C19 UNL     1      20.456  -4.434  21.086  1.00  0.00     0.320 A
HETATM   19  C20 UNL     1      21.178  -2.686  20.579  1.00  0.00     0.373 A
HETATM   20  O7  UNL     1      21.699  -3.972  20.582  1.00  0.00    -0.283 OA
HETATM   21  O8  UNL     1      21.640  -1.544  20.325  1.00  0.00    -0.238 OA
ENDBRANCH  14  15
ENDBRANCH  13  14
ENDBRANCH  10  13
ENDBRANCH   8  10
ENDBRANCH   7   8
ENDBRANCH   1   7
BRANCH   6  22
HETATM   22  O3  UNL     1      18.437  -6.205  17.034  1.00  0.00    -0.390 OA
HETATM   23  C15 UNL     1      19.517  -5.721  17.758  1.00  0.00     0.202 C
ENDBRANCH   6  22
BRANCH   4  24
HETATM   24  C8  UNL     1      17.596  -5.690  12.908  1.00  0.00     0.271 C
HETATM   25  O1  UNL     1      16.898  -6.293  12.060  1.00  0.00    -0.264 OA
BRANCH  24  26
HETATM   26  O2  UNL     1      18.964  -5.763  12.800  1.00  0.00    -0.283 OA
BRANCH  26  27
HETATM   27  C9  UNL     1      19.697  -6.922  12.709  1.00  0.00     0.059 C
HETATM   28  C10 UNL     1      19.777  -7.825  13.874  1.00  0.00     0.077 C
HETATM   29  C11 UNL     1      20.316  -7.216  11.588  1.00  0.00     0.089 C
BRANCH  29  30
HETATM   30  S1  UNL     1      20.221  -6.133  10.185  1.00  0.00    -0.067 SA
BRANCH  30  31
HETATM   31  S2  UNL     1      21.852  -6.495   8.873  1.00  0.00    -0.098 SA
HETATM   32  C12 UNL     1      23.316  -5.561   9.317  1.00  0.00     0.103 C
ENDBRANCH  30  31
ENDBRANCH  29  30
ENDBRANCH  26  27
ENDBRANCH  24  26
ENDBRANCH   4  24
TORSDOF 13
ENDMDL