MODEL 4
REMARK VINA RESULT: -8.195080740      3.311      9.210
REMARK  11 active torsions:
REMARK  status: ('A' for Active; 'I' for Inactive)
REMARK    1  A    between atoms: C2_2  and  O1_3
REMARK    2  A    between atoms: O1_3  and  C3_4
REMARK    3  A    between atoms: C3_4  and  C4_6
REMARK       I    between atoms: N1_11  and  C9_13
REMARK    4  A    between atoms: C9_13  and  C10_15
REMARK    5  A    between atoms: C10_15  and  S1_16
REMARK    6  A    between atoms: S1_16  and  C11_17
REMARK    7  A    between atoms: C11_17  and  C12_18
REMARK    8  A    between atoms: C12_18  and  C13_19
REMARK    9  A    between atoms: C13_19  and  O4_20
REMARK   10  A    between atoms: O4_20  and  N2_21
REMARK   11  A    between atoms: C17_27  and  C18_28
REMARK       I    between atoms: C18_28  and  N4_30
ROOT
HETATM    1  N2  UNL     1      14.158  -2.861  10.968  1.00  0.00    -0.261 N
ATOM      2  H2  UNL     1      13.320  -2.283  10.896  1.00  0.00     0.195 HD
HETATM    3  C14 UNL     1      14.674  -3.392   9.897  1.00  0.00     0.108 C
HETATM    4  C15 UNL     1      14.031  -3.143   8.586  1.00  0.00     0.083 C
HETATM    5  C16 UNL     1      15.848  -4.206   9.985  1.00  0.00     0.114 C
HETATM    6  N3  UNL     1      16.801  -4.861  10.064  1.00  0.00    -0.190 NA
ENDROOT
BRANCH   1   7
HETATM    7  O4  UNL     1      14.742  -3.079  12.202  1.00  0.00    -0.280 OA
BRANCH   7   8
HETATM    8  C13 UNL     1      14.294  -4.166  13.013  1.00  0.00     0.202 C
BRANCH   8   9
HETATM    9  C12 UNL     1      15.516  -4.891  13.550  1.00  0.00     0.039 C
BRANCH   9  10
HETATM   10  C11 UNL     1      16.656  -3.872  13.665  1.00  0.00     0.076 C
BRANCH  10  11
HETATM   11  S1  UNL     1      17.407  -3.956  15.307  1.00  0.00    -0.160 SA
BRANCH  11  12
HETATM   12  C10 UNL     1      17.363  -5.665  15.855  1.00  0.00     0.176 C
BRANCH  12  13
HETATM   13  C9  UNL     1      18.543  -5.978  16.751  1.00  0.00     0.231 C
HETATM   14  N1  UNL     1      18.540  -5.406  18.006  1.00  0.00    -0.333 N
HETATM   15  C8  UNL     1      19.446  -5.142  18.840  1.00  0.00     0.007 C
ATOM     16  H1  UNL     1      17.609  -5.141  18.325  1.00  0.00     0.168 HD
HETATM   17  C7  UNL     1      20.855  -5.429  18.611  1.00  0.00     0.087 C
HETATM   18  C17 UNL     1      19.089  -4.497  20.122  1.00  0.00     0.138 C
HETATM   19  C5  UNL     1      21.592  -5.630  19.912  1.00  0.00    -0.066 C
HETATM   20  C4  UNL     1      20.976  -5.696  21.083  1.00  0.00     0.024 C
HETATM   21  C6  UNL     1      23.066  -5.782  19.756  1.00  0.00     0.044 C
HETATM   22  C19 UNL     1      19.495  -5.529  21.198  1.00  0.00     0.040 C
HETATM   23  C20 UNL     1      19.039  -5.055  22.539  1.00  0.00     0.016 C
HETATM   24  O3  UNL     1      19.428  -6.732  16.281  1.00  0.00    -0.272 OA
BRANCH  20  25
HETATM   25  C3  UNL     1      21.799  -5.935  22.276  1.00  0.00     0.289 C
HETATM   26  O2  UNL     1      22.452  -4.975  22.797  1.00  0.00    -0.260 OA
BRANCH  25  27
HETATM   27  O1  UNL     1      21.940  -7.138  22.913  1.00  0.00    -0.318 OA
BRANCH  27  28
HETATM   28  C2  UNL     1      21.748  -8.351  22.222  1.00  0.00     0.174 C
HETATM   29  C1  UNL     1      20.409  -8.984  22.499  1.00  0.00     0.034 C
ENDBRANCH  27  28
ENDBRANCH  25  27
ENDBRANCH  20  25
BRANCH  18  30
HETATM   30  C18 UNL     1      17.701  -4.077  20.251  1.00  0.00     0.295 C
HETATM   31  O5  UNL     1      16.803  -4.982  20.124  1.00  0.00    -0.266 OA
HETATM   32  N4  UNL     1      17.256  -2.763  20.504  1.00  0.00    -0.077 N
HETATM   33  O6  UNL     1      18.076  -1.843  20.620  1.00  0.00    -0.529 OA
HETATM   34  O7  UNL     1      15.914  -2.460  20.621  1.00  0.00    -0.529 OA
ENDBRANCH  18  30
ENDBRANCH  12  13
ENDBRANCH  11  12
ENDBRANCH  10  11
ENDBRANCH   9  10
ENDBRANCH   8   9
ENDBRANCH   7   8
ENDBRANCH   1   7
TORSDOF 11
ENDMDL