MODEL 3
REMARK VINA RESULT: -7.007394247      2.737      8.809
REMARK  14 active torsions:
REMARK  status: ('A' for Active; 'I' for Inactive)
REMARK    1  A    between atoms: S1_2  and  C2_3
REMARK    2  A    between atoms: C2_3  and  C3_4
REMARK    3  A    between atoms: C3_4  and  O1_5
REMARK    4  A    between atoms: C3_4  and  C4_7
REMARK    5  A    between atoms: C4_7  and  O2_8
REMARK    6  A    between atoms: O2_8  and  C5_9
REMARK    7  A    between atoms: C5_9  and  C6_10
REMARK    8  A    between atoms: C6_10  and  C7_11
REMARK    9  A    between atoms: C7_11  and  S2_12
REMARK   10  A    between atoms: S2_12  and  C8_13
REMARK   11  A    between atoms: C10_17  and  C11_18
REMARK   12  A    between atoms: C11_18  and  O5_19
REMARK   13  A    between atoms: O5_19  and  C12_20
REMARK   14  A    between atoms: C12_20  and  C13_22
ROOT
HETATM    1  C6  UNL     1      17.973  -4.683  15.965  1.00  0.00     0.120 C
HETATM    2  O4  UNL     1      19.275  -4.277  16.390  1.00  0.00    -0.364 OA
HETATM    3  C10 UNL     1      19.614  -5.173  17.342  1.00  0.00     0.178 C
HETATM    4  C17 UNL     1      18.348  -5.613  18.059  1.00  0.00     0.188 C
HETATM    5  O7  UNL     1      18.244  -5.071  19.330  1.00  0.00    -0.345 OA
HETATM    6  C18 UNL     1      17.188  -4.162  19.305  1.00  0.00     0.158 C
HETATM    7  C19 UNL     1      15.930  -4.943  19.527  1.00  0.00     0.078 C
HETATM    8  C20 UNL     1      17.330  -3.068  20.316  1.00  0.00     0.078 C
HETATM    9  O8  UNL     1      17.259  -3.617  18.012  1.00  0.00    -0.345 OA
HETATM   10  C21 UNL     1      17.289  -4.799  17.263  1.00  0.00     0.194 C
ENDROOT
BRANCH   1  11
HETATM   11  C5  UNL     1      18.136  -6.030  15.284  1.00  0.00     0.209 C
BRANCH  11  12
HETATM   12  O2  UNL     1      18.675  -5.875  13.999  1.00  0.00    -0.386 OA
BRANCH  12  13
HETATM   13  C4  UNL     1      19.218  -7.130  13.682  1.00  0.00     0.200 C
BRANCH  13  14
HETATM   14  C3  UNL     1      19.096  -7.464  12.234  1.00  0.00     0.151 C
BRANCH  14  15
HETATM   15  C2  UNL     1      20.333  -7.149  11.442  1.00  0.00     0.107 C
BRANCH  15  16
HETATM   16  S1  UNL     1      20.803  -8.521  10.353  1.00  0.00    -0.171 SA
HETATM   17  C1  UNL     1      21.505  -7.898   8.800  1.00  0.00     0.089 C
ENDBRANCH  15  16
ENDBRANCH  14  15
BRANCH  14  18
HETATM   18  O1  UNL     1      17.954  -6.915  11.675  1.00  0.00    -0.393 OA
ATOM     19  H1  UNL     1      17.239  -7.538  11.622  1.00  0.00     0.210 HD
ENDBRANCH  14  18
ENDBRANCH  13  14
ENDBRANCH  12  13
ENDBRANCH  11  12
ENDBRANCH   1  11
BRANCH   1  20
HETATM   20  C7  UNL     1      17.411  -3.661  15.042  1.00  0.00     0.125 C
BRANCH  20  21
HETATM   21  S2  UNL     1      15.749  -3.924  14.529  1.00  0.00    -0.090 SA
BRANCH  21  22
HETATM   22  C8  UNL     1      15.447  -4.753  13.015  1.00  0.00     0.182 C
HETATM   23  C9  UNL     1      14.238  -5.686  12.872  1.00  0.00     0.104 C
HETATM   24  O3  UNL     1      16.179  -4.617  12.053  1.00  0.00    -0.286 OA
ENDBRANCH  21  22
ENDBRANCH  20  21
ENDBRANCH   1  20
BRANCH   3  25
HETATM   25  C11 UNL     1      20.566  -4.716  18.412  1.00  0.00     0.213 C
BRANCH  25  26
HETATM   26  O5  UNL     1      20.785  -3.374  18.555  1.00  0.00    -0.316 OA
BRANCH  26  27
HETATM   27  C12 UNL     1      21.402  -2.649  19.525  1.00  0.00     0.283 C
HETATM   28  O6  UNL     1      22.496  -2.106  19.220  1.00  0.00    -0.260 OA
BRANCH  27  29
HETATM   29  C13 UNL     1      20.881  -2.466  20.879  1.00  0.00     0.084 C
HETATM   30  C14 UNL     1      21.112  -3.310  21.853  1.00  0.00    -0.082 C
HETATM   31  C15 UNL     1      21.930  -4.518  21.631  1.00  0.00     0.043 C
HETATM   32  C16 UNL     1      20.553  -3.064  23.204  1.00  0.00     0.043 C
ENDBRANCH  27  29
ENDBRANCH  26  27
ENDBRANCH  25  26
ENDBRANCH   3  25
TORSDOF 14
ENDMDL