MODEL 2
REMARK VINA RESULT: -7.612631854      2.187      3.569
REMARK  15 active torsions:
REMARK  status: ('A' for Active; 'I' for Inactive)
REMARK    1  A    between atoms: C2_2  and  O1_3
REMARK    2  A    between atoms: O1_3  and  C3_4
REMARK    3  A    between atoms: C3_4  and  C4_6
REMARK    4  A    between atoms: C4_6  and  C6_9
REMARK    5  A    between atoms: C8_12  and  C9_13
REMARK    6  A    between atoms: C8_12  and  C17_23
REMARK    7  A    between atoms: C9_13  and  O4_14
REMARK    8  A    between atoms: O4_14  and  C10_15
REMARK    9  A    between atoms: C10_15  and  C11_17
REMARK   10  A    between atoms: C11_17  and  C12_18
REMARK   11  A    between atoms: C12_18  and  C14_20
REMARK   12  A    between atoms: C17_23  and  O7_25
REMARK   13  A    between atoms: O7_25  and  C18_26
REMARK   14  A    between atoms: C20_29  and  C22_31
REMARK   15  A    between atoms: C22_31  and  O8_32
ROOT
HETATM    1  C4  UNL     1      21.727  -4.201  20.415  1.00  0.00     0.205 C
HETATM    2  C5  UNL     1      22.068  -5.117  19.316  1.00  0.00     0.075 C
HETATM    3  N1  UNL     1      22.356  -5.824  18.446  1.00  0.00    -0.196 NA
ENDROOT
BRANCH   1   4
HETATM    4  C3  UNL     1      21.924  -2.787  20.003  1.00  0.00     0.277 C
HETATM    5  O2  UNL     1      21.404  -1.896  20.721  1.00  0.00    -0.264 OA
BRANCH   4   6
HETATM    6  O1  UNL     1      22.634  -2.382  18.891  1.00  0.00    -0.321 OA
BRANCH   6   7
HETATM    7  C2  UNL     1      22.652  -0.998  18.504  1.00  0.00     0.174 C
HETATM    8  C1  UNL     1      23.918  -0.732  17.689  1.00  0.00     0.034 C
ENDBRANCH   6   7
ENDBRANCH   4   6
ENDBRANCH   1   4
BRANCH   1   9
HETATM    9  C6  UNL     1      20.389  -4.471  20.954  1.00  0.00     0.105 C
HETATM   10  C7  UNL     1      19.259  -4.421  19.997  1.00  0.00     0.165 C
HETATM   11  O3  UNL     1      19.226  -4.446  18.800  1.00  0.00    -0.295 OA
HETATM   12  C8  UNL     1      17.975  -4.319  20.823  1.00  0.00     0.179 C
HETATM   13  S1  UNL     1      18.431  -5.396  22.194  1.00  0.00    -0.126 SA
HETATM   14  C20 UNL     1      20.171  -5.753  21.666  1.00  0.00     0.039 C
HETATM   15  C21 UNL     1      20.065  -6.977  20.794  1.00  0.00     0.030 C
BRANCH  12  16
HETATM   16  C9  UNL     1      16.822  -4.815  20.047  1.00  0.00     0.218 C
BRANCH  16  17
HETATM   17  O4  UNL     1      16.109  -3.885  19.365  1.00  0.00    -0.319 OA
BRANCH  17  18
HETATM   18  C10 UNL     1      15.966  -3.533  18.080  1.00  0.00     0.259 C
HETATM   19  O5  UNL     1      15.491  -2.398  17.806  1.00  0.00    -0.265 OA
BRANCH  18  20
HETATM   20  C11 UNL     1      16.350  -4.441  16.931  1.00  0.00     0.115 C
BRANCH  20  21
HETATM   21  C12 UNL     1      16.621  -3.655  15.690  1.00  0.00    -0.005 C
HETATM   22  C13 UNL     1      18.091  -3.361  15.526  1.00  0.00     0.011 C
BRANCH  21  23
HETATM   23  C14 UNL     1      16.063  -4.438  14.523  1.00  0.00    -0.010 A
HETATM   24  C15 UNL     1      16.069  -3.703  13.214  1.00  0.00     0.005 A
HETATM   25  C16 UNL     1      17.022  -4.853  13.488  1.00  0.00     0.005 A
ENDBRANCH  21  23
ENDBRANCH  20  21
ENDBRANCH  18  20
ENDBRANCH  17  18
ENDBRANCH  16  17
ENDBRANCH  12  16
BRANCH  12  26
HETATM   26  C17 UNL     1      17.870  -2.890  21.199  1.00  0.00     0.287 C
HETATM   27  O6  UNL     1      17.692  -1.953  20.391  1.00  0.00    -0.263 OA
BRANCH  26  28
HETATM   28  O7  UNL     1      17.978  -2.591  22.540  1.00  0.00    -0.320 OA
BRANCH  28  29
HETATM   29  C18 UNL     1      18.851  -1.621  23.085  1.00  0.00     0.174 C
HETATM   30  C19 UNL     1      20.049  -2.339  23.704  1.00  0.00     0.034 C
ENDBRANCH  28  29
ENDBRANCH  26  28
ENDBRANCH  12  26
BRANCH  14  31
HETATM   31  C22 UNL     1      20.947  -5.957  22.911  1.00  0.00     0.185 C
BRANCH  31  32
HETATM   32  O8  UNL     1      20.130  -5.751  24.008  1.00  0.00    -0.399 OA
ATOM     33  H8  UNL     1      20.026  -4.819  24.158  1.00  0.00     0.209 HD
ENDBRANCH  31  32
ENDBRANCH  14  31
ENDBRANCH   1   9
TORSDOF 15
ENDMDL