MODEL 3
REMARK VINA RESULT: -7.830288237      1.495      1.933
REMARK  14 active torsions:
REMARK  status: ('A' for Active; 'I' for Inactive)
REMARK    1  A    between atoms: O1_2  and  C2_3
REMARK    2  A    between atoms: C2_3  and  C3_4
REMARK    3  A    between atoms: C9_12  and  C10_13
REMARK    4  A    between atoms: C10_13  and  S2_14
REMARK    5  A    between atoms: S2_14  and  C11_15
REMARK    6  A    between atoms: C11_15  and  C12_17
REMARK    7  A    between atoms: C12_17  and  C13_18
REMARK    8  A    between atoms: C13_18  and  C14_19
REMARK    9  A    between atoms: C14_19  and  C15_20
REMARK   10  A    between atoms: C15_20  and  O4_21
REMARK   11  A    between atoms: O4_21  and  C16_22
REMARK   12  A    between atoms: C16_22  and  C17_23
REMARK   13  A    between atoms: C17_23  and  N1_24
REMARK   14  A    between atoms: C20_33  and  O5_34
ROOT
HETATM    1  C16 UNL     1      15.149  -4.110  10.236  1.00  0.00     0.152 C
HETATM    2  N2  UNL     1      14.106  -3.766  10.811  1.00  0.00    -0.276 N
ATOM      3  H2  UNL     1      13.363  -3.564  10.141  1.00  0.00     0.180 HD
HETATM    4  C18 UNL     1      13.686  -3.586  12.070  1.00  0.00     0.183 C
HETATM    5  N3  UNL     1      13.297  -3.417  13.147  1.00  0.00    -0.172 NA
ENDROOT
BRANCH   1   6
HETATM    6  O4  UNL     1      16.298  -4.441  10.916  1.00  0.00    -0.337 OA
BRANCH   6   7
HETATM    7  C15 UNL     1      16.544  -5.705  11.443  1.00  0.00     0.177 C
BRANCH   7   8
HETATM    8  C14 UNL     1      17.568  -5.622  12.591  1.00  0.00     0.027 C
BRANCH   8   9
HETATM    9  C13 UNL     1      16.792  -5.202  13.796  1.00  0.00     0.010 C
BRANCH   9  10
HETATM   10  C12 UNL     1      17.024  -3.785  14.244  1.00  0.00     0.091 C
BRANCH  10  11
HETATM   11  C11 UNL     1      17.988  -3.624  15.332  1.00  0.00     0.186 C
HETATM   12  O3  UNL     1      18.802  -2.715  15.301  1.00  0.00    -0.286 OA
BRANCH  11  13
HETATM   13  S2  UNL     1      18.043  -4.707  16.725  1.00  0.00    -0.089 SA
BRANCH  13  14
HETATM   14  C10 UNL     1      17.462  -4.017  18.255  1.00  0.00     0.109 C
BRANCH  14  15
HETATM   15  C9  UNL     1      17.926  -4.746  19.453  1.00  0.00    -0.011 C
HETATM   16  C8  UNL     1      18.968  -4.318  20.199  1.00  0.00    -0.055 C
HETATM   17  C5  UNL     1      19.410  -5.070  21.393  1.00  0.00     0.027 C
HETATM   18  C19 UNL     1      19.709  -3.126  19.902  1.00  0.00     0.086 C
HETATM   19  S1  UNL     1      20.618  -3.992  22.156  1.00  0.00    -0.123 SA
HETATM   20  C6  UNL     1      18.200  -5.177  22.324  1.00  0.00     0.031 C
HETATM   21  C7  UNL     1      19.906  -6.444  21.114  1.00  0.00     0.031 C
HETATM   22  C4  UNL     1      20.365  -2.518  21.090  1.00  0.00     0.195 C
HETATM   23  O2  UNL     1      21.636  -2.092  20.716  1.00  0.00    -0.365 OA
HETATM   24  C3  UNL     1      21.629  -1.977  19.330  1.00  0.00     0.176 C
HETATM   25  C20 UNL     1      20.866  -3.263  18.938  1.00  0.00     0.163 C
BRANCH  24  26
HETATM   26  C2  UNL     1      22.990  -1.963  18.732  1.00  0.00     0.201 C
BRANCH  26  27
HETATM   27  O1  UNL     1      23.414  -0.656  18.558  1.00  0.00    -0.393 OA
HETATM   28  C1  UNL     1      24.107  -0.448  17.372  1.00  0.00     0.201 C
ENDBRANCH  26  27
ENDBRANCH  24  26
BRANCH  25  29
HETATM   29  O5  UNL     1      21.716  -4.305  19.224  1.00  0.00    -0.387 OA
HETATM   30  C21 UNL     1      21.702  -5.294  18.241  1.00  0.00     0.202 C
ENDBRANCH  25  29
ENDBRANCH  14  15
ENDBRANCH  13  14
ENDBRANCH  11  13
ENDBRANCH  10  11
ENDBRANCH   9  10
ENDBRANCH   8   9
ENDBRANCH   7   8
ENDBRANCH   6   7
ENDBRANCH   1   6
BRANCH   1  31
HETATM   31  C17 UNL     1      15.126  -4.158   8.714  1.00  0.00     0.314 C
BRANCH  31  32
HETATM   32  N1  UNL     1      14.023  -3.348   8.250  1.00  0.00    -0.072 N
ATOM     33  H13 UNL     1      13.116  -3.783   8.423  1.00  0.00     0.274 HD
ATOM     34  H12 UNL     1      13.885  -2.511   8.816  1.00  0.00     0.274 HD
ATOM     35  H11 UNL     1      14.174  -3.135   7.263  1.00  0.00     0.274 HD
ENDBRANCH  31  32
ENDBRANCH   1  31
TORSDOF 14
ENDMDL