MODEL 2
REMARK VINA RESULT: -8.011067993      0.943      1.418
REMARK  15 active torsions:
REMARK  status: ('A' for Active; 'I' for Inactive)
REMARK    1  A    between atoms: C2_2  and  O1_3
REMARK    2  A    between atoms: O1_3  and  C3_4
REMARK    3  A    between atoms: C3_4  and  C4_6
REMARK    4  A    between atoms: C4_6  and  C5_7
REMARK    5  A    between atoms: C5_7  and  C6_8
REMARK    6  A    between atoms: C6_8  and  S1_10
REMARK    7  A    between atoms: S1_10  and  C7_11
REMARK    8  A    between atoms: C10_15  and  C11_16
REMARK    9  A    between atoms: C11_16  and  C12_17
REMARK   10  A    between atoms: C13_18  and  C14_19
REMARK   11  A    between atoms: C14_19  and  C15_20
REMARK   12  A    between atoms: C15_20  and  C16_21
REMARK   13  A    between atoms: C16_21  and  C17_22
REMARK   14  A    between atoms: C17_22  and  O6_24
REMARK   15  A    between atoms: C22_30  and  O8_31
ROOT
HETATM    1  C4  UNL     1      18.411  -4.551  20.028  1.00  0.00     0.164 C
HETATM    2  O4  UNL     1      18.601  -4.792  18.694  1.00  0.00    -0.366 OA
HETATM    3  C9  UNL     1      18.550  -3.776  17.812  1.00  0.00     0.201 C
HETATM    4  C10 UNL     1      17.419  -3.949  16.789  1.00  0.00     0.151 C
HETATM    5  O7  UNL     1      16.389  -4.717  17.264  1.00  0.00    -0.353 OA
HETATM    6  C19 UNL     1      15.757  -4.267  18.391  1.00  0.00     0.264 C
HETATM    7  C20 UNL     1      16.076  -5.186  19.536  1.00  0.00     0.074 C
HETATM    8  C21 UNL     1      16.972  -4.313  20.399  1.00  0.00     0.090 C
HETATM    9  C22 UNL     1      16.420  -2.972  20.078  1.00  0.00     0.267 C
HETATM   10  O9  UNL     1      16.132  -2.984  18.714  1.00  0.00    -0.331 OA
ENDROOT
BRANCH   1  11
HETATM   11  C3  UNL     1      19.307  -3.532  20.604  1.00  0.00     0.294 C
HETATM   12  O2  UNL     1      19.985  -2.690  19.980  1.00  0.00    -0.262 OA
BRANCH  11  13
HETATM   13  O1  UNL     1      19.418  -3.497  21.981  1.00  0.00    -0.319 OA
BRANCH  13  14
HETATM   14  C2  UNL     1      20.086  -2.462  22.682  1.00  0.00     0.174 C
HETATM   15  C1  UNL     1      19.007  -1.524  23.194  1.00  0.00     0.034 C
ENDBRANCH  13  14
ENDBRANCH  11  13
ENDBRANCH   1  11
BRANCH   1  16
HETATM   16  C5  UNL     1      18.784  -5.858  20.734  1.00  0.00     0.140 C
BRANCH  16  17
HETATM   17  C6  UNL     1      19.941  -6.533  20.118  1.00  0.00     0.189 C
HETATM   18  O3  UNL     1      19.842  -7.477  19.341  1.00  0.00    -0.285 OA
BRANCH  17  19
HETATM   19  S1  UNL     1      21.624  -6.010  20.467  1.00  0.00    -0.093 SA
BRANCH  19  20
HETATM   20  C7  UNL     1      22.343  -5.129  19.056  1.00  0.00     0.077 C
HETATM   21  C8  UNL     1      22.840  -6.084  18.015  1.00  0.00     0.016 C
ENDBRANCH  19  20
ENDBRANCH  17  19
ENDBRANCH  16  17
ENDBRANCH   1  16
BRANCH   9  22
HETATM   22  O8  UNL     1      17.103  -1.884  20.522  1.00  0.00    -0.371 OA
ATOM     23  H8  UNL     1      17.342  -1.221  19.884  1.00  0.00     0.212 HD
ENDBRANCH   9  22
BRANCH   4  24
HETATM   24  C11 UNL     1      17.958  -4.705  15.559  1.00  0.00     0.061 C
BRANCH  24  25
HETATM   25  C12 UNL     1      17.668  -3.838  14.400  1.00  0.00    -0.028 C
HETATM   26  C13 UNL     1      16.661  -3.936  13.559  1.00  0.00    -0.031 C
BRANCH  26  27
HETATM   27  C14 UNL     1      15.605  -4.948  13.605  1.00  0.00     0.027 C
BRANCH  27  28
HETATM   28  C15 UNL     1      14.960  -5.200  12.252  1.00  0.00     0.013 C
BRANCH  28  29
HETATM   29  C16 UNL     1      15.119  -4.003  11.339  1.00  0.00     0.111 C
BRANCH  29  30
HETATM   30  C17 UNL     1      15.720  -4.432  10.051  1.00  0.00     0.258 C
HETATM   31  O5  UNL     1      16.902  -4.849  10.001  1.00  0.00    -0.265 OA
BRANCH  30  32
HETATM   32  O6  UNL     1      15.018  -4.396   8.856  1.00  0.00    -0.326 OA
HETATM   33  C18 UNL     1      14.131  -3.335   8.536  1.00  0.00     0.213 C
ENDBRANCH  30  32
ENDBRANCH  29  30
ENDBRANCH  28  29
ENDBRANCH  27  28
ENDBRANCH  26  27
ENDBRANCH  24  25
ENDBRANCH   4  24
TORSDOF 15
ENDMDL