MODEL 4
REMARK VINA RESULT: -8.822037963      2.627      5.272
REMARK  14 active torsions:
REMARK  status: ('A' for Active; 'I' for Inactive)
REMARK    1  A    between atoms: C2_2  and  C3_3
REMARK    2  A    between atoms: C4_4  and  C5_5
REMARK    3  A    between atoms: C6_6  and  C7_7
REMARK    4  A    between atoms: C7_7  and  C8_8
REMARK    5  A    between atoms: C8_8  and  C9_9
REMARK    6  A    between atoms: C11_11  and  C12_12
REMARK    7  A    between atoms: C12_12  and  C13_13
REMARK    8  A    between atoms: C13_13  and  O1_14
REMARK    9  A    between atoms: C13_13  and  C16_18
REMARK   10  A    between atoms: O1_14  and  C14_15
REMARK   11  A    between atoms: C18_22  and  C19_23
REMARK   12  A    between atoms: C19_23  and  O5_24
REMARK   13  A    between atoms: C20_26  and  O6_27
REMARK   14  A    between atoms: O6_27  and  C21_28
ROOT
HETATM    1  C13 UNL     1      16.639  -4.575  14.995  1.00  0.00     0.190 C
ENDROOT
BRANCH   1   2
HETATM    2  C12 UNL     1      17.650  -4.707  13.874  1.00  0.00     0.070 C
BRANCH   2   3
HETATM    3  C11 UNL     1      18.112  -6.124  13.839  1.00  0.00     0.135 C
HETATM    4  C10 UNL     1      18.583  -6.593  12.503  1.00  0.00     0.047 C
HETATM    5  C9  UNL     1      19.305  -7.892  12.892  1.00  0.00     0.088 C
HETATM    6  C23 UNL     1      19.764  -7.571  14.262  1.00  0.00     0.263 C
HETATM    7  O9  UNL     1      19.322  -6.275  14.604  1.00  0.00    -0.316 OA
HETATM    8  O10 UNL     1      20.440  -8.273  15.065  1.00  0.00    -0.265 OA
BRANCH   5   9
HETATM    9  C8  UNL     1      20.411  -8.194  11.926  1.00  0.00     0.018 C
BRANCH   9  10
HETATM   10  C7  UNL     1      20.475  -7.218  10.772  1.00  0.00     0.028 C
BRANCH  10  11
HETATM   11  C6  UNL     1      21.119  -7.866   9.619  1.00  0.00    -0.027 C
HETATM   12  C5  UNL     1      21.983  -7.280   8.841  1.00  0.00    -0.004 C
BRANCH  12  13
HETATM   13  C4  UNL     1      22.452  -5.924   8.967  1.00  0.00    -0.004 C
HETATM   14  C3  UNL     1      21.840  -4.870   8.468  1.00  0.00    -0.027 C
BRANCH  14  15
HETATM   15  C2  UNL     1      20.582  -4.876   7.699  1.00  0.00     0.022 C
HETATM   16  C1  UNL     1      19.422  -4.512   8.626  1.00  0.00     0.009 C
ENDBRANCH  14  15
ENDBRANCH  12  13
ENDBRANCH  10  11
ENDBRANCH   9  10
ENDBRANCH   5   9
ENDBRANCH   2   3
ENDBRANCH   1   2
BRANCH   1  17
HETATM   17  O1  UNL     1      15.483  -3.884  14.585  1.00  0.00    -0.311 OA
BRANCH  17  18
HETATM   18  C14 UNL     1      14.883  -4.124  13.379  1.00  0.00     0.255 C
HETATM   19  C15 UNL     1      14.383  -5.516  13.124  1.00  0.00     0.126 C
HETATM   20  O2  UNL     1      14.773  -3.208  12.553  1.00  0.00    -0.266 OA
ENDBRANCH  17  18
ENDBRANCH   1  17
BRANCH   1  21
HETATM   21  C16 UNL     1      17.250  -3.978  16.241  1.00  0.00     0.302 C
HETATM   22  O3  UNL     1      16.439  -2.997  16.827  1.00  0.00    -0.286 OA
HETATM   23  C17 UNL     1      16.268  -2.949  18.204  1.00  0.00     0.272 C
HETATM   24  O4  UNL     1      15.535  -2.088  18.754  1.00  0.00    -0.265 OA
HETATM   25  C18 UNL     1      16.950  -3.922  19.110  1.00  0.00     0.165 C
HETATM   26  C20 UNL     1      18.065  -4.556  18.296  1.00  0.00     0.288 C
HETATM   27  O8  UNL     1      17.489  -5.044  17.119  1.00  0.00    -0.327 OA
BRANCH  25  28
HETATM   28  C19 UNL     1      15.991  -4.989  19.588  1.00  0.00     0.183 C
BRANCH  28  29
HETATM   29  O5  UNL     1      14.856  -4.987  18.796  1.00  0.00    -0.400 OA
ATOM     30  H5  UNL     1      14.082  -4.949  19.344  1.00  0.00     0.209 HD
ENDBRANCH  28  29
ENDBRANCH  25  28
BRANCH  26  31
HETATM   31  O6  UNL     1      18.779  -5.523  19.003  1.00  0.00    -0.289 OA
BRANCH  31  32
HETATM   32  C21 UNL     1      20.168  -5.467  19.084  1.00  0.00     0.257 C
HETATM   33  C22 UNL     1      21.035  -5.859  17.927  1.00  0.00     0.126 C
HETATM   34  O7  UNL     1      20.664  -5.075  20.170  1.00  0.00    -0.266 OA
ENDBRANCH  31  32
ENDBRANCH  26  31
ENDBRANCH   1  21
TORSDOF 14
ENDMDL