MODEL 1
REMARK VINA RESULT: -7.402198429      0.000      0.000
REMARK  16 active torsions:
REMARK  status: ('A' for Active; 'I' for Inactive)
REMARK    1  A    between atoms: C2_2  and  C3_3
REMARK    2  A    between atoms: C3_3  and  C4_4
REMARK    3  A    between atoms: C4_4  and  C5_5
REMARK    4  A    between atoms: C5_5  and  C6_6
REMARK    5  A    between atoms: C6_6  and  O2_8
REMARK    6  A    between atoms: O2_8  and  C7_9
REMARK    7  A    between atoms: C9_11  and  C10_12
REMARK    8  A    between atoms: C10_12  and  O3_13
REMARK    9  A    between atoms: O3_13  and  C11_14
REMARK   10  A    between atoms: C12_17  and  O6_18
REMARK   11  A    between atoms: O6_18  and  C13_19
REMARK   12  A    between atoms: C15_22  and  O8_23
REMARK   13  A    between atoms: O8_23  and  C16_24
REMARK   14  A    between atoms: C16_24  and  C17_26
REMARK   15  A    between atoms: C19_28  and  O10_29
REMARK   16  A    between atoms: O10_29  and  C20_30
ROOT
HETATM    1  C7  UNL     1      19.519  -5.566  17.134  1.00  0.00     0.164 C
HETATM    2  C8  UNL     1      18.089  -5.416  17.673  1.00  0.00     0.044 C
HETATM    3  C9  UNL     1      17.921  -4.014  18.272  1.00  0.00     0.045 C
HETATM    4  C12 UNL     1      18.948  -3.777  19.329  1.00  0.00     0.170 C
HETATM    5  C15 UNL     1      20.343  -3.893  18.677  1.00  0.00     0.194 C
HETATM    6  C19 UNL     1      20.442  -5.362  18.282  1.00  0.00     0.193 C
ENDROOT
BRANCH   1   7
HETATM    7  O2  UNL     1      19.600  -6.857  16.566  1.00  0.00    -0.313 OA
BRANCH   7   8
HETATM    8  C6  UNL     1      19.506  -6.977  15.199  1.00  0.00     0.259 C
HETATM    9  O1  UNL     1      18.688  -6.326  14.509  1.00  0.00    -0.265 OA
BRANCH   8  10
HETATM   10  C5  UNL     1      20.401  -7.926  14.406  1.00  0.00     0.111 C
BRANCH  10  11
HETATM   11  C4  UNL     1      19.961  -7.980  12.993  1.00  0.00     0.010 C
BRANCH  11  12
HETATM   12  C3  UNL     1      20.554  -9.098  12.225  1.00  0.00     0.000 C
BRANCH  12  13
HETATM   13  C2  UNL     1      20.352  -9.155  10.757  1.00  0.00    -0.005 C
HETATM   14  C1  UNL     1      21.079  -8.193   9.904  1.00  0.00     0.005 C
ENDBRANCH  12  13
ENDBRANCH  11  12
ENDBRANCH  10  11
ENDBRANCH   8  10
ENDBRANCH   7   8
ENDBRANCH   1   7
BRANCH   6  15
HETATM   15  O10 UNL     1      21.761  -5.768  18.052  1.00  0.00    -0.311 OA
BRANCH  15  16
HETATM   16  C20 UNL     1      22.420  -6.730  18.791  1.00  0.00     0.255 C
HETATM   17  C21 UNL     1      23.789  -6.431  19.276  1.00  0.00     0.126 C
HETATM   18  O11 UNL     1      21.812  -7.806  19.006  1.00  0.00    -0.266 OA
ENDBRANCH  15  16
ENDBRANCH   6  15
BRANCH   3  19
HETATM   19  C10 UNL     1      16.553  -4.017  18.898  1.00  0.00     0.189 C
BRANCH  19  20
HETATM   20  O3  UNL     1      15.478  -4.034  18.013  1.00  0.00    -0.295 OA
BRANCH  20  21
HETATM   21  C11 UNL     1      15.187  -2.988  17.186  1.00  0.00     0.332 C
HETATM   22  O4  UNL     1      15.295  -1.792  17.537  1.00  0.00    -0.624 OA
HETATM   23  O5  UNL     1      14.745  -3.217  15.871  1.00  0.00    -0.624 OA
ENDBRANCH  20  21
ENDBRANCH  19  20
ENDBRANCH   3  19
BRANCH   5  24
HETATM   24  O8  UNL     1      21.344  -3.491  19.549  1.00  0.00    -0.311 OA
BRANCH  24  25
HETATM   25  C16 UNL     1      22.062  -2.331  19.291  1.00  0.00     0.259 C
HETATM   26  O9  UNL     1      21.687  -1.235  19.800  1.00  0.00    -0.265 OA
BRANCH  25  27
HETATM   27  C17 UNL     1      23.285  -2.361  18.412  1.00  0.00     0.106 C
HETATM   28  C18 UNL     1      23.618  -0.972  17.978  1.00  0.00     0.015 C
ENDBRANCH  25  27
ENDBRANCH  24  25
ENDBRANCH   5  24
BRANCH   4  29
HETATM   29  O6  UNL     1      18.781  -2.574  19.983  1.00  0.00    -0.313 OA
BRANCH  29  30
HETATM   30  C13 UNL     1      18.759  -2.558  21.385  1.00  0.00     0.255 C
HETATM   31  C14 UNL     1      18.919  -3.812  22.177  1.00  0.00     0.126 C
HETATM   32  O7  UNL     1      18.601  -1.442  21.935  1.00  0.00    -0.266 OA
ENDBRANCH  29  30
ENDBRANCH   4  29
TORSDOF 16
ENDMDL