MODEL 5
REMARK VINA RESULT: -6.948246060      1.187      1.626
REMARK  17 active torsions:
REMARK  status: ('A' for Active; 'I' for Inactive)
REMARK    1  A    between atoms: C2_2  and  C3_3
REMARK    2  A    between atoms: C3_3  and  C4_4
REMARK    3  A    between atoms: C4_4  and  O1_5
REMARK    4  A    between atoms: C4_4  and  O2_7
REMARK    5  A    between atoms: O2_7  and  C6_8
REMARK    6  A    between atoms: C6_8  and  C7_9
REMARK    7  A    between atoms: C10_13  and  O4_14
REMARK    8  A    between atoms: O4_14  and  C11_15
REMARK    9  A    between atoms: C11_15  and  C12_17
REMARK   10  A    between atoms: C16_21  and  O6_22
REMARK   11  A    between atoms: O6_22  and  C17_23
REMARK   12  A    between atoms: C17_23  and  C18_25
REMARK   13  A    between atoms: C18_25  and  C19_26
REMARK   14  A    between atoms: C19_26  and  C20_27
REMARK   15  A    between atoms: C20_27  and  O8_28
REMARK   16  A    between atoms: C21_30  and  C22_31
REMARK   17  A    between atoms: C22_31  and  O10_33
ROOT
HETATM    1  C7  UNL     1      18.587  -4.401  17.895  1.00  0.00     0.105 A
HETATM    2  O3  UNL     1      19.533  -3.598  17.291  1.00  0.00    -0.376 OA
HETATM    3  C8  UNL     1      18.682  -3.127  16.272  1.00  0.00     0.179 A
HETATM    4  C9  UNL     1      17.585  -3.965  16.877  1.00  0.00     0.079 A
HETATM    5  C10 UNL     1      17.215  -5.190  16.058  1.00  0.00     0.171 C
HETATM    6  C16 UNL     1      18.260  -6.239  16.357  1.00  0.00     0.178 C
HETATM    7  C21 UNL     1      18.783  -5.883  17.735  1.00  0.00     0.155 C
ENDROOT
BRANCH   1   8
HETATM    8  C6  UNL     1      18.269  -4.030  19.335  1.00  0.00     0.210 C
BRANCH   8   9
HETATM    9  O2  UNL     1      18.783  -2.806  19.649  1.00  0.00    -0.358 OA
BRANCH   9  10
HETATM   10  C4  UNL     1      19.867  -2.874  20.516  1.00  0.00     0.259 C
BRANCH  10  11
HETATM   11  C3  UNL     1      19.434  -3.013  21.934  1.00  0.00     0.060 C
BRANCH  11  12
HETATM   12  C2  UNL     1      20.517  -3.240  22.925  1.00  0.00     0.000 C
HETATM   13  C1  UNL     1      21.453  -4.362  22.574  1.00  0.00     0.005 C
ENDBRANCH  11  12
ENDBRANCH  10  11
BRANCH  10  14
HETATM   14  O1  UNL     1      20.681  -1.735  20.343  1.00  0.00    -0.366 OA
HETATM   15  C5  UNL     1      21.842  -2.039  19.636  1.00  0.00     0.204 C
ENDBRANCH  10  14
ENDBRANCH   9  10
ENDBRANCH   8   9
ENDBRANCH   1   8
BRANCH   7  16
HETATM   16  C22 UNL     1      20.212  -6.230  17.906  1.00  0.00     0.268 C
HETATM   17  O9  UNL     1      20.557  -7.429  18.061  1.00  0.00    -0.265 OA
BRANCH  16  18
HETATM   18  O10 UNL     1      21.218  -5.275  17.903  1.00  0.00    -0.326 OA
HETATM   19  C23 UNL     1      22.547  -5.536  18.309  1.00  0.00     0.213 C
ENDBRANCH  16  18
ENDBRANCH   7  16
BRANCH   5  20
HETATM   20  O4  UNL     1      17.121  -4.924  14.691  1.00  0.00    -0.312 OA
BRANCH  20  21
HETATM   21  C11 UNL     1      15.960  -4.412  14.132  1.00  0.00     0.267 C
HETATM   22  O5  UNL     1      15.319  -3.555  14.786  1.00  0.00    -0.264 OA
BRANCH  21  23
HETATM   23  C12 UNL     1      15.448  -4.828  12.808  1.00  0.00     0.037 C
HETATM   24  C13 UNL     1      16.536  -5.514  12.040  1.00  0.00     0.025 C
HETATM   25  C14 UNL     1      14.283  -5.803  12.936  1.00  0.00     0.025 C
HETATM   26  C15 UNL     1      14.933  -3.631  12.032  1.00  0.00     0.025 C
ENDBRANCH  21  23
ENDBRANCH  20  21
ENDBRANCH   5  20
BRANCH   6  27
HETATM   27  O6  UNL     1      19.309  -6.258  15.430  1.00  0.00    -0.312 OA
BRANCH  27  28
HETATM   28  C17 UNL     1      19.602  -7.319  14.590  1.00  0.00     0.259 C
HETATM   29  O7  UNL     1      20.174  -8.317  15.096  1.00  0.00    -0.265 OA
BRANCH  28  30
HETATM   30  C18 UNL     1      19.283  -7.339  13.150  1.00  0.00     0.113 C
BRANCH  30  31
HETATM   31  C19 UNL     1      20.038  -8.365  12.378  1.00  0.00     0.036 C
BRANCH  31  32
HETATM   32  C20 UNL     1      20.384  -7.727  11.024  1.00  0.00     0.164 C
BRANCH  32  33
HETATM   33  O8  UNL     1      20.398  -8.644  10.006  1.00  0.00    -0.401 OA
ATOM     34  H8  UNL     1      20.835  -8.314   9.229  1.00  0.00     0.209 HD
ENDBRANCH  32  33
ENDBRANCH  31  32
ENDBRANCH  30  31
ENDBRANCH  28  30
ENDBRANCH  27  28
ENDBRANCH   6  27
TORSDOF 17
ENDMDL