MODEL 3
REMARK VINA RESULT: -9.690502883      3.054      5.019
REMARK  6 active torsions:
REMARK  status: ('A' for Active; 'I' for Inactive)
REMARK    1  A    between atoms: C2_2  and  C3_4
REMARK    2  A    between atoms: C3_4  and  C4_5
REMARK       I    between atoms: C4_5  and  N1_7
REMARK    3  A    between atoms: N1_7  and  C6_9
REMARK    4  A    between atoms: C6_9  and  C7_10
REMARK    5  A    between atoms: C11_15  and  C12_16
REMARK       I    between atoms: C12_16  and  N2_18
REMARK    6  A    between atoms: N2_18  and  C13_20
ROOT
HETATM    1  C7  UNL     1      10.292  23.954   5.658  1.00  0.00    -0.018 A
HETATM    2  C8  UNL     1      11.190  22.911   5.305  1.00  0.00     0.028 A
HETATM    3  C9  UNL     1      12.378  22.762   5.892  1.00  0.00     0.042 A
HETATM    4  C10 UNL     1      13.257  21.677   5.561  1.00  0.00     0.201 A
HETATM    5  O3  UNL     1      12.872  20.897   4.691  1.00  0.00    -0.286 OA
HETATM    6  C11 UNL     1      14.463  21.532   6.200  1.00  0.00     0.098 A
HETATM    7  C18 UNL     1      14.803  22.466   7.169  1.00  0.00     0.109 A
HETATM    8  N3  UNL     1      14.013  23.488   7.511  1.00  0.00    -0.364 N
ATOM      9  H3  UNL     1      14.301  24.154   8.228  1.00  0.00     0.165 HD
HETATM   10  C19 UNL     1      12.833  23.617   6.890  1.00  0.00     0.048 A
HETATM   11  C20 UNL     1      11.919  24.652   7.212  1.00  0.00     0.054 A
HETATM   12  C21 UNL     1      10.698  24.804   6.612  1.00  0.00     0.044 A
HETATM   13 CL1  UNL     1       9.683  26.192   7.093  1.00  0.00    -0.084 Cl
ENDROOT
BRANCH   1  14
HETATM   14  C6  UNL     1       8.891  23.817   5.178  1.00  0.00     0.165 C
BRANCH  14  15
HETATM   15  N1  UNL     1       8.751  23.566   3.763  1.00  0.00    -0.351 N
HETATM   16  C4  UNL     1       8.633  24.759   2.930  1.00  0.00     0.235 C
HETATM   17  O2  UNL     1       9.498  24.859   1.987  1.00  0.00    -0.272 OA
HETATM   18  C5  UNL     1       9.049  22.374   3.070  1.00  0.00     0.153 C
BRANCH  16  19
HETATM   19  C3  UNL     1       7.593  25.767   3.086  1.00  0.00     0.101 C
HETATM   20  C22 UNL     1       6.236  25.011   3.076  1.00  0.00     0.027 C
HETATM   21  C23 UNL     1       5.590  25.360   1.778  1.00  0.00     0.002 C
HETATM   22  C24 UNL     1       6.746  25.718   0.857  1.00  0.00     0.002 C
HETATM   23  C25 UNL     1       7.542  26.619   1.772  1.00  0.00     0.027 C
BRANCH  19  24
HETATM   24  C2  UNL     1       7.531  26.707   4.158  1.00  0.00     0.141 C
HETATM   25  C1  UNL     1       6.485  26.738   5.224  1.00  0.00     0.092 C
HETATM   26  O1  UNL     1       8.410  27.602   4.273  1.00  0.00    -0.297 OA
ENDBRANCH  19  24
ENDBRANCH  16  19
ENDBRANCH  14  15
ENDBRANCH   1  14
BRANCH   6  27
HETATM   27  C12 UNL     1      15.343  20.386   6.023  1.00  0.00     0.261 C
HETATM   28  O4  UNL     1      16.019  19.962   7.018  1.00  0.00    -0.267 OA
HETATM   29  N2  UNL     1      15.400  19.786   4.788  1.00  0.00    -0.330 N
ATOM     30  H2  UNL     1      14.826  20.286   4.109  1.00  0.00     0.168 HD
BRANCH  29  31
HETATM   31  C13 UNL     1      16.039  18.657   4.192  1.00  0.00    -0.006 C
HETATM   32  C14 UNL     1      15.887  18.686   2.718  1.00  0.00     0.078 C
HETATM   33  C15 UNL     1      16.838  17.719   2.021  1.00  0.00     0.173 C
HETATM   34  O5  UNL     1      18.133  18.148   2.397  1.00  0.00    -0.390 OA
HETATM   35  C16 UNL     1      18.323  17.708   3.688  1.00  0.00     0.173 C
HETATM   36  C17 UNL     1      17.325  18.197   4.709  1.00  0.00     0.078 C
ENDBRANCH  29  31
ENDBRANCH   6  27
TORSDOF 6
ENDMDL