MODEL 1
REMARK VINA RESULT: -9.223751507      0.000      0.000
REMARK  7 active torsions:
REMARK  status: ('A' for Active; 'I' for Inactive)
REMARK    1  A    between atoms: C2_2  and  N2_6
REMARK    2  A    between atoms: N3_11  and  C6_12
REMARK    3  A    between atoms: C6_12  and  C7_13
REMARK       I    between atoms: C7_13  and  N4_15
REMARK    4  A    between atoms: N4_15  and  C8_17
REMARK    5  A    between atoms: C8_17  and  C9_18
REMARK    6  A    between atoms: C16_26  and  C17_27
REMARK    7  A    between atoms: C18_28  and  C19_29
ROOT
HETATM    1  C9  UNL     1      11.586  22.106   6.250  1.00  0.00    -0.005 C
HETATM    2  C10 UNL     1      11.045  20.720   6.407  1.00  0.00     0.021 C
HETATM    3  C11 UNL     1      10.768  22.716   5.113  1.00  0.00     0.015 C
HETATM    4  C12 UNL     1      11.627  23.779   4.471  1.00  0.00     0.004 C
HETATM    5  C13 UNL     1      12.608  22.934   3.639  1.00  0.00     0.038 C
HETATM    6  C14 UNL     1      13.526  22.169   4.582  1.00  0.00     0.064 C
HETATM    7  C15 UNL     1      14.869  22.917   4.526  1.00  0.00     0.046 C
HETATM    8  O2  UNL     1      13.744  20.939   3.993  1.00  0.00    -0.363 OA
HETATM    9  C16 UNL     1      14.786  20.228   4.574  1.00  0.00     0.214 C
HETATM   10  C23 UNL     1      14.965  20.619   5.994  1.00  0.00     0.159 C
HETATM   11  O3  UNL     1      16.034  20.652   6.548  1.00  0.00    -0.295 OA
HETATM   12  C24 UNL     1      13.712  20.983   6.730  1.00  0.00     0.090 C
HETATM   13  C25 UNL     1      13.065  22.124   5.975  1.00  0.00     0.040 C
ENDROOT
BRANCH   1  14
HETATM   14  C8  UNL     1      11.301  22.952   7.445  1.00  0.00     0.073 C
BRANCH  14  15
HETATM   15  N4  UNL     1      10.472  24.063   7.417  1.00  0.00    -0.339 N
HETATM   16  C7  UNL     1      10.547  25.300   8.023  1.00  0.00     0.249 C
HETATM   17  O1  UNL     1      11.450  25.748   8.796  1.00  0.00    -0.271 OA
ATOM     18  H4  UNL     1       9.644  23.941   6.834  1.00  0.00     0.167 HD
BRANCH  16  19
HETATM   19  C6  UNL     1       9.449  26.340   7.804  1.00  0.00     0.378 C
BRANCH  19  20
HETATM   20  N3  UNL     1       8.428  25.837   6.897  1.00  0.00     0.132 N
HETATM   21  C5  UNL     1       7.147  25.785   7.594  1.00  0.00     0.407 C
HETATM   22  C4  UNL     1       6.528  27.095   7.896  1.00  0.00     0.089 C
HETATM   23  F1  UNL     1       7.311  25.055   8.770  1.00  0.00    -0.216 F
HETATM   24  C3  UNL     1       5.655  27.571   6.742  1.00  0.00     0.129 C
HETATM   25  N2  UNL     1       5.892  26.799   5.548  1.00  0.00    -0.370 N
HETATM   26  C27 UNL     1       7.189  26.592   4.910  1.00  0.00     0.154 C
HETATM   27  C26 UNL     1       8.279  26.901   5.888  1.00  0.00     0.296 C
BRANCH  25  28
HETATM   28  C2  UNL     1       4.810  26.174   4.903  1.00  0.00     0.068 C
HETATM   29  C1  UNL     1       3.510  26.905   4.790  1.00  0.00     0.088 C
HETATM   30  N1  UNL     1       4.843  25.004   4.394  1.00  0.00    -0.389 N
ATOM     31  H12 UNL     1       4.058  24.551   3.926  1.00  0.00     0.157 HD
ATOM     32  H11 UNL     1       5.729  24.505   4.471  1.00  0.00     0.157 HD
ENDBRANCH  25  28
ENDBRANCH  19  20
ENDBRANCH  16  19
ENDBRANCH  14  15
ENDBRANCH   1  14
BRANCH   9  33
HETATM   33  C17 UNL     1      14.346  18.786   4.581  1.00  0.00     0.009 C
HETATM   34  C18 UNL     1      14.949  17.869   3.852  1.00  0.00    -0.023 C
BRANCH  34  35
HETATM   35  C19 UNL     1      16.107  18.165   2.965  1.00  0.00     0.012 A
HETATM   36  C20 UNL     1      16.676  17.028   2.184  1.00  0.00     0.013 A
HETATM   37  C21 UNL     1      17.399  17.554   3.365  1.00  0.00    -0.010 A
HETATM   38  C22 UNL     1      17.471  16.765   4.643  1.00  0.00     0.010 C
ENDBRANCH  34  35
ENDBRANCH   9  33
TORSDOF 7
ENDMDL