MODEL 3
REMARK VINA RESULT: -8.539091269      3.668      7.336
REMARK  7 active torsions:
REMARK  status: ('A' for Active; 'I' for Inactive)
REMARK       I    between atoms: C2_2  and  N1_4
REMARK    1  A    between atoms: N1_4  and  C3_6
REMARK    2  A    between atoms: C3_6  and  C4_7
REMARK    3  A    between atoms: C4_7  and  N2_8
REMARK    4  A    between atoms: N3_11  and  C7_12
REMARK    5  A    between atoms: C15_24  and  N5_25
REMARK    6  A    between atoms: N5_25  and  C16_27
REMARK    7  A    between atoms: C16_27  and  C17_28
ROOT
HETATM    1  C7  UNL     1      10.796  23.507   5.468  1.00  0.00     0.082 A
HETATM    2  C8  UNL     1      10.317  22.755   4.436  1.00  0.00    -0.012 A
HETATM    3  C9  UNL     1      10.988  21.518   3.978  1.00  0.00     0.052 C
HETATM    4  C10 UNL     1       9.152  23.125   3.753  1.00  0.00     0.041 A
HETATM    5  S1  UNL     1       8.262  22.467   2.453  1.00  0.00    -0.091 SA
HETATM    6  C11 UNL     1       7.018  23.618   2.353  1.00  0.00    -0.001 A
HETATM    7  C12 UNL     1       5.889  23.605   1.385  1.00  0.00     0.057 C
HETATM    8  C13 UNL     1       7.330  24.502   3.350  1.00  0.00     0.051 A
HETATM    9 BR1  UNL     1       6.136  26.030   3.606  1.00  0.00    -0.048 Br
HETATM   10  C14 UNL     1       8.439  24.244   4.077  1.00  0.00     0.070 A
HETATM   11  N4  UNL     1       8.937  24.987   5.119  1.00  0.00    -0.338 N
ATOM     12  H4  UNL     1       8.435  25.831   5.394  1.00  0.00     0.167 HD
HETATM   13  C15 UNL     1      10.040  24.664   5.788  1.00  0.00     0.133 A
ENDROOT
BRANCH   1  14
HETATM   14  N3  UNL     1      11.968  23.152   6.158  1.00  0.00    -0.374 N
HETATM   15  C6  UNL     1      13.228  23.449   5.501  1.00  0.00     0.153 C
HETATM   16  C5  UNL     1      14.404  22.796   6.144  1.00  0.00     0.292 C
HETATM   17  N2  UNL     1      13.945  21.553   6.773  1.00  0.00     0.093 N
HETATM   18  C22 UNL     1      13.200  21.977   7.937  1.00  0.00     0.292 C
HETATM   19  C21 UNL     1      11.872  22.529   7.443  1.00  0.00     0.153 C
BRANCH  17  20
HETATM   20  C4  UNL     1      15.027  20.671   7.052  1.00  0.00     0.292 C
BRANCH  20  21
HETATM   21  C3  UNL     1      15.815  20.370   5.817  1.00  0.00     0.152 C
BRANCH  21  22
HETATM   22  N1  UNL     1      15.703  18.947   5.482  1.00  0.00    -0.360 N
HETATM   23  C2  UNL     1      14.741  18.547   4.530  1.00  0.00     0.213 C
HETATM   24  C1  UNL     1      14.604  17.100   4.168  1.00  0.00     0.117 C
HETATM   25  O1  UNL     1      14.002  19.395   3.987  1.00  0.00    -0.274 OA
ATOM     26  H1  UNL     1      16.309  18.260   5.929  1.00  0.00     0.162 HD
ENDBRANCH  21  22
ENDBRANCH  20  21
ENDBRANCH  17  20
ENDBRANCH   1  14
BRANCH  13  27
HETATM   27  N5  UNL     1      10.506  25.319   6.738  1.00  0.00    -0.353 N
ATOM     28  H5  UNL     1      11.512  25.337   6.571  1.00  0.00     0.166 HD
BRANCH  27  29
HETATM   29  C16 UNL     1      10.338  26.017   7.881  1.00  0.00     0.072 C
BRANCH  29  30
HETATM   30  C17 UNL     1       8.901  26.231   8.344  1.00  0.00    -0.012 A
HETATM   31  C18 UNL     1       8.184  25.070   8.972  1.00  0.00     0.021 C
HETATM   32  C19 UNL     1       8.227  27.452   7.869  1.00  0.00     0.015 A
HETATM   33  C20 UNL     1       8.781  27.495   9.225  1.00  0.00     0.015 A
ENDBRANCH  29  30
ENDBRANCH  27  29
ENDBRANCH  13  27
TORSDOF 7
ENDMDL