MODEL 2
REMARK VINA RESULT: -10.107911989      5.816     12.632
REMARK  6 active torsions:
REMARK  status: ('A' for Active; 'I' for Inactive)
REMARK    1  A    between atoms: C6_7  and  N1_8
REMARK    2  A    between atoms: N2_11  and  C9_12
REMARK    3  A    between atoms: C9_12  and  C10_13
REMARK    4  A    between atoms: C10_13  and  C11_14
REMARK    5  A    between atoms: C14_17  and  N3_18
REMARK       I    between atoms: N3_18  and  C15_20
REMARK    6  A    between atoms: C15_20  and  C16_22
ROOT
HETATM    1  C11 UNL     1      15.440  18.495   2.393  1.00  0.00    -0.010 C
HETATM    2  C12 UNL     1      16.963  18.358   2.204  1.00  0.00     0.007 C
HETATM    3  C13 UNL     1      17.686  18.278   3.502  1.00  0.00     0.025 C
HETATM    4  C14 UNL     1      17.238  17.075   4.338  1.00  0.00     0.084 C
HETATM    5  C23 UNL     1      15.744  17.157   4.483  1.00  0.00     0.025 C
HETATM    6  C24 UNL     1      15.027  17.276   3.152  1.00  0.00     0.007 C
ENDROOT
BRANCH   1   7
HETATM    7  C10 UNL     1      15.098  19.776   3.030  1.00  0.00     0.049 C
BRANCH   7   8
HETATM    8  C9  UNL     1      13.747  20.346   2.911  1.00  0.00     0.058 C
BRANCH   8   9
HETATM    9  N2  UNL     1      13.278  21.359   3.731  1.00  0.00    -0.390 N
HETATM   10  C8  UNL     1      14.184  22.096   4.499  1.00  0.00     0.141 C
HETATM   11  C7  UNL     1      13.537  23.411   5.012  1.00  0.00     0.143 C
HETATM   12  N1  UNL     1      12.308  23.068   5.679  1.00  0.00    -0.376 N
HETATM   13  C26 UNL     1      12.052  21.623   5.835  1.00  0.00     0.143 C
HETATM   14  C25 UNL     1      12.015  21.089   4.398  1.00  0.00     0.141 C
BRANCH  12  15
HETATM   15  C6  UNL     1      11.402  24.030   6.145  1.00  0.00     0.052 A
HETATM   16  C5  UNL     1      10.419  24.538   5.332  1.00  0.00     0.060 A
HETATM   17  C4  UNL     1       9.536  25.493   5.811  1.00  0.00     0.026 A
HETATM   18 CL1  UNL     1      10.219  24.039   3.644  1.00  0.00    -0.082 Cl
HETATM   19  C3  UNL     1       9.618  25.948   7.087  1.00  0.00     0.008 A
HETATM   20  C2  UNL     1      10.599  25.458   7.935  1.00  0.00    -0.060 A
HETATM   21  C1  UNL     1      10.680  25.967   9.327  1.00  0.00     0.048 C
HETATM   22  C27 UNL     1      11.468  24.514   7.457  1.00  0.00     0.037 A
ENDBRANCH  12  15
ENDBRANCH   8   9
ENDBRANCH   7   8
ENDBRANCH   1   7
BRANCH   4  23
HETATM   23  N3  UNL     1      17.862  17.276   5.634  1.00  0.00    -0.355 N
HETATM   24  C15 UNL     1      18.351  16.208   6.426  1.00  0.00     0.248 C
HETATM   25  O1  UNL     1      18.275  15.009   6.058  1.00  0.00    -0.271 OA
ATOM     26  H3  UNL     1      17.953  18.227   5.989  1.00  0.00     0.162 HD
BRANCH  24  27
HETATM   27  C16 UNL     1      18.979  16.502   7.739  1.00  0.00     0.280 C
HETATM   28  C17 UNL     1      18.290  15.776   8.905  1.00  0.00     0.082 C
HETATM   29  C18 UNL     1      18.462  17.083   9.600  1.00  0.00     0.133 C
HETATM   30  C19 UNL     1      17.281  17.415  10.471  1.00  0.00     0.065 C
HETATM   31  C22 UNL     1      19.743  17.241  10.386  1.00  0.00     0.065 C
HETATM   32  N4  UNL     1      18.521  17.744   8.331  1.00  0.00    -0.053 N
HETATM   33  C20 UNL     1      17.497  18.689  11.255  1.00  0.00     0.170 C
HETATM   34  O2  UNL     1      18.727  18.729  11.875  1.00  0.00    -0.391 OA
HETATM   35  C21 UNL     1      19.750  18.645  10.950  1.00  0.00     0.170 C
ATOM     36  H42 UNL     1      19.062  18.602   8.218  1.00  0.00     0.279 HD
ATOM     37  H41 UNL     1      17.701  18.225   7.958  1.00  0.00     0.279 HD
ENDBRANCH  24  27
ENDBRANCH   4  23
TORSDOF 6
ENDMDL