MODEL 4
REMARK VINA RESULT: -8.845374347      1.005      1.440
REMARK  7 active torsions:
REMARK  status: ('A' for Active; 'I' for Inactive)
REMARK    1  A    between atoms: C2_2  and  C3_3
REMARK    2  A    between atoms: C3_3  and  N2_7
REMARK    3  A    between atoms: N2_7  and  C4_9
REMARK    4  A    between atoms: N3_13  and  S1_14
REMARK    5  A    between atoms: S1_14  and  C8_17
REMARK    6  A    between atoms: C11_20  and  N4_21
REMARK    7  A    between atoms: C14_24  and  N5_25
ROOT
HETATM    1  C8  UNL     1       9.560  25.284   7.349  1.00  0.00     0.074 A
HETATM    2  C9  UNL     1      10.869  25.461   7.739  1.00  0.00     0.027 A
HETATM    3  C10 UNL     1      11.801  24.480   7.414  1.00  0.00     0.031 A
HETATM    4  C11 UNL     1      11.489  23.338   6.720  1.00  0.00     0.030 A
HETATM    5  C22 UNL     1      10.145  23.216   6.352  1.00  0.00     0.031 A
HETATM    6  C23 UNL     1       9.189  24.158   6.651  1.00  0.00     0.027 A
ENDROOT
BRANCH   1   7
HETATM    7  S1  UNL     1       8.369  26.486   7.745  1.00  0.00     0.245 S
HETATM    8  O1  UNL     1       7.875  26.348   9.149  1.00  0.00    -0.206 OA
HETATM    9  O2  UNL     1       9.070  27.836   7.678  1.00  0.00    -0.206 OA
BRANCH   7  10
HETATM   10  N3  UNL     1       7.053  26.554   6.674  1.00  0.00    -0.186 NA
HETATM   11  C7  UNL     1       6.353  27.819   6.699  1.00  0.00     0.109 C
HETATM   12  C6  UNL     1       4.914  27.532   6.321  1.00  0.00     0.018 C
HETATM   13  C5  UNL     1       4.814  26.231   5.576  1.00  0.00     0.029 C
HETATM   14  C4  UNL     1       5.981  26.041   4.628  1.00  0.00     0.116 C
HETATM   15  C24 UNL     1       7.325  26.196   5.320  1.00  0.00     0.193 C
HETATM   16 CL1  UNL     1       8.189  27.516   4.454  1.00  0.00    -0.105 Cl
BRANCH  14  17
HETATM   17  N2  UNL     1       5.921  24.739   4.031  1.00  0.00    -0.373 N
ATOM     18  H2  UNL     1       5.298  24.051   4.454  1.00  0.00     0.161 HD
BRANCH  17  19
HETATM   19  C3  UNL     1       6.671  24.341   2.890  1.00  0.00     0.070 C
HETATM   20  N1  UNL     1       6.460  24.829   1.716  1.00  0.00    -0.389 N
ATOM     21  H12 UNL     1       6.997  24.543   0.898  1.00  0.00     0.157 HD
ATOM     22  H11 UNL     1       5.722  25.526   1.616  1.00  0.00     0.157 HD
BRANCH  19  23
HETATM   23  C2  UNL     1       7.744  23.328   3.035  1.00  0.00     0.071 C
HETATM   24  C1  UNL     1       9.073  24.023   2.767  1.00  0.00     0.013 C
ENDBRANCH  19  23
ENDBRANCH  17  19
ENDBRANCH  14  17
ENDBRANCH   7  10
ENDBRANCH   1   7
BRANCH   4  25
HETATM   25  N4  UNL     1      12.432  22.331   6.370  1.00  0.00    -0.381 N
HETATM   26  C12 UNL     1      12.021  21.024   5.955  1.00  0.00     0.125 C
HETATM   27  C13 UNL     1      12.836  20.701   4.692  1.00  0.00     0.045 C
HETATM   28  C14 UNL     1      14.268  20.588   5.188  1.00  0.00     0.086 C
HETATM   29  C20 UNL     1      14.789  21.862   5.731  1.00  0.00     0.045 C
HETATM   30  C21 UNL     1      13.827  22.713   6.459  1.00  0.00     0.125 C
BRANCH  28  31
HETATM   31  N5  UNL     1      15.069  20.111   4.121  1.00  0.00    -0.389 N
HETATM   32  C15 UNL     1      14.418  19.967   2.877  1.00  0.00     0.122 C
HETATM   33  C16 UNL     1      15.031  19.072   1.879  1.00  0.00     0.020 C
HETATM   34  C17 UNL     1      15.631  17.869   2.576  1.00  0.00     0.007 C
HETATM   35  C18 UNL     1      16.774  18.454   3.417  1.00  0.00     0.044 C
HETATM   36  C19 UNL     1      16.255  19.463   4.400  1.00  0.00     0.058 C
ENDBRANCH  28  31
ENDBRANCH   4  25
TORSDOF 7
ENDMDL