MODEL 4
REMARK VINA RESULT: -9.478221703      4.493     10.868
REMARK  7 active torsions:
REMARK  status: ('A' for Active; 'I' for Inactive)
REMARK       I    between atoms: C1_2  and  N1_3
REMARK       I    between atoms: C1_2  and  N6_33
REMARK    1  A    between atoms: N1_3  and  C2_5
REMARK    2  A    between atoms: C7_13  and  N3_14
REMARK    3  A    between atoms: C10_17  and  C11_18
REMARK    4  A    between atoms: C11_18  and  C12_19
REMARK    5  A    between atoms: C12_19  and  N4_20
REMARK    6  A    between atoms: N5_23  and  C15_24
REMARK    7  A    between atoms: N6_33  and  C23_35
ROOT
HETATM    1  C2  UNL     1      17.455  19.239   7.052  1.00  0.00     0.153 A
HETATM    2  N2  UNL     1      17.834  18.437   6.058  1.00  0.00    -0.335 N
ATOM      3  H2  UNL     1      18.615  17.793   6.177  1.00  0.00     0.168 HD
HETATM    4  C3  UNL     1      17.173  18.494   4.917  1.00  0.00     0.053 A
HETATM    5  C4  UNL     1      17.434  17.724   3.766  1.00  0.00     0.034 A
HETATM    6  C5  UNL     1      16.661  17.890   2.648  1.00  0.00     0.047 A
HETATM    7  C6  UNL     1      15.614  18.779   2.549  1.00  0.00     0.144 A
HETATM    8  F1  UNL     1      14.840  18.962   1.468  1.00  0.00    -0.204 F
HETATM    9  C7  UNL     1      15.362  19.531   3.673  1.00  0.00     0.089 A
HETATM   10  C22 UNL     1      16.139  19.378   4.829  1.00  0.00     0.064 A
HETATM   11  S1  UNL     1      16.141  20.097   6.375  1.00  0.00    -0.049 SA
ENDROOT
BRANCH   9  12
HETATM   12  N3  UNL     1      14.323  20.490   3.762  1.00  0.00    -0.377 N
HETATM   13  C8  UNL     1      13.011  20.006   4.155  1.00  0.00     0.123 C
HETATM   14  C9  UNL     1      12.024  21.134   4.208  1.00  0.00     0.024 C
HETATM   15  C10 UNL     1      12.617  22.259   5.030  1.00  0.00    -0.010 C
HETATM   16  C20 UNL     1      13.871  22.821   4.449  1.00  0.00     0.024 C
HETATM   17  C21 UNL     1      14.549  21.893   3.475  1.00  0.00     0.123 C
BRANCH  15  18
HETATM   18  C11 UNL     1      12.715  21.792   6.444  1.00  0.00     0.035 C
BRANCH  18  19
HETATM   19  C12 UNL     1      12.033  22.680   7.449  1.00  0.00     0.273 C
BRANCH  19  20
HETATM   20  N4  UNL     1      11.239  23.728   6.891  1.00  0.00     0.091 N
HETATM   21  C13 UNL     1       9.825  23.574   7.018  1.00  0.00     0.302 C
HETATM   22  C14 UNL     1       9.208  24.957   7.191  1.00  0.00     0.303 C
HETATM   23  N5  UNL     1       9.523  25.497   8.477  1.00  0.00     0.096 N
HETATM   24  C18 UNL     1      10.889  25.155   8.808  1.00  0.00     0.303 C
HETATM   25  C19 UNL     1      11.646  24.972   7.514  1.00  0.00     0.302 C
BRANCH  23  26
HETATM   26  C15 UNL     1       9.277  26.898   8.612  1.00  0.00     0.223 A
HETATM   27  C16 UNL     1       8.289  27.575   7.735  1.00  0.00     0.038 A
HETATM   28  C17 UNL     1       8.038  27.447   9.221  1.00  0.00     0.038 A
ENDBRANCH  23  26
ENDBRANCH  19  20
ENDBRANCH  18  19
ENDBRANCH  15  18
ENDBRANCH   9  12
BRANCH   1  29
HETATM   29  N1  UNL     1      17.972  19.331   8.257  1.00  0.00    -0.289 N
HETATM   30  C1  UNL     1      18.400  18.151   8.923  1.00  0.00     0.322 C
HETATM   31  O1  UNL     1      19.604  17.778   8.793  1.00  0.00    -0.247 OA
HETATM   32  N6  UNL     1      17.546  17.370   9.726  1.00  0.00    -0.338 N
ATOM     33  H6  UNL     1      16.574  17.652   9.849  1.00  0.00     0.164 HD
ATOM     34  H1  UNL     1      18.066  20.241   8.709  1.00  0.00     0.172 HD
BRANCH  32  35
HETATM   35  C23 UNL     1      18.027  16.184  10.375  1.00  0.00     0.086 A
HETATM   36  C24 UNL     1      17.812  14.844   9.743  1.00  0.00     0.027 A
HETATM   37  C25 UNL     1      16.972  15.194  10.897  1.00  0.00     0.027 A
ENDBRANCH  32  35
ENDBRANCH   1  29
TORSDOF 7
ENDMDL