MODEL 4
REMARK VINA RESULT: -9.728549860      1.519      4.204
REMARK  6 active torsions:
REMARK  status: ('A' for Active; 'I' for Inactive)
REMARK    1  A    between atoms: C3_4  and  N2_5
REMARK    2  A    between atoms: C5_7  and  C6_8
REMARK    3  A    between atoms: C9_13  and  C10_14
REMARK    4  A    between atoms: N4_17  and  C13_18
REMARK       I    between atoms: N6_29  and  C22_31
REMARK       I    between atoms: C22_31  and  N7_33
REMARK    5  A    between atoms: N7_33  and  C23_34
REMARK    6  A    between atoms: C23_34  and  C24_35
ROOT
HETATM    1  N1  UNL     1      11.441  19.998   6.027  1.00  0.00    -0.191 NA
HETATM    2  C1  UNL     1      11.761  21.046   5.688  1.00  0.00     0.105 C
HETATM    3  C2  UNL     1      12.180  22.360   5.325  1.00  0.00     0.116 A
HETATM    4  C3  UNL     1      13.434  22.646   4.855  1.00  0.00     0.066 A
HETATM    5  C19 UNL     1      13.881  23.834   4.559  1.00  0.00     0.049 A
HETATM    6  C20 UNL     1      13.002  24.920   4.722  1.00  0.00     0.092 A
HETATM    7  N5  UNL     1      11.759  24.657   5.178  1.00  0.00    -0.351 N
ATOM      8  H5  UNL     1      11.123  25.446   5.293  1.00  0.00     0.166 HD
HETATM    9  C21 UNL     1      11.284  23.403   5.500  1.00  0.00     0.133 A
HETATM   10  N6  UNL     1      10.037  23.141   5.801  1.00  0.00    -0.281 N
ATOM     11  H6  UNL     1       9.604  22.226   5.923  1.00  0.00     0.173 HD
HETATM   12  C22 UNL     1       9.354  24.554   5.931  1.00  0.00     0.394 C
HETATM   13  O1  UNL     1       8.709  24.825   4.976  1.00  0.00    -0.230 OA
HETATM   14  N7  UNL     1       9.756  25.005   7.148  1.00  0.00    -0.396 NA
ENDROOT
BRANCH   4  15
HETATM   15  N2  UNL     1      14.287  21.470   4.808  1.00  0.00    -0.308 N
HETATM   16  C4  UNL     1      14.422  20.721   3.721  1.00  0.00     0.124 A
HETATM   17  C5  UNL     1      15.255  19.676   4.062  1.00  0.00     0.030 A
HETATM   18  N3  UNL     1      15.587  19.850   5.328  1.00  0.00    -0.347 N
HETATM   19  C9  UNL     1      14.971  20.975   5.803  1.00  0.00     0.092 A
ATOM     20  H3  UNL     1      16.204  19.242   5.866  1.00  0.00     0.167 HD
BRANCH  17  21
HETATM   21  C6  UNL     1      15.623  18.585   3.116  1.00  0.00     0.037 A
HETATM   22  C7  UNL     1      16.466  17.466   3.678  1.00  0.00     0.011 A
HETATM   23  C8  UNL     1      17.093  18.431   2.768  1.00  0.00     0.011 A
ENDBRANCH  17  21
BRANCH  19  24
HETATM   24  C10 UNL     1      15.100  21.333   7.236  1.00  0.00     0.057 C
HETATM   25  C11 UNL     1      16.348  21.993   7.665  1.00  0.00     0.042 C
HETATM   26  C12 UNL     1      17.330  21.048   8.328  1.00  0.00     0.273 C
HETATM   27  N4  UNL     1      16.751  20.379   9.490  1.00  0.00     0.093 N
HETATM   28  C17 UNL     1      15.337  20.405   9.496  1.00  0.00     0.273 C
HETATM   29  C18 UNL     1      14.823  20.116   8.126  1.00  0.00     0.042 C
BRANCH  27  30
HETATM   30  C13 UNL     1      17.282  19.028   9.428  1.00  0.00     0.223 C
HETATM   31  C14 UNL     1      16.949  18.063  10.484  1.00  0.00     0.036 C
HETATM   32  C15 UNL     1      18.312  18.234  11.095  1.00  0.00     0.004 C
HETATM   33  C16 UNL     1      18.753  18.980   9.880  1.00  0.00     0.036 C
ENDBRANCH  27  30
ENDBRANCH  19  24
ENDBRANCH   4  15
BRANCH  14  34
HETATM   34  C23 UNL     1      10.146  25.480   8.363  1.00  0.00     0.231 C
BRANCH  34  35
HETATM   35  C24 UNL     1       8.823  26.142   8.905  1.00  0.00     0.053 A
HETATM   36  C25 UNL     1       8.172  27.251   9.492  1.00  0.00     0.048 A
HETATM   37  C26 UNL     1       8.990  27.675   8.415  1.00  0.00     0.177 A
HETATM   38  F1  UNL     1       8.569  27.945   7.164  1.00  0.00    -0.249 F
ENDBRANCH  34  35
ENDBRANCH  14  34
TORSDOF 6
ENDMDL