MODEL 3
REMARK VINA RESULT: -10.551624926      4.508     10.936
REMARK  7 active torsions:
REMARK  status: ('A' for Active; 'I' for Inactive)
REMARK    1  A    between atoms: C3_4  and  C4_5
REMARK    2  A    between atoms: N1_8  and  C7_9
REMARK    3  A    between atoms: N2_12  and  C10_13
REMARK    4  A    between atoms: C10_13  and  C11_14
REMARK    5  A    between atoms: C12_17  and  N4_18
REMARK    6  A    between atoms: N4_18  and  C13_20
REMARK    7  A    between atoms: C13_20  and  C14_21
ROOT
HETATM    1  C7  UNL     1      11.806  22.556   5.323  1.00  0.00     0.226 C
HETATM    2  C8  UNL     1      12.311  23.911   5.020  1.00  0.00     0.055 C
HETATM    3  C9  UNL     1      12.081  24.915   6.182  1.00  0.00     0.124 C
HETATM    4  N2  UNL     1      10.807  24.793   6.701  1.00  0.00    -0.388 N
HETATM    5  C22 UNL     1      10.275  23.487   6.944  1.00  0.00     0.124 C
HETATM    6  C23 UNL     1      11.401  22.441   6.766  1.00  0.00     0.055 C
ENDROOT
BRANCH   4   7
HETATM    7  C10 UNL     1      10.228  25.817   7.451  1.00  0.00     0.117 C
BRANCH   7   8
HETATM    8  C11 UNL     1       9.028  26.361   6.750  1.00  0.00     0.087 A
HETATM    9  N3  UNL     1       8.928  26.451   5.382  1.00  0.00    -0.189 N
HETATM   10  C12 UNL     1       7.895  27.115   4.829  1.00  0.00     0.678 A
ATOM     11  H3  UNL     1       9.633  26.016   4.787  1.00  0.00     0.184 HD
HETATM   12  N5  UNL     1       7.003  27.648   5.666  1.00  0.00    -0.200 N
HETATM   13  C20 UNL     1       7.044  27.597   7.009  1.00  0.00     0.132 A
ATOM     14  H5  UNL     1       6.214  28.141   5.247  1.00  0.00     0.183 HD
HETATM   15  C21 UNL     1       8.088  26.938   7.567  1.00  0.00     0.078 A
HETATM   16 CL1  UNL     1       8.182  26.776   9.318  1.00  0.00    -0.080 Cl
BRANCH  10  17
HETATM   17  N4  UNL     1       7.870  27.348   3.557  1.00  0.00    -0.226 N
ATOM     18  H4  UNL     1       7.932  28.327   3.277  1.00  0.00     0.177 HD
BRANCH  17  19
HETATM   19  C13 UNL     1       7.766  26.402   2.509  1.00  0.00     0.142 C
BRANCH  19  20
HETATM   20  C14 UNL     1       8.164  25.002   2.877  1.00  0.00     0.004 C
HETATM   21  C15 UNL     1       7.111  24.065   2.243  1.00  0.00     0.006 C
HETATM   22  C16 UNL     1       7.424  22.655   2.519  1.00  0.00     0.000 C
HETATM   23  C17 UNL     1       8.789  22.330   2.999  1.00  0.00     0.000 C
HETATM   24  C18 UNL     1       9.839  23.160   2.339  1.00  0.00     0.000 C
HETATM   25  C19 UNL     1       9.467  24.608   2.267  1.00  0.00     0.006 C
ENDBRANCH  19  20
ENDBRANCH  17  19
ENDBRANCH  10  17
ENDBRANCH   7   8
ENDBRANCH   4   7
BRANCH   1  26
HETATM   26  N1  UNL     1      12.785  21.578   4.956  1.00  0.00     0.093 N
HETATM   27  C6  UNL     1      12.391  20.740   3.837  1.00  0.00     0.273 C
HETATM   28  C5  UNL     1      13.647  20.193   3.270  1.00  0.00     0.039 C
HETATM   29  C4  UNL     1      14.288  19.278   4.366  1.00  0.00     0.022 C
HETATM   30  C25 UNL     1      14.561  20.109   5.543  1.00  0.00     0.039 C
HETATM   31  C24 UNL     1      13.293  20.811   6.052  1.00  0.00     0.273 C
BRANCH  29  32
HETATM   32  C3  UNL     1      15.524  18.740   3.735  1.00  0.00    -0.047 A
HETATM   33  C2  UNL     1      16.565  18.430   4.624  1.00  0.00     0.081 A
HETATM   34  C1  UNL     1      17.736  17.851   4.137  1.00  0.00     0.245 A
HETATM   35  O1  UNL     1      18.683  17.562   4.902  1.00  0.00    -0.268 OA
HETATM   36  N6  UNL     1      17.862  17.593   2.827  1.00  0.00    -0.334 N
HETATM   37  C27 UNL     1      16.861  17.888   1.958  1.00  0.00     0.092 A
ATOM     38  H6  UNL     1      18.721  17.169   2.478  1.00  0.00     0.168 HD
HETATM   39  C26 UNL     1      15.700  18.461   2.424  1.00  0.00     0.025 A
ENDBRANCH  29  32
ENDBRANCH   1  26
TORSDOF 7
ENDMDL