MODEL 3
REMARK VINA RESULT: -8.545307707      5.485      9.386
REMARK  6 active torsions:
REMARK  status: ('A' for Active; 'I' for Inactive)
REMARK    1  A    between atoms: C1_2  and  C2_4
REMARK    2  A    between atoms: C3_5  and  C4_6
REMARK    3  A    between atoms: N3_15  and  C9_17
REMARK    4  A    between atoms: C9_17  and  C10_18
REMARK    5  A    between atoms: C10_18  and  C11_19
REMARK    6  A    between atoms: C11_19  and  N4_20
ROOT
HETATM    1  C2  UNL     1      15.324  20.791   7.265  1.00  0.00     0.064 A
HETATM    2  C3  UNL     1      16.571  20.312   7.076  1.00  0.00     0.067 A
HETATM    3  N2  UNL     1      16.878  19.716   5.879  1.00  0.00    -0.340 N
ATOM      4  H2  UNL     1      17.823  19.358   5.740  1.00  0.00     0.167 HD
HETATM    5  C8  UNL     1      15.988  19.585   4.885  1.00  0.00     0.108 A
HETATM    6  N3  UNL     1      16.253  19.027   3.761  1.00  0.00    -0.376 N
ATOM      7  H3  UNL     1      15.489  18.989   3.086  1.00  0.00     0.161 HD
HETATM    8  C16 UNL     1      14.707  20.065   5.064  1.00  0.00    -0.007 A
HETATM    9  C17 UNL     1      14.345  20.673   6.243  1.00  0.00    -0.030 A
HETATM   10  C18 UNL     1      13.092  21.280   6.718  1.00  0.00     0.040 C
HETATM   11  C19 UNL     1      12.125  21.556   5.590  1.00  0.00     0.005 C
HETATM   12  C20 UNL     1      12.932  22.108   4.431  1.00  0.00     0.001 C
HETATM   13  C21 UNL     1      13.053  20.999   3.426  1.00  0.00     0.005 C
HETATM   14  C22 UNL     1      13.857  19.829   3.866  1.00  0.00     0.043 C
ENDROOT
BRANCH   6  15
HETATM   15  C9  UNL     1      17.477  18.461   3.350  1.00  0.00     0.123 C
BRANCH  15  16
HETATM   16  C10 UNL     1      17.369  16.931   3.288  1.00  0.00     0.050 C
BRANCH  16  17
HETATM   17  C11 UNL     1      17.408  16.341   4.674  1.00  0.00     0.274 C
BRANCH  17  18
HETATM   18  N4  UNL     1      18.744  16.436   5.211  1.00  0.00     0.092 N
HETATM   19  C12 UNL     1      18.696  16.879   6.584  1.00  0.00     0.298 C
HETATM   20  C13 UNL     1      19.224  15.779   7.494  1.00  0.00     0.198 C
HETATM   21  O2  UNL     1      18.668  14.550   7.177  1.00  0.00    -0.388 OA
HETATM   22  C14 UNL     1      18.857  14.135   5.883  1.00  0.00     0.198 C
HETATM   23  C15 UNL     1      19.459  15.214   5.014  1.00  0.00     0.298 C
ENDBRANCH  17  18
ENDBRANCH  16  17
ENDBRANCH  15  16
ENDBRANCH   6  15
BRANCH   2  24
HETATM   24  C4  UNL     1      17.589  20.266   8.116  1.00  0.00     0.034 A
HETATM   25  C5  UNL     1      18.693  21.088   8.248  1.00  0.00     0.023 A
HETATM   26  C6  UNL     1      19.496  20.865   9.296  1.00  0.00     0.028 A
HETATM   27  C7  UNL     1      19.180  19.856  10.152  1.00  0.00     0.052 A
HETATM   28 BR1  UNL     1      20.130  19.301  11.734  1.00  0.00    -0.043 Br
HETATM   29  S1  UNL     1      17.753  19.237   9.467  1.00  0.00    -0.081 SA
ENDBRANCH   2  24
BRANCH   1  30
HETATM   30  C1  UNL     1      14.981  21.548   8.456  1.00  0.00     0.267 C
HETATM   31  N1  UNL     1      14.303  20.821   9.507  1.00  0.00    -0.057 NA
HETATM   32  O1  UNL     1      15.238  22.768   8.633  1.00  0.00    -0.271 OA
ENDBRANCH   1  30
TORSDOF 6
ENDMDL