MODEL 2
REMARK VINA RESULT: -9.591371553      1.617      1.900
REMARK  12 active torsions:
REMARK  status: ('A' for Active; 'I' for Inactive)
REMARK    1  A    between atoms: C2_5  and  C3_6
REMARK    2  A    between atoms: C2_5  and  N9_24
REMARK    3  A    between atoms: C3_6  and  C4_7
REMARK    4  A    between atoms: C6_13  and  N5_14
REMARK    5  A    between atoms: N9_24  and  N10_26
REMARK    6  A    between atoms: N11_28  and  C8_30
REMARK    7  A    between atoms: C9_31  and  O2_32
REMARK    8  A    between atoms: C10_35  and  C11_36
REMARK    9  A    between atoms: C11_36  and  O4_37
REMARK   10  A    between atoms: C11_36  and  C12_39
REMARK   11  A    between atoms: C12_39  and  O5_40
REMARK   12  A    between atoms: C13_42  and  O6_43
ROOT
HETATM    1  N1  UNL     1      35.514  -0.517 -13.622  1.00  0.00    -0.172 NA
HETATM    2  C1  UNL     1      34.599   0.209 -13.625  1.00  0.00     0.183 C
HETATM    3  N2  UNL     1      33.509   1.087 -13.645  1.00  0.00    -0.281 N
ATOM      4  H2  UNL     1      32.575   0.709 -13.490  1.00  0.00     0.179 HD
HETATM    5  C2  UNL     1      33.634   2.347 -13.848  1.00  0.00     0.113 C
ENDROOT
BRANCH   5   6
HETATM    6  C3  UNL     1      34.962   2.928 -14.074  1.00  0.00     0.157 C
BRANCH   6   7
HETATM    7  C4  UNL     1      35.283   3.002 -15.528  1.00  0.00     0.120 A
HETATM    8  N3  UNL     1      34.719   3.776 -16.473  1.00  0.00    -0.176 N
HETATM    9  C5  UNL     1      35.304   3.535 -17.670  1.00  0.00     0.724 A
ATOM     10  H3  UNL     1      33.965   4.443 -16.312  1.00  0.00     0.185 HD
HETATM   11  N4  UNL     1      35.131   4.020 -18.918  1.00  0.00    -0.020 N
HETATM   12  N7  UNL     1      36.247   2.595 -17.466  1.00  0.00    -0.029 N
HETATM   13  C6  UNL     1      35.864   3.601 -19.962  1.00  0.00     0.694 A
ATOM     14  H4  UNL     1      34.417   4.731 -19.074  1.00  0.00     0.203 HD
HETATM   15  N6  UNL     1      36.794   2.662 -19.716  1.00  0.00    -0.139 N
HETATM   16  C7  UNL     1      36.992   2.160 -18.490  1.00  0.00     0.374 A
ATOM     17  H6  UNL     1      37.368   2.322 -20.487  1.00  0.00     0.189 HD
HETATM   18  O1  UNL     1      37.863   1.285 -18.281  1.00  0.00    -0.244 OA
HETATM   19  N8  UNL     1      36.224   2.279 -16.161  1.00  0.00    -0.263 N
ATOM     20  H8  UNL     1      36.831   1.592 -15.715  1.00  0.00     0.189 HD
BRANCH  13  21
HETATM   21  N5  UNL     1      35.721   4.046 -21.165  1.00  0.00    -0.234 N
ATOM     22  H52 UNL     1      35.852   3.408 -21.950  1.00  0.00     0.174 HD
ATOM     23  H51 UNL     1      35.481   5.012 -21.389  1.00  0.00     0.174 HD
ENDBRANCH  13  21
ENDBRANCH   6   7
ENDBRANCH   5   6
BRANCH   5  24
HETATM   24  N9  UNL     1      32.487   3.172 -13.854  1.00  0.00    -0.274 N
ATOM     25  H9  UNL     1      32.232   3.659 -12.995  1.00  0.00     0.190 HD
BRANCH  24  26
HETATM   26  N10 UNL     1      31.691   3.350 -14.983  1.00  0.00    -0.241 N
HETATM   27  N11 UNL     1      30.957   4.392 -15.032  1.00  0.00    -0.279 N
ATOM     28  H11 UNL     1      30.372   4.524 -15.858  1.00  0.00     0.189 HD
ATOM     29  H10 UNL     1      31.695   2.670 -15.743  1.00  0.00     0.208 HD
BRANCH  27  30
HETATM   30  C8  UNL     1      30.900   5.370 -14.024  1.00  0.00     0.143 A
HETATM   31  C9  UNL     1      30.544   5.227 -12.699  1.00  0.00     0.215 A
HETATM   32  O3  UNL     1      30.626   6.387 -12.105  1.00  0.00    -0.285 OA
HETATM   33  C10 UNL     1      31.021   7.319 -12.953  1.00  0.00     0.122 A
HETATM   34  C13 UNL     1      31.203   6.710 -14.172  1.00  0.00     0.131 A
BRANCH  31  35
HETATM   35  O2  UNL     1      30.160   4.005 -12.127  1.00  0.00    -0.339 OA
ATOM     36  H2  UNL     1      29.285   3.830 -11.801  1.00  0.00     0.220 HD
ENDBRANCH  31  35
BRANCH  33  37
HETATM   37  C11 UNL     1      31.222   8.749 -12.622  1.00  0.00     0.201 C
BRANCH  37  38
HETATM   38  O4  UNL     1      31.911   8.864 -11.403  1.00  0.00    -0.387 OA
ATOM     39  H4  UNL     1      32.695   9.387 -11.523  1.00  0.00     0.210 HD
ENDBRANCH  37  38
BRANCH  37  40
HETATM   40  C12 UNL     1      29.889   9.456 -12.423  1.00  0.00     0.202 C
BRANCH  40  41
HETATM   41  O5  UNL     1      28.849   8.535 -12.363  1.00  0.00    -0.398 OA
ATOM     42  H5  UNL     1      28.360   8.529 -13.178  1.00  0.00     0.209 HD
ENDBRANCH  40  41
ENDBRANCH  37  40
ENDBRANCH  33  37
BRANCH  34  43
HETATM   43  O6  UNL     1      31.619   7.384 -15.312  1.00  0.00    -0.356 OA
ATOM     44  H6  UNL     1      31.116   7.958 -15.879  1.00  0.00     0.218 HD
ENDBRANCH  34  43
ENDBRANCH  27  30
ENDBRANCH  24  26
ENDBRANCH   5  24
TORSDOF 12
ENDMDL