MODEL 2
REMARK VINA RESULT: -9.586996062      5.663      7.647
REMARK  8 active torsions:
REMARK  status: ('A' for Active; 'I' for Inactive)
REMARK    1  A    between atoms: C2_2  and  O1_3
REMARK    2  A    between atoms: C2_2  and  C12_34
REMARK    3  A    between atoms: O1_3  and  N1_4
REMARK    4  A    between atoms: C3_5  and  C4_6
REMARK    5  A    between atoms: N4_11  and  N5_12
REMARK    6  A    between atoms: N5_12  and  C5_14
REMARK    7  A    between atoms: C6_19  and  C7_20
REMARK    8  A    between atoms: C13_40  and  N15_41
ROOT
HETATM    1  C4  UNL     1      36.461   2.549 -18.549  1.00  0.00     0.141 A
HETATM    2  N2  UNL     1      37.124   3.434 -19.313  1.00  0.00    -0.278 N
ATOM      3  H2  UNL     1      38.112   3.670 -19.224  1.00  0.00     0.189 HD
HETATM    4  N3  UNL     1      36.291   3.948 -20.196  1.00  0.00    -0.219 N
ATOM      5  H3  UNL     1      36.533   4.645 -20.900  1.00  0.00     0.210 HD
HETATM    6  N4  UNL     1      35.084   3.411 -20.023  1.00  0.00    -0.162 N
HETATM    7  C8  UNL     1      35.160   2.536 -19.004  1.00  0.00     0.189 A
HETATM    8  N10 UNL     1      34.144   1.730 -18.457  1.00  0.00    -0.076 NA
ENDROOT
BRANCH   1   9
HETATM    9  C3  UNL     1      37.007   1.761 -17.462  1.00  0.00     0.173 C
HETATM   10  N1  UNL     1      36.585   1.809 -16.074  1.00  0.00    -0.211 N
HETATM   11  C9  UNL     1      37.251   0.743 -15.433  1.00  0.00     0.143 C
HETATM   12  N12 UNL     1      38.271   0.305 -16.404  1.00  0.00    -0.106 NA
HETATM   13  C10 UNL     1      36.390  -0.489 -15.203  1.00  0.00     0.062 C
HETATM   14  C11 UNL     1      38.001   1.067 -14.181  1.00  0.00     0.062 C
HETATM   15  N11 UNL     1      37.945   0.911 -17.591  1.00  0.00    -0.283 N
ATOM     16  H11 UNL     1      38.404   0.703 -18.479  1.00  0.00     0.184 HD
BRANCH  10  17
HETATM   17  O1  UNL     1      35.736   2.723 -15.651  1.00  0.00    -0.263 OA
BRANCH  17  18
HETATM   18  C2  UNL     1      34.689   2.334 -14.870  1.00  0.00     0.204 C
HETATM   19  C1  UNL     1      34.869   2.834 -13.421  1.00  0.00     0.049 C
BRANCH  18  20
HETATM   20  C12 UNL     1      33.431   2.908 -15.367  1.00  0.00     0.110 A
HETATM   21  N13 UNL     1      32.202   2.450 -15.005  1.00  0.00    -0.239 N
HETATM   22  O3  UNL     1      31.280   3.119 -15.595  1.00  0.00    -0.155 OA
ATOM     23  H13 UNL     1      32.037   1.682 -14.356  1.00  0.00     0.196 HD
HETATM   24  N14 UNL     1      31.828   4.017 -16.346  1.00  0.00    -0.224 N
HETATM   25  C13 UNL     1      33.164   3.930 -16.242  1.00  0.00     0.148 A
ATOM     26  H14 UNL     1      31.325   4.686 -16.928  1.00  0.00     0.198 HD
BRANCH  25  27
HETATM   27  N15 UNL     1      34.024   4.661 -16.830  1.00  0.00    -0.382 N
ATOM     28 2H15 UNL     1      34.774   5.195 -16.391  1.00  0.00     0.157 HD
ATOM     29 1H15 UNL     1      34.099   4.813 -17.835  1.00  0.00     0.157 HD
ENDBRANCH  25  27
ENDBRANCH  18  20
ENDBRANCH  17  18
ENDBRANCH  10  17
ENDBRANCH   1   9
BRANCH   6  30
HETATM   30  N5  UNL     1      33.921   3.668 -20.737  1.00  0.00    -0.239 N
ATOM     31  H5  UNL     1      33.503   2.957 -21.337  1.00  0.00     0.193 HD
BRANCH  30  32
HETATM   32  C5  UNL     1      33.379   4.855 -20.613  1.00  0.00     0.262 A
HETATM   33  N6  UNL     1      32.997   5.682 -21.601  1.00  0.00    -0.262 N
HETATM   34  N7  UNL     1      32.503   6.769 -21.038  1.00  0.00    -0.274 N
ATOM     35  H6  UNL     1      33.076   5.503 -22.601  1.00  0.00     0.190 HD
HETATM   36  C6  UNL     1      32.564   6.644 -19.678  1.00  0.00     0.207 A
ATOM     37  H7  UNL     1      32.132   7.576 -21.540  1.00  0.00     0.189 HD
HETATM   38  O2  UNL     1      33.102   5.469 -19.492  1.00  0.00    -0.255 OA
BRANCH  36  39
HETATM   39  C7  UNL     1      32.118   7.628 -18.714  1.00  0.00     0.163 C
HETATM   40  N8  UNL     1      31.201   8.461 -19.019  1.00  0.00    -0.384 N
ATOM     41  H82 UNL     1      30.781   8.435 -19.949  1.00  0.00     0.157 HD
ATOM     42  H81 UNL     1      30.887   9.155 -18.341  1.00  0.00     0.157 HD
HETATM   43  N9  UNL     1      32.697   7.664 -17.431  1.00  0.00    -0.079 NA
ENDBRANCH  36  39
ENDBRANCH  30  32
ENDBRANCH   6  30
TORSDOF 8
ENDMDL