MODEL 2
REMARK VINA RESULT: -8.491036544      1.316      1.477
REMARK  11 active torsions:
REMARK  status: ('A' for Active; 'I' for Inactive)
REMARK    1  A    between atoms: O1_2  and  C2_3
REMARK    2  A    between atoms: C2_3  and  C3_5
REMARK    3  A    between atoms: C4_8  and  C5_9
REMARK    4  A    between atoms: C5_9  and  N2_10
REMARK    5  A    between atoms: N2_10  and  C6_12
REMARK    6  A    between atoms: C8_21  and  C9_22
REMARK    7  A    between atoms: C9_22  and  N8_23
REMARK    8  A    between atoms: C12_30  and  N11_31
REMARK    9  A    between atoms: N12_34  and  N13_35
REMARK   10  A    between atoms: N14_39  and  N15_40
REMARK   11  A    between atoms: N15_40  and  N16_41
ROOT
HETATM    1  C9  UNL     1      34.074   4.093 -16.778  1.00  0.00     0.151 C
ENDROOT
BRANCH   1   2
HETATM    2  C8  UNL     1      34.181   3.153 -15.672  1.00  0.00     0.086 A
HETATM    3  C3  UNL     1      33.061   2.940 -14.843  1.00  0.00     0.138 A
HETATM    4  N1  UNL     1      33.407   2.032 -13.912  1.00  0.00    -0.338 N
HETATM    5  C4  UNL     1      34.673   1.655 -14.095  1.00  0.00     0.102 A
ATOM      6  H1  UNL     1      32.793   1.685 -13.176  1.00  0.00     0.167 HD
HETATM    7  N7  UNL     1      35.122   2.358 -15.182  1.00  0.00    -0.336 N
HETATM    8  C7  UNL     1      36.446   2.204 -15.706  1.00  0.00     0.158 C
BRANCH   3   9
HETATM    9  C2  UNL     1      31.738   3.545 -14.923  1.00  0.00     0.312 C
HETATM   10  O2  UNL     1      30.789   3.041 -15.552  1.00  0.00    -0.258 OA
BRANCH   9  11
HETATM   11  O1  UNL     1      31.466   4.758 -14.279  1.00  0.00    -0.321 OA
HETATM   12  C1  UNL     1      30.646   4.808 -13.124  1.00  0.00     0.213 C
ENDBRANCH   9  11
ENDBRANCH   3   9
BRANCH   5  13
HETATM   13  C5  UNL     1      35.450   0.669 -13.287  1.00  0.00     0.214 C
BRANCH  13  14
HETATM   14  N2  UNL     1      35.774   1.168 -11.986  1.00  0.00    -0.217 N
ATOM     15  H2  UNL     1      35.697   2.167 -11.796  1.00  0.00     0.178 HD
BRANCH  14  16
HETATM   16  C6  UNL     1      36.159   0.375 -11.058  1.00  0.00     0.704 A
HETATM   17  N3  UNL     1      37.008  -0.648 -11.216  1.00  0.00    -0.117 N
HETATM   18  N4  UNL     1      37.194  -1.263 -10.061  1.00  0.00     0.006 NA
ATOM     19  H3  UNL     1      37.447  -0.914 -12.098  1.00  0.00     0.202 HD
HETATM   20  N5  UNL     1      36.451  -0.607  -9.188  1.00  0.00     0.006 NA
HETATM   21  N6  UNL     1      35.808   0.395  -9.761  1.00  0.00    -0.117 N
ATOM     22  H6  UNL     1      35.173   1.053  -9.310  1.00  0.00     0.202 HD
ENDBRANCH  14  16
ENDBRANCH  13  14
ENDBRANCH   5  13
ENDBRANCH   1   2
BRANCH   1  23
HETATM   23  N8  UNL     1      33.865   3.645 -18.087  1.00  0.00    -0.239 N
HETATM   24  C10 UNL     1      32.594   3.185 -18.511  1.00  0.00     0.209 A
HETATM   25  N9  UNL     1      32.366   2.764 -19.703  1.00  0.00    -0.333 N
HETATM   26  C11 UNL     1      33.353   2.713 -20.719  1.00  0.00     0.172 A
ATOM     27  H9  UNL     1      31.423   2.449 -19.931  1.00  0.00     0.168 HD
HETATM   28  N10 UNL     1      33.354   2.323 -22.005  1.00  0.00    -0.171 N
HETATM   29  C13 UNL     1      34.633   3.154 -20.367  1.00  0.00     0.227 A
HETATM   30  C12 UNL     1      34.592   2.498 -22.494  1.00  0.00     0.700 A
ATOM     31  H10 UNL     1      32.553   1.958 -22.520  1.00  0.00     0.186 HD
HETATM   32  N12 UNL     1      35.354   2.999 -21.498  1.00  0.00    -0.070 N
HETATM   33  N14 UNL     1      34.888   3.621 -19.048  1.00  0.00    -0.150 N
BRANCH  30  34
HETATM   34  N11 UNL     1      34.945   2.226 -23.698  1.00  0.00    -0.233 N
ATOM     35 2H11 UNL     1      34.971   1.313 -24.153  1.00  0.00     0.174 HD
ATOM     36 1H11 UNL     1      35.258   2.917 -24.380  1.00  0.00     0.174 HD
ENDBRANCH  30  34
BRANCH  32  37
HETATM   37  N13 UNL     1      36.701   3.307 -21.643  1.00  0.00    -0.322 N
ATOM     38 2H13 UNL     1      37.075   4.097 -22.170  1.00  0.00     0.178 HD
ATOM     39 1H13 UNL     1      37.452   2.756 -21.227  1.00  0.00     0.178 HD
ENDBRANCH  32  37
BRANCH  33  40
HETATM   40  N15 UNL     1      36.188   4.046 -18.761  1.00  0.00    -0.004 NA
BRANCH  40  41
HETATM   41  N16 UNL     1      36.415   5.372 -19.067  1.00  0.00    -0.327 N
ATOM     42 2H16 UNL     1      36.493   5.705 -20.028  1.00  0.00     0.174 HD
ATOM     43 1H16 UNL     1      36.493   5.972 -18.246  1.00  0.00     0.174 HD
ENDBRANCH  40  41
ENDBRANCH  33  40
ENDBRANCH   1  23
TORSDOF 11
ENDMDL