MODEL 4
REMARK VINA RESULT: -8.461938682      3.854      5.676
REMARK  9 active torsions:
REMARK  status: ('A' for Active; 'I' for Inactive)
REMARK    1  A    between atoms: N1_2  and  C2_3
REMARK    2  A    between atoms: N1_2  and  C11_36
REMARK    3  A    between atoms: C3_6  and  N3_7
REMARK    4  A    between atoms: N4_9  and  N5_11
REMARK       I    between atoms: N5_11  and  C4_13
REMARK       I    between atoms: C4_13  and  N7_17
REMARK    5  A    between atoms: N7_17  and  N8_19
REMARK       I    between atoms: N8_19  and  C5_21
REMARK    6  A    between atoms: C7_27  and  C8_28
REMARK    7  A    between atoms: C8_28  and  O2_29
REMARK    8  A    between atoms: N16_43  and  C12_44
REMARK    9  A    between atoms: C12_44  and  N17_45
ROOT
HETATM    1  C2  UNL     1      33.548   6.896 -21.685  1.00  0.00     0.169 A
HETATM    2  N2  UNL     1      34.436   6.456 -20.782  1.00  0.00    -0.172 N
ATOM      3  H2  UNL     1      34.709   7.069 -20.014  1.00  0.00     0.186 HD
HETATM    4  C3  UNL     1      34.980   5.214 -20.863  1.00  0.00     0.700 A
HETATM    5  N10 UNL     1      34.620   4.406 -21.875  1.00  0.00    -0.186 N
ATOM      6  H10 UNL     1      35.035   3.476 -21.927  1.00  0.00     0.184 HD
HETATM    7  C6  UNL     1      33.733   4.773 -22.827  1.00  0.00     0.107 A
HETATM    8  C7  UNL     1      33.202   4.158 -23.940  1.00  0.00     0.081 A
HETATM    9  N11 UNL     1      32.362   5.049 -24.484  1.00  0.00    -0.296 N
HETATM   10  C9  UNL     1      31.557   4.891 -25.668  1.00  0.00     0.177 C
HETATM   11  N12 UNL     1      32.369   6.170 -23.742  1.00  0.00    -0.293 N
ATOM     12  H12 UNL     1      31.813   7.000 -23.945  1.00  0.00     0.187 HD
HETATM   13  C10 UNL     1      33.195   6.052 -22.712  1.00  0.00     0.123 A
ENDROOT
BRANCH   4  14
HETATM   14  N3  UNL     1      35.920   4.716 -19.922  1.00  0.00    -0.117 N
HETATM   15  N4  UNL     1      35.734   4.606 -18.692  1.00  0.00    -0.214 N
ATOM     16  H4  UNL     1      36.498   4.230 -18.130  1.00  0.00     0.209 HD
ATOM     17  H3  UNL     1      36.828   4.423 -20.283  1.00  0.00     0.207 HD
BRANCH  15  18
HETATM   18  N5  UNL     1      34.565   4.956 -18.034  1.00  0.00    -0.116 N
HETATM   19  C4  UNL     1      33.870   3.990 -17.274  1.00  0.00     0.706 C
HETATM   20  N6  UNL     1      33.091   4.333 -16.340  1.00  0.00    -0.232 N
HETATM   21  N7  UNL     1      34.044   2.598 -17.561  1.00  0.00    -0.128 N
ATOM     22  H62 UNL     1      32.967   5.324 -16.135  1.00  0.00     0.174 HD
ATOM     23  H61 UNL     1      32.590   3.636 -15.791  1.00  0.00     0.174 HD
ATOM     24  H7  UNL     1      34.272   1.944 -16.813  1.00  0.00     0.205 HD
ATOM     25  H5  UNL     1      34.208   5.909 -18.099  1.00  0.00     0.207 HD
BRANCH  21  26
HETATM   26  N8  UNL     1      33.900   2.144 -18.871  1.00  0.00    -0.240 N
HETATM   27  C5  UNL     1      32.752   2.541 -19.608  1.00  0.00     0.347 C
HETATM   28  N9  UNL     1      32.570   2.093 -20.958  1.00  0.00    -0.038 NA
HETATM   29  O1  UNL     1      31.866   3.280 -19.129  1.00  0.00    -0.249 OA
ATOM     30  H8  UNL     1      34.604   1.539 -19.293  1.00  0.00     0.192 HD
ENDBRANCH  21  26
ENDBRANCH  15  18
ENDBRANCH   4  14
BRANCH   1  31
HETATM   31  N1  UNL     1      32.974   8.232 -21.576  1.00  0.00    -0.167 N
HETATM   32  C1  UNL     1      33.629   9.258 -22.319  1.00  0.00     0.177 C
BRANCH  31  33
HETATM   33  C11 UNL     1      31.842   8.420 -20.772  1.00  0.00     0.721 A
HETATM   34  N13 UNL     1      30.555   8.528 -21.288  1.00  0.00    -0.115 N
HETATM   35  N14 UNL     1      29.687   8.707 -20.336  1.00  0.00    -0.213 N
ATOM     36  H13 UNL     1      30.322   8.473 -22.279  1.00  0.00     0.207 HD
HETATM   37  N15 UNL     1      30.349   8.722 -19.210  1.00  0.00    -0.209 N
ATOM     38  H14 UNL     1      28.679   8.815 -20.447  1.00  0.00     0.210 HD
HETATM   39  N16 UNL     1      31.678   8.546 -19.462  1.00  0.00    -0.081 N
ATOM     40  H15 UNL     1      29.937   8.846 -18.285  1.00  0.00     0.210 HD
BRANCH  39  41
HETATM   41  C12 UNL     1      32.659   8.499 -18.403  1.00  0.00     0.398 C
BRANCH  41  42
HETATM   42  N17 UNL     1      32.167   7.685 -17.278  1.00  0.00    -0.061 N
ATOM     43 3H17 UNL     1      31.393   8.137 -16.793  1.00  0.00     0.276 HD
ATOM     44 2H17 UNL     1      31.678   6.850 -17.599  1.00  0.00     0.276 HD
ATOM     45 1H17 UNL     1      32.931   7.455 -16.641  1.00  0.00     0.276 HD
ENDBRANCH  41  42
ENDBRANCH  39  41
ENDBRANCH  31  33
ENDBRANCH   1  31
BRANCH   8  46
HETATM   46  C8  UNL     1      33.504   2.795 -24.432  1.00  0.00     0.225 C
BRANCH  46  47
HETATM   47  O2  UNL     1      34.080   2.016 -23.456  1.00  0.00    -0.395 OA
ATOM     48  H2  UNL     1      34.835   1.541 -23.783  1.00  0.00     0.209 HD
ENDBRANCH  46  47
ENDBRANCH   8  46
TORSDOF 9
ENDMDL