MODEL 5
REMARK VINA RESULT: -9.410414315      4.288      9.135
REMARK  10 active torsions:
REMARK  status: ('A' for Active; 'I' for Inactive)
REMARK    1  A    between atoms: N1_1  and  C1_4
REMARK    2  A    between atoms: C2_7  and  N3_8
REMARK    3  A    between atoms: N3_8  and  C3_10
REMARK    4  A    between atoms: C4_19  and  N9_20
REMARK    5  A    between atoms: N9_20  and  O1_22
REMARK    6  A    between atoms: C5_24  and  O2_25
REMARK    7  A    between atoms: C6_27  and  N10_28
REMARK       I    between atoms: N10_28  and  C7_30
REMARK    8  A    between atoms: C7_30  and  C8_32
REMARK    9  A    between atoms: C8_32  and  C9_33
REMARK   10  A    between atoms: C10_36  and  C11_37
ROOT
HETATM    1  C1  UNL     1      35.160   2.998 -15.215  1.00  0.00     0.144 C
HETATM    2  N2  UNL     1      33.936   3.529 -15.017  1.00  0.00    -0.174 N
ATOM      3  H2  UNL     1      33.791   4.065 -14.162  1.00  0.00     0.186 HD
HETATM    4  C2  UNL     1      32.884   3.410 -15.864  1.00  0.00     0.700 C
HETATM    5  N8  UNL     1      32.847   3.352 -17.213  1.00  0.00    -0.171 N
ATOM      6  H8  UNL     1      31.961   3.562 -17.673  1.00  0.00     0.186 HD
HETATM    7  C4  UNL     1      33.900   3.037 -17.992  1.00  0.00     0.176 C
HETATM    8  C5  UNL     1      35.155   2.544 -17.652  1.00  0.00     0.143 C
HETATM    9  C6  UNL     1      35.726   2.539 -16.381  1.00  0.00     0.117 C
ENDROOT
BRANCH   9  10
HETATM   10  N10 UNL     1      37.037   1.998 -16.292  1.00  0.00    -0.321 N
HETATM   11  C7  UNL     1      37.165   0.641 -15.891  1.00  0.00     0.230 C
HETATM   12  O3  UNL     1      36.176  -0.066 -15.622  1.00  0.00    -0.273 OA
ATOM     13  H10 UNL     1      37.858   2.565 -16.510  1.00  0.00     0.169 HD
BRANCH  11  14
HETATM   14  C8  UNL     1      38.532   0.079 -15.800  1.00  0.00     0.189 C
BRANCH  14  15
HETATM   15  C9  UNL     1      39.149   0.141 -17.147  1.00  0.00     0.157 A
HETATM   16  N11 UNL     1      38.715   0.744 -18.269  1.00  0.00    -0.320 N
HETATM   17  C10 UNL     1      39.590   0.548 -19.271  1.00  0.00     0.174 A
ATOM     18  H11 UNL     1      37.848   1.273 -18.349  1.00  0.00     0.169 HD
HETATM   19  N16 UNL     1      40.576  -0.196 -18.723  1.00  0.00    -0.240 N
HETATM   20  O4  UNL     1      40.289  -0.420 -17.471  1.00  0.00    -0.222 OA
ATOM     21  H16 UNL     1      41.409  -0.529 -19.209  1.00  0.00     0.196 HD
BRANCH  17  22
HETATM   22  C11 UNL     1      39.497   1.031 -20.643  1.00  0.00     0.178 A
HETATM   23  N12 UNL     1      38.815   2.089 -21.109  1.00  0.00    -0.267 N
HETATM   24  N13 UNL     1      38.991   2.188 -22.436  1.00  0.00    -0.007 NA
ATOM     25  H12 UNL     1      38.250   2.720 -20.541  1.00  0.00     0.185 HD
HETATM   26  N14 UNL     1      39.782   1.195 -22.802  1.00  0.00    -0.007 NA
HETATM   27  N15 UNL     1      40.094   0.485 -21.716  1.00  0.00    -0.267 N
ATOM     28  H15 UNL     1      40.691  -0.341 -21.703  1.00  0.00     0.185 HD
ENDBRANCH  17  22
ENDBRANCH  14  15
ENDBRANCH  11  14
ENDBRANCH   9  10
BRANCH   1  29
HETATM   29  N1  UNL     1      35.889   2.910 -14.178  1.00  0.00    -0.383 N
ATOM     30  H12 UNL     1      35.469   3.251 -13.313  1.00  0.00     0.157 HD
ATOM     31  H11 UNL     1      36.814   2.507 -14.327  1.00  0.00     0.157 HD
ENDBRANCH   1  29
BRANCH   8  32
HETATM   32  O2  UNL     1      35.930   1.997 -18.664  1.00  0.00    -0.355 OA
ATOM     33  H2  UNL     1      36.645   1.425 -18.414  1.00  0.00     0.218 HD
ENDBRANCH   8  32
BRANCH   7  34
HETATM   34  N9  UNL     1      33.707   3.224 -19.241  1.00  0.00    -0.250 N
ATOM     35  H9  UNL     1      33.909   4.142 -19.636  1.00  0.00     0.196 HD
BRANCH  34  36
HETATM   36  O1  UNL     1      33.244   2.247 -20.064  1.00  0.00    -0.288 OA
ATOM     37  H1  UNL     1      32.327   2.166 -20.298  1.00  0.00     0.244 HD
ENDBRANCH  34  36
ENDBRANCH   7  34
BRANCH   4  38
HETATM   38  N3  UNL     1      31.578   3.330 -15.276  1.00  0.00    -0.020 N
ATOM     39  H3  UNL     1      30.956   2.553 -15.497  1.00  0.00     0.203 HD
BRANCH  38  40
HETATM   40  C3  UNL     1      31.203   4.262 -14.458  1.00  0.00     0.722 A
HETATM   41  N4  UNL     1      30.986   4.197 -13.131  1.00  0.00    -0.116 N
HETATM   42  N5  UNL     1      30.609   5.396 -12.681  1.00  0.00     0.006 NA
ATOM     43  H4  UNL     1      31.093   3.360 -12.557  1.00  0.00     0.202 HD
HETATM   44  N6  UNL     1      30.593   6.205 -13.739  1.00  0.00     0.006 NA
HETATM   45  N7  UNL     1      30.951   5.532 -14.819  1.00  0.00    -0.116 N
ATOM     46  H7  UNL     1      31.023   5.911 -15.763  1.00  0.00     0.202 HD
ENDBRANCH  38  40
ENDBRANCH   4  38
TORSDOF 10
ENDMDL