MODEL 5
REMARK VINA RESULT: -9.132619108      3.360      9.220
REMARK  11 active torsions:
REMARK  status: ('A' for Active; 'I' for Inactive)
REMARK    1  A    between atoms: C2_2  and  N1_3
REMARK    2  A    between atoms: C2_2  and  C3_7
REMARK    3  A    between atoms: C3_7  and  O1_8
REMARK    4  A    between atoms: C3_7  and  N2_10
REMARK    5  A    between atoms: N2_10  and  C4_12
REMARK    6  A    between atoms: C5_17  and  N5_18
REMARK    7  A    between atoms: C7_22  and  N6_23
REMARK       I    between atoms: N6_23  and  C8_25
REMARK    8  A    between atoms: C8_25  and  C9_27
REMARK    9  A    between atoms: N9_32  and  C10_33
REMARK   10  A    between atoms: C12_38  and  N12_39
REMARK   11  A    between atoms: C13_44  and  N14_45
ROOT
HETATM    1  N6  UNL     1      36.114   2.619 -18.112  1.00  0.00    -0.317 N
ATOM      2  H6  UNL     1      36.400   3.573 -18.329  1.00  0.00     0.169 HD
HETATM    3  C8  UNL     1      34.729   2.392 -18.164  1.00  0.00     0.293 C
HETATM    4  O4  UNL     1      34.197   1.297 -17.929  1.00  0.00    -0.264 OA
ENDROOT
BRANCH   3   5
HETATM    5  C9  UNL     1      33.816   3.511 -18.521  1.00  0.00     0.207 A
HETATM    6  N7  UNL     1      32.513   3.350 -18.776  1.00  0.00    -0.264 N
HETATM    7  N8  UNL     1      32.025   4.559 -19.054  1.00  0.00    -0.219 N
ATOM      8  H7  UNL     1      31.994   2.473 -18.761  1.00  0.00     0.190 HD
HETATM    9  N9  UNL     1      32.976   5.462 -18.981  1.00  0.00    -0.173 N
ATOM     10  H8  UNL     1      31.052   4.755 -19.290  1.00  0.00     0.210 HD
HETATM   11  N15 UNL     1      34.087   4.800 -18.649  1.00  0.00    -0.257 N
ATOM     12  H15 UNL     1      35.005   5.224 -18.515  1.00  0.00     0.191 HD
BRANCH   9  13
HETATM   13  C10 UNL     1      32.816   6.852 -19.216  1.00  0.00     0.162 A
HETATM   14  C11 UNL     1      32.512   7.684 -18.156  1.00  0.00     0.166 A
HETATM   15  N10 UNL     1      32.373   7.107 -16.874  1.00  0.00    -0.079 NA
HETATM   16  N11 UNL     1      32.356   9.013 -18.359  1.00  0.00    -0.177 N
HETATM   17  C12 UNL     1      32.485   9.573 -19.575  1.00  0.00     0.678 A
ATOM     18  H11 UNL     1      32.131   9.610 -17.563  1.00  0.00     0.185 HD
HETATM   19  N13 UNL     1      32.781   8.763 -20.606  1.00  0.00    -0.175 N
HETATM   20  C13 UNL     1      32.948   7.433 -20.459  1.00  0.00     0.148 A
ATOM     21  H13 UNL     1      32.882   9.169 -21.537  1.00  0.00     0.186 HD
BRANCH  17  22
HETATM   22  N12 UNL     1      32.332  10.854 -19.759  1.00  0.00    -0.234 N
ATOM     23 2H12 UNL     1      33.014  11.388 -20.297  1.00  0.00     0.174 HD
ATOM     24 1H12 UNL     1      31.533  11.358 -19.374  1.00  0.00     0.174 HD
ENDBRANCH  17  22
BRANCH  20  25
HETATM   25  N14 UNL     1      33.226   6.715 -21.467  1.00  0.00    -0.383 N
ATOM     26 2H14 UNL     1      33.594   5.773 -21.335  1.00  0.00     0.157 HD
ATOM     27 1H14 UNL     1      33.082   7.081 -22.408  1.00  0.00     0.157 HD
ENDBRANCH  20  25
ENDBRANCH   9  13
ENDBRANCH   3   5
BRANCH   1  28
HETATM   28  C7  UNL     1      37.162   1.748 -17.812  1.00  0.00     0.085 A
HETATM   29  C4  UNL     1      37.329   1.220 -16.505  1.00  0.00     0.149 A
HETATM   30  N3  UNL     1      38.388   0.418 -16.273  1.00  0.00    -0.282 N
HETATM   31  N4  UNL     1      39.256   0.116 -17.203  1.00  0.00    -0.279 N
ATOM     32  H3  UNL     1      38.517   0.034 -15.336  1.00  0.00     0.188 HD
HETATM   33  C5  UNL     1      39.166   0.571 -18.450  1.00  0.00     0.190 A
ATOM     34  H4  UNL     1      40.037  -0.495 -16.962  1.00  0.00     0.189 HD
HETATM   35  C6  UNL     1      38.097   1.404 -18.760  1.00  0.00     0.089 A
BRANCH  29  36
HETATM   36  N2  UNL     1      36.374   1.473 -15.499  1.00  0.00    -0.322 N
ATOM     37  H2  UNL     1      35.420   1.166 -15.686  1.00  0.00     0.169 HD
BRANCH  36  38
HETATM   38  C3  UNL     1      36.602   2.099 -14.275  1.00  0.00     0.147 C
BRANCH  38  39
HETATM   39  C2  UNL     1      35.764   2.031 -13.078  1.00  0.00     0.253 C
HETATM   40  C1  UNL     1      36.287   0.934 -12.160  1.00  0.00     0.049 C
BRANCH  39  41
HETATM   41  N1  UNL     1      34.391   1.722 -13.489  1.00  0.00    -0.068 N
ATOM     42  H13 UNL     1      34.313   1.593 -14.498  1.00  0.00     0.275 HD
ATOM     43  H12 UNL     1      34.105   0.787 -13.198  1.00  0.00     0.275 HD
ATOM     44  H11 UNL     1      33.757   2.443 -13.143  1.00  0.00     0.275 HD
ENDBRANCH  39  41
ENDBRANCH  38  39
BRANCH  38  45
HETATM   45  O1  UNL     1      37.686   2.816 -14.220  1.00  0.00    -0.348 OA
ATOM     46  H1  UNL     1      37.592   3.760 -14.164  1.00  0.00     0.219 HD
ENDBRANCH  38  45
ENDBRANCH  36  38
ENDBRANCH  29  36
BRANCH  33  47
HETATM   47  N5  UNL     1      40.130   0.222 -19.443  1.00  0.00    -0.097 N
HETATM   48  O2  UNL     1      39.902   0.476 -20.641  1.00  0.00    -0.530 OA
HETATM   49  O3  UNL     1      41.313  -0.389 -19.127  1.00  0.00    -0.530 OA
ENDBRANCH  33  47
ENDBRANCH   1  28
TORSDOF 11
ENDMDL