MODEL 2
REMARK VINA RESULT: -7.889096946      1.790      2.187
REMARK  9 active torsions:
REMARK  status: ('A' for Active; 'I' for Inactive)
REMARK    1  A    between atoms: C2_7  and  C3_8
REMARK    2  A    between atoms: C3_8  and  O1_10
REMARK    3  A    between atoms: C3_8  and  C5_12
REMARK    4  A    between atoms: C6_15  and  C7_16
REMARK    5  A    between atoms: C7_16  and  C8_17
REMARK    6  A    between atoms: C8_17  and  O2_18
REMARK    7  A    between atoms: C8_17  and  N5_20
REMARK    8  A    between atoms: N5_20  and  O3_22
REMARK    9  A    between atoms: C13_34  and  C14_35
ROOT
HETATM    1  C5  UNL     1      34.055   4.017 -18.142  1.00  0.00     0.074 A
HETATM    2  N4  UNL     1      34.120   4.981 -19.021  1.00  0.00    -0.351 N
ATOM      3  H4  UNL     1      34.657   4.826 -19.874  1.00  0.00     0.166 HD
HETATM    4  C6  UNL     1      33.540   6.115 -18.862  1.00  0.00     0.087 A
HETATM    5  S1  UNL     1      32.788   5.895 -17.337  1.00  0.00    -0.067 SA
HETATM    6  C13 UNL     1      33.315   4.271 -17.012  1.00  0.00     0.097 A
ENDROOT
BRANCH   4   7
HETATM    7  C7  UNL     1      33.414   7.369 -19.669  1.00  0.00     0.151 C
HETATM    8  N6  UNL     1      33.103   8.417 -18.718  1.00  0.00    -0.343 N
HETATM    9  C9  UNL     1      33.834   9.443 -18.838  1.00  0.00     0.185 C
ATOM     10  H6  UNL     1      32.365   8.336 -18.018  1.00  0.00     0.163 HD
HETATM   11  N7  UNL     1      33.711  10.593 -18.012  1.00  0.00    -0.064 NA
HETATM   12  N8  UNL     1      34.732   9.235 -19.907  1.00  0.00    -0.353 N
HETATM   13  C10 UNL     1      34.603   7.845 -20.358  1.00  0.00     0.061 C
ATOM     14  H8  UNL     1      35.363   9.932 -20.300  1.00  0.00     0.163 HD
HETATM   15  C11 UNL     1      35.913   7.197 -20.069  1.00  0.00     0.041 C
HETATM   16  C12 UNL     1      34.445   7.926 -21.878  1.00  0.00     0.041 C
BRANCH   7  17
HETATM   17  C8  UNL     1      32.198   7.178 -20.541  1.00  0.00     0.276 C
BRANCH  17  18
HETATM   18  O2  UNL     1      32.108   5.789 -20.795  1.00  0.00    -0.372 OA
ATOM     19  H2  UNL     1      32.217   5.357 -19.955  1.00  0.00     0.212 HD
ENDBRANCH  17  18
BRANCH  17  20
HETATM   20  N5  UNL     1      30.951   7.557 -19.981  1.00  0.00    -0.273 N
ATOM     21  H5  UNL     1      30.882   8.257 -19.243  1.00  0.00     0.190 HD
BRANCH  20  22
HETATM   22  O3  UNL     1      29.868   6.942 -20.479  1.00  0.00    -0.292 OA
ATOM     23  H3  UNL     1      29.194   6.710 -19.852  1.00  0.00     0.244 HD
ENDBRANCH  20  22
ENDBRANCH  17  20
ENDBRANCH   7  17
ENDBRANCH   4   7
BRANCH   1  24
HETATM   24  C3  UNL     1      34.765   2.710 -18.377  1.00  0.00     0.158 C
HETATM   25  C4  UNL     1      35.744   2.816 -19.538  1.00  0.00     0.062 C
BRANCH  24  26
HETATM   26  C2  UNL     1      35.515   2.210 -17.235  1.00  0.00     0.154 A
HETATM   27  N3  UNL     1      36.455   3.016 -16.620  1.00  0.00    -0.269 N
HETATM   28  N2  UNL     1      36.984   2.364 -15.637  1.00  0.00    -0.225 N
ATOM     29  H3  UNL     1      36.692   3.969 -16.897  1.00  0.00     0.190 HD
HETATM   30  N1  UNL     1      36.427   1.167 -15.577  1.00  0.00    -0.223 N
ATOM     31  H2  UNL     1      37.710   2.715 -15.011  1.00  0.00     0.210 HD
HETATM   32  C1  UNL     1      36.793   0.173 -14.580  1.00  0.00     0.202 C
HETATM   33  N10 UNL     1      35.540   1.064 -16.541  1.00  0.00    -0.268 N
ATOM     34  H10 UNL     1      34.963   0.244 -16.731  1.00  0.00     0.190 HD
ENDBRANCH  24  26
BRANCH  24  35
HETATM   35  O1  UNL     1      33.823   1.743 -18.779  1.00  0.00    -0.376 OA
ATOM     36  H1  UNL     1      32.956   2.131 -18.791  1.00  0.00     0.211 HD
ENDBRANCH  24  35
ENDBRANCH   1  24
BRANCH   6  37
HETATM   37  C14 UNL     1      32.946   3.494 -15.852  1.00  0.00     0.274 C
HETATM   38  N9  UNL     1      31.591   3.088 -15.711  1.00  0.00    -0.057 NA
HETATM   39  O4  UNL     1      33.751   3.164 -14.973  1.00  0.00    -0.270 OA
ENDBRANCH   6  37
TORSDOF 9
ENDMDL