MODEL 1
REMARK VINA RESULT: -9.214574901      0.000      0.000
REMARK  10 active torsions:
REMARK  status: ('A' for Active; 'I' for Inactive)
REMARK    1  A    between atoms: N1_1  and  N2_4
REMARK    2  A    between atoms: N2_4  and  N3_5
REMARK    3  A    between atoms: N3_5  and  C1_7
REMARK    4  A    between atoms: C3_13  and  C4_14
REMARK       I    between atoms: C4_14  and  N6_16
REMARK    5  A    between atoms: N6_16  and  C5_18
REMARK    6  A    between atoms: C6_21  and  N8_22
REMARK    7  A    between atoms: C7_27  and  N10_28
REMARK    8  A    between atoms: C8_35  and  C9_36
REMARK    9  A    between atoms: C9_36  and  N13_37
REMARK   10  A    between atoms: C9_36  and  C10_41
ROOT
HETATM    1  C1  UNL     1      35.265   3.135 -17.586  1.00  0.00     0.245 C
HETATM    2  N4  UNL     1      36.675   3.324 -17.610  1.00  0.00    -0.025 NA
HETATM    3  O1  UNL     1      36.717   3.836 -18.968  1.00  0.00    -0.161 OA
HETATM    4  N5  UNL     1      35.720   4.827 -18.904  1.00  0.00    -0.243 N
ATOM      5  H5  UNL     1      35.723   5.697 -19.436  1.00  0.00     0.196 HD
HETATM    6  C2  UNL     1      34.804   4.473 -18.074  1.00  0.00     0.121 C
HETATM    7  C3  UNL     1      33.624   5.066 -17.487  1.00  0.00     0.131 C
HETATM    8  N12 UNL     1      33.039   4.524 -16.444  1.00  0.00    -0.350 N
ATOM      9  H12 UNL     1      32.220   4.972 -16.034  1.00  0.00     0.166 HD
HETATM   10  C8  UNL     1      33.544   3.303 -15.873  1.00  0.00     0.074 C
HETATM   11  C11 UNL     1      34.576   2.671 -16.396  1.00  0.00     0.104 C
HETATM   12  N15 UNL     1      35.030   1.470 -15.805  1.00  0.00    -0.100 NA
ENDROOT
BRANCH   7  13
HETATM   13  C4  UNL     1      33.031   6.269 -18.003  1.00  0.00     0.288 C
HETATM   14  O2  UNL     1      32.734   7.219 -17.191  1.00  0.00    -0.265 OA
HETATM   15  N6  UNL     1      32.746   6.485 -19.354  1.00  0.00    -0.153 N
ATOM     16  H6  UNL     1      32.961   5.764 -20.042  1.00  0.00     0.187 HD
BRANCH  15  17
HETATM   17  C5  UNL     1      32.149   7.730 -19.777  1.00  0.00     0.702 A
HETATM   18  N7  UNL     1      31.026   7.783 -20.501  1.00  0.00    -0.154 N
HETATM   19  C6  UNL     1      30.442   8.902 -20.913  1.00  0.00     0.278 A
ATOM     20  H7  UNL     1      30.585   6.899 -20.755  1.00  0.00     0.187 HD
HETATM   21  N9  UNL     1      31.029  10.065 -20.572  1.00  0.00    -0.155 N
HETATM   22  C7  UNL     1      32.161  10.079 -19.846  1.00  0.00     0.693 A
ATOM     23  H9  UNL     1      30.611  10.947 -20.869  1.00  0.00     0.187 HD
HETATM   24  N11 UNL     1      32.709   8.915 -19.456  1.00  0.00    -0.022 N
ATOM     25  H11 UNL     1      33.566   8.928 -18.905  1.00  0.00     0.203 HD
BRANCH  19  26
HETATM   26  N8  UNL     1      29.239   8.878 -21.685  1.00  0.00    -0.078 N
HETATM   27  O3  UNL     1      28.270   9.577 -21.341  1.00  0.00    -0.529 OA
HETATM   28  O4  UNL     1      29.129   8.102 -22.795  1.00  0.00    -0.529 OA
ENDBRANCH  19  26
BRANCH  22  29
HETATM   29  N10 UNL     1      32.689  11.209 -19.543  1.00  0.00    -0.234 N
ATOM     30 2H10 UNL     1      33.201  11.763 -20.229  1.00  0.00     0.174 HD
ATOM     31 1H10 UNL     1      32.592  11.558 -18.589  1.00  0.00     0.174 HD
ENDBRANCH  22  29
ENDBRANCH  15  17
ENDBRANCH   7  13
BRANCH   1  32
HETATM   32  N3  UNL     1      35.015   2.162 -18.700  1.00  0.00    -0.212 N
ATOM     33  H3  UNL     1      35.782   1.635 -19.118  1.00  0.00     0.200 HD
BRANCH  32  34
HETATM   34  N2  UNL     1      33.850   2.015 -19.099  1.00  0.00    -0.246 NA
BRANCH  34  35
HETATM   35  N1  UNL     1      32.810   1.970 -19.752  1.00  0.00    -0.261 N
ATOM     36  H12 UNL     1      33.249   2.405 -20.563  1.00  0.00     0.193 HD
ATOM     37  H11 UNL     1      31.857   1.828 -20.088  1.00  0.00     0.193 HD
ENDBRANCH  34  35
ENDBRANCH  32  34
ENDBRANCH   1  32
BRANCH  10  38
HETATM   38  C9  UNL     1      32.847   2.782 -14.696  1.00  0.00     0.323 C
BRANCH  38  39
HETATM   39  N13 UNL     1      33.759   2.782 -13.553  1.00  0.00    -0.061 N
ATOM     40 3H13 UNL     1      34.294   1.917 -13.485  1.00  0.00     0.275 HD
ATOM     41 2H13 UNL     1      34.539   3.426 -13.682  1.00  0.00     0.275 HD
ATOM     42 1H13 UNL     1      33.233   2.979 -12.702  1.00  0.00     0.275 HD
ENDBRANCH  38  39
BRANCH  38  43
HETATM   43  C10 UNL     1      31.584   3.416 -14.324  1.00  0.00     0.267 C
HETATM   44  N14 UNL     1      31.419   3.926 -13.018  1.00  0.00    -0.060 NA
HETATM   45  O5  UNL     1      30.652   3.520 -15.138  1.00  0.00    -0.274 OA
ENDBRANCH  38  43
ENDBRANCH  10  38
TORSDOF 10
ENDMDL