MODEL 3
REMARK VINA RESULT: -8.829151514      0.993      2.205
REMARK  11 active torsions:
REMARK  status: ('A' for Active; 'I' for Inactive)
REMARK    1  A    between atoms: N3_7  and  C3_8
REMARK    2  A    between atoms: C4_11  and  N5_12
REMARK    3  A    between atoms: C5_17  and  N7_18
REMARK    4  A    between atoms: C6_21  and  N8_22
REMARK    5  A    between atoms: N8_22  and  C7_24
REMARK    6  A    between atoms: C7_24  and  C8_30
REMARK    7  A    between atoms: N9_25  and  N10_27
REMARK    8  A    between atoms: C10_35  and  N12_36
REMARK    9  A    between atoms: C11_39  and  C12_40
REMARK   10  A    between atoms: C12_40  and  O4_41
REMARK   11  A    between atoms: C12_40  and  O5_43
ROOT
HETATM    1  N8  UNL     1      36.244   2.895 -15.507  1.00  0.00    -0.332 N
ATOM      2  H8  UNL     1      36.146   3.872 -15.233  1.00  0.00     0.168 HD
ENDROOT
BRANCH   1   3
HETATM    3  C6  UNL     1      36.128   1.961 -14.480  1.00  0.00     0.127 A
HETATM    4  C3  UNL     1      34.853   1.653 -14.017  1.00  0.00     0.192 A
HETATM    5  N4  UNL     1      34.730   0.755 -13.030  1.00  0.00    -0.171 N
HETATM    6  C4  UNL     1      35.764   0.123 -12.448  1.00  0.00     0.679 A
ATOM      7  H4  UNL     1      33.790   0.536 -12.699  1.00  0.00     0.186 HD
HETATM    8  N6  UNL     1      36.996   0.419 -12.896  1.00  0.00    -0.175 N
HETATM    9  C5  UNL     1      37.183   1.317 -13.891  1.00  0.00     0.145 A
ATOM     10  H6  UNL     1      37.805  -0.041 -12.478  1.00  0.00     0.186 HD
BRANCH   4  11
HETATM   11  N3  UNL     1      33.698   2.300 -14.597  1.00  0.00    -0.161 N
HETATM   12  N2  UNL     1      33.203   2.164 -15.790  1.00  0.00    -0.218 N
HETATM   13  N1  UNL     1      32.138   2.938 -15.901  1.00  0.00    -0.272 N
ATOM     14  H2  UNL     1      33.575   1.558 -16.522  1.00  0.00     0.210 HD
HETATM   15  C2  UNL     1      31.981   3.567 -14.727  1.00  0.00     0.109 A
ATOM     16  H1  UNL     1      31.547   3.039 -16.726  1.00  0.00     0.190 HD
HETATM   17  C1  UNL     1      30.886   4.554 -14.396  1.00  0.00     0.092 C
HETATM   18  N13 UNL     1      32.965   3.156 -13.924  1.00  0.00    -0.264 N
ATOM     19  H13 UNL     1      33.120   3.453 -12.961  1.00  0.00     0.190 HD
ENDBRANCH   4  11
BRANCH   6  20
HETATM   20  N5  UNL     1      35.556  -0.738 -11.491  1.00  0.00    -0.234 N
ATOM     21  H52 UNL     1      34.733  -0.699 -10.888  1.00  0.00     0.174 HD
ATOM     22  H51 UNL     1      36.224  -1.490 -11.319  1.00  0.00     0.174 HD
ENDBRANCH   6  20
BRANCH   9  23
HETATM   23  N7  UNL     1      38.389   1.546 -14.259  1.00  0.00    -0.383 N
ATOM     24  H72 UNL     1      39.051   2.013 -13.640  1.00  0.00     0.157 HD
ATOM     25  H71 UNL     1      38.659   1.240 -15.194  1.00  0.00     0.157 HD
ENDBRANCH   9  23
ENDBRANCH   1   3
BRANCH   1  26
HETATM   26  C7  UNL     1      36.482   2.659 -16.883  1.00  0.00     0.172 C
HETATM   27  N9  UNL     1      37.386   1.821 -17.209  1.00  0.00    -0.288 N
ATOM     28  H9  UNL     1      37.911   1.343 -16.476  1.00  0.00     0.188 HD
BRANCH  27  29
HETATM   29  N10 UNL     1      37.671   1.543 -18.540  1.00  0.00    -0.344 N
ATOM     30 2H10 UNL     1      38.213   0.705 -18.753  1.00  0.00     0.176 HD
ATOM     31 1H10 UNL     1      37.352   2.155 -19.291  1.00  0.00     0.176 HD
ENDBRANCH  27  29
BRANCH  26  32
HETATM   32  C8  UNL     1      35.727   3.318 -17.959  1.00  0.00     0.197 A
HETATM   33  N11 UNL     1      36.090   4.521 -18.431  1.00  0.00    -0.298 N
HETATM   34  C9  UNL     1      35.466   5.184 -19.402  1.00  0.00     0.283 A
ATOM     35  H11 UNL     1      36.909   4.962 -18.013  1.00  0.00     0.171 HD
HETATM   36  O1  UNL     1      35.807   6.311 -19.842  1.00  0.00    -0.265 OA
HETATM   37  C10 UNL     1      34.335   4.567 -19.975  1.00  0.00     0.205 A
HETATM   38  C11 UNL     1      33.972   3.340 -19.486  1.00  0.00     0.148 A
HETATM   39  O6  UNL     1      34.681   2.771 -18.505  1.00  0.00    -0.287 OA
BRANCH  37  40
HETATM   40  N12 UNL     1      33.642   5.226 -21.021  1.00  0.00    -0.107 N
HETATM   41  O2  UNL     1      34.025   5.145 -22.215  1.00  0.00    -0.531 OA
HETATM   42  O3  UNL     1      32.526   5.984 -20.798  1.00  0.00    -0.531 OA
ENDBRANCH  37  40
BRANCH  38  43
HETATM   43  C12 UNL     1      32.790   2.620 -20.032  1.00  0.00     0.315 C
BRANCH  43  44
HETATM   44  O4  UNL     1      32.750   1.272 -19.752  1.00  0.00    -0.365 OA
ATOM     45  H4  UNL     1      32.043   1.002 -19.177  1.00  0.00     0.213 HD
ENDBRANCH  43  44
BRANCH  43  46
HETATM   46  O5  UNL     1      31.645   3.205 -19.465  1.00  0.00    -0.365 OA
ATOM     47  H5  UNL     1      31.449   3.987 -19.967  1.00  0.00     0.213 HD
ENDBRANCH  43  46
ENDBRANCH  38  43
ENDBRANCH  26  32
ENDBRANCH   1  26
TORSDOF 11
ENDMDL