MODEL 3
REMARK VINA RESULT: -8.834947246      4.556      7.294
REMARK  12 active torsions:
REMARK  status: ('A' for Active; 'I' for Inactive)
REMARK    1  A    between atoms: C2_2  and  C3_4
REMARK    2  A    between atoms: C3_4  and  N5_18
REMARK    3  A    between atoms: N1_5  and  N2_7
REMARK    4  A    between atoms: N2_7  and  C4_9
REMARK    5  A    between atoms: C6_13  and  O2_14
REMARK    6  A    between atoms: N5_18  and  N6_20
REMARK    7  A    between atoms: C7_22  and  C8_23
REMARK    8  A    between atoms: C9_26  and  O3_27
REMARK    9  A    between atoms: C10_29  and  C11_30
REMARK   10  A    between atoms: C12_32  and  O5_33
REMARK   11  A    between atoms: C13_35  and  O6_36
REMARK   12  A    between atoms: C15_40  and  O8_41
ROOT
HETATM    1  N6  UNL     1      37.237   2.011 -19.721  1.00  0.00    -0.306 N
ATOM      2  H6  UNL     1      36.808   2.008 -18.795  1.00  0.00     0.186 HD
HETATM    3  C7  UNL     1      36.597   2.584 -20.608  1.00  0.00     0.163 C
ENDROOT
BRANCH   3   4
HETATM    4  C8  UNL     1      35.288   3.217 -20.286  1.00  0.00     0.167 A
HETATM    5  N7  UNL     1      34.167   2.511 -19.987  1.00  0.00    -0.314 N
HETATM    6  C9  UNL     1      33.204   3.421 -19.757  1.00  0.00     0.179 A
ATOM      7  H7  UNL     1      34.075   1.496 -19.946  1.00  0.00     0.170 HD
HETATM    8  C10 UNL     1      33.727   4.702 -19.914  1.00  0.00     0.165 A
HETATM    9  O9  UNL     1      34.978   4.485 -20.230  1.00  0.00    -0.285 OA
BRANCH   6  10
HETATM   10  O3  UNL     1      31.871   3.179 -19.415  1.00  0.00    -0.344 OA
ATOM     11  H3  UNL     1      31.290   3.744 -18.920  1.00  0.00     0.219 HD
ENDBRANCH   6  10
BRANCH   8  12
HETATM   12  C11 UNL     1      32.975   5.929 -19.740  1.00  0.00     0.153 A
HETATM   13  O4  UNL     1      31.815   6.067 -20.396  1.00  0.00    -0.280 OA
HETATM   14  C12 UNL     1      31.070   7.122 -20.306  1.00  0.00     0.222 A
HETATM   15  C13 UNL     1      31.450   8.172 -19.511  1.00  0.00     0.178 A
HETATM   16  C14 UNL     1      32.664   8.108 -18.783  1.00  0.00     0.245 A
HETATM   17  O7  UNL     1      33.004   9.069 -18.060  1.00  0.00    -0.282 OA
HETATM   18  C15 UNL     1      33.413   6.936 -18.935  1.00  0.00     0.156 A
BRANCH  14  19
HETATM   19  O5  UNL     1      29.842   7.207 -21.029  1.00  0.00    -0.339 OA
ATOM     20  H5  UNL     1      29.185   6.527 -20.945  1.00  0.00     0.220 HD
ENDBRANCH  14  19
BRANCH  15  21
HETATM   21  O6  UNL     1      30.685   9.306 -19.390  1.00  0.00    -0.353 OA
ATOM     22  H6  UNL     1      31.066  10.176 -19.426  1.00  0.00     0.218 HD
ENDBRANCH  15  21
BRANCH  18  23
HETATM   23  O8  UNL     1      34.596   6.906 -18.211  1.00  0.00    -0.355 OA
ATOM     24  H8  UNL     1      35.329   7.493 -18.353  1.00  0.00     0.218 HD
ENDBRANCH  18  23
ENDBRANCH   8  12
ENDBRANCH   3   4
BRANCH   1  25
HETATM   25  N5  UNL     1      38.438   1.384 -19.819  1.00  0.00    -0.282 N
ATOM     26  H5  UNL     1      38.963   1.340 -20.692  1.00  0.00     0.188 HD
BRANCH  25  27
HETATM   27  C3  UNL     1      38.927   0.773 -18.575  1.00  0.00     0.181 C
HETATM   28  N1  UNL     1      38.204   1.032 -17.576  1.00  0.00    -0.279 N
ATOM     29  H1  UNL     1      37.372   1.589 -17.774  1.00  0.00     0.189 HD
BRANCH  27  30
HETATM   30  C2  UNL     1      40.150   0.011 -18.613  1.00  0.00     0.191 C
HETATM   31  C1  UNL     1      40.797  -0.436 -19.851  1.00  0.00     0.100 C
HETATM   32  O1  UNL     1      40.719  -0.309 -17.520  1.00  0.00    -0.289 OA
ENDBRANCH  27  30
BRANCH  28  33
HETATM   33  N2  UNL     1      38.369   0.679 -16.277  1.00  0.00    -0.270 N
ATOM     34  H2  UNL     1      39.234   0.225 -15.985  1.00  0.00     0.190 HD
BRANCH  33  35
HETATM   35  C4  UNL     1      37.334   0.938 -15.300  1.00  0.00     0.192 C
HETATM   36  N3  UNL     1      36.516   0.079 -14.839  1.00  0.00    -0.357 N
HETATM   37  C5  UNL     1      35.625   0.704 -13.879  1.00  0.00     0.176 C
ATOM     38  H3  UNL     1      36.490  -0.904 -15.106  1.00  0.00     0.162 HD
HETATM   39  C6  UNL     1      35.759   2.181 -14.224  1.00  0.00     0.238 C
HETATM   40  N4  UNL     1      37.112   2.210 -14.738  1.00  0.00    -0.333 N
ATOM     41  H4  UNL     1      37.769   2.990 -14.701  1.00  0.00     0.165 HD
BRANCH  39  42
HETATM   42  O2  UNL     1      35.617   2.989 -13.103  1.00  0.00    -0.375 OA
ATOM     43  H2  UNL     1      34.705   3.188 -12.924  1.00  0.00     0.212 HD
ENDBRANCH  39  42
ENDBRANCH  33  35
ENDBRANCH  28  33
ENDBRANCH  25  27
ENDBRANCH   1  25
TORSDOF 12
ENDMDL