MODEL 1
REMARK VINA RESULT: -7.350386374      0.000      0.000
REMARK  10 active torsions:
REMARK  status: ('A' for Active; 'I' for Inactive)
REMARK    1  A    between atoms: C2_2  and  C3_3
REMARK    2  A    between atoms: C4_4  and  C5_5
REMARK    3  A    between atoms: C6_6  and  O1_7
REMARK    4  A    between atoms: C7_9  and  O2_10
REMARK    5  A    between atoms: C8_12  and  O3_13
REMARK    6  A    between atoms: C9_15  and  N1_16
REMARK    7  A    between atoms: C14_22  and  S1_23
REMARK    8  A    between atoms: S1_23  and  C15_24
REMARK    9  A    between atoms: C15_24  and  C16_25
REMARK   10  A    between atoms: C16_25  and  O4_28
ROOT
HETATM    1  N1  UNL     1      14.951  -5.452  14.266  1.00  0.00    -0.315 N
HETATM    2  C10 UNL     1      13.773  -6.001  14.543  1.00  0.00     0.119 A
HETATM    3  C11 UNL     1      12.598  -5.841  13.754  1.00  0.00     0.118 C
HETATM    4  N2  UNL     1      11.632  -5.722  13.132  1.00  0.00    -0.190 NA
HETATM    5  C12 UNL     1      13.826  -6.769  15.716  1.00  0.00     0.059 A
HETATM    6  C13 UNL     1      15.117  -6.658  16.146  1.00  0.00     0.045 A
HETATM    7  C14 UNL     1      15.724  -7.216  17.262  1.00  0.00     0.085 A
HETATM    8  N3  UNL     1      17.024  -6.983  17.516  1.00  0.00    -0.346 N
ATOM      9  H3  UNL     1      17.489  -7.383  18.331  1.00  0.00     0.167 HD
HETATM   10  C20 UNL     1      17.681  -6.198  16.644  1.00  0.00     0.182 A
HETATM   11  N4  UNL     1      17.096  -5.653  15.560  1.00  0.00    -0.338 N
ATOM     12  H4  UNL     1      17.652  -5.065  14.939  1.00  0.00     0.168 HD
HETATM   13  C21 UNL     1      15.788  -5.864  15.271  1.00  0.00     0.123 A
ENDROOT
BRANCH   1  14
HETATM   14  C9  UNL     1      15.394  -4.621  13.226  1.00  0.00     0.134 C
HETATM   15  C5  UNL     1      14.463  -3.858  12.396  1.00  0.00     0.065 C
HETATM   16  C6  UNL     1      15.431  -3.352  11.296  1.00  0.00     0.159 C
HETATM   17  C7  UNL     1      16.287  -4.534  10.973  1.00  0.00     0.178 C
HETATM   18  C8  UNL     1      16.290  -5.339  12.237  1.00  0.00     0.173 C
BRANCH  15  19
HETATM   19  C4  UNL     1      14.039  -2.553  13.031  1.00  0.00    -0.021 C
HETATM   20  C3  UNL     1      12.909  -1.977  12.758  1.00  0.00    -0.030 C
BRANCH  20  21
HETATM   21  C2  UNL     1      11.854  -2.438  11.826  1.00  0.00     0.022 C
HETATM   22  C1  UNL     1      11.973  -1.801  10.466  1.00  0.00     0.009 C
ENDBRANCH  20  21
ENDBRANCH  15  19
BRANCH  16  23
HETATM   23  O1  UNL     1      16.247  -2.410  11.934  1.00  0.00    -0.392 OA
ATOM     24  H1  UNL     1      15.912  -1.566  11.658  1.00  0.00     0.210 HD
ENDBRANCH  16  23
BRANCH  17  25
HETATM   25  O2  UNL     1      17.569  -4.118  10.650  1.00  0.00    -0.390 OA
ATOM     26  H2  UNL     1      18.129  -4.872  10.505  1.00  0.00     0.210 HD
ENDBRANCH  17  25
BRANCH  18  27
HETATM   27  O3  UNL     1      15.920  -6.634  11.975  1.00  0.00    -0.391 OA
ATOM     28  H3  UNL     1      16.278  -6.916  11.142  1.00  0.00     0.210 HD
ENDBRANCH  18  27
ENDBRANCH   1  14
BRANCH   7  29
HETATM   29  S1  UNL     1      14.759  -8.252  18.363  1.00  0.00    -0.108 SA
BRANCH  29  30
HETATM   30  C15 UNL     1      13.729  -7.202  19.414  1.00  0.00     0.118 C
BRANCH  30  31
HETATM   31  C16 UNL     1      12.349  -7.801  19.560  1.00  0.00     0.062 C
HETATM   32  C17 UNL     1      11.954  -8.591  18.332  1.00  0.00     0.046 C
HETATM   33  C18 UNL     1      12.439  -8.783  20.738  1.00  0.00     0.046 C
BRANCH  31  34
HETATM   34  O4  UNL     1      11.388  -6.881  19.882  1.00  0.00    -0.385 OA
HETATM   35  C19 UNL     1      10.108  -7.232  19.512  1.00  0.00     0.202 C
ENDBRANCH  31  34
ENDBRANCH  30  31
ENDBRANCH  29  30
ENDBRANCH   7  29
TORSDOF 10
ENDMDL