MODEL 1
REMARK VINA RESULT: -8.465566974      0.000      0.000
REMARK  11 active torsions:
REMARK  status: ('A' for Active; 'I' for Inactive)
REMARK    1  A    between atoms: C2_2  and  C4_4
REMARK    2  A    between atoms: C4_4  and  C5_5
REMARK    3  A    between atoms: C5_5  and  O1_6
REMARK    4  A    between atoms: O1_6  and  C6_7
REMARK    5  A    between atoms: C8_9  and  C9_10
REMARK    6  A    between atoms: C10_12  and  C11_13
REMARK    7  A    between atoms: C11_13  and  O3_14
REMARK    8  A    between atoms: C12_16  and  O4_17
REMARK    9  A    between atoms: C13_19  and  O5_20
REMARK   10  A    between atoms: C14_22  and  O6_23
REMARK   11  A    between atoms: O6_23  and  C15_24
ROOT
HETATM    1  C9  UNL     1      15.626  -2.680  10.155  1.00  0.00     0.187 C
HETATM    2  O2  UNL     1      16.978  -2.644   9.819  1.00  0.00    -0.368 OA
HETATM    3  C10 UNL     1      17.582  -1.449  10.115  1.00  0.00     0.177 C
HETATM    4  C12 UNL     1      17.147  -0.350   9.163  1.00  0.00     0.180 C
HETATM    5  C13 UNL     1      15.650  -0.454   9.012  1.00  0.00     0.181 C
HETATM    6  C14 UNL     1      15.066  -1.298  10.140  1.00  0.00     0.192 C
ENDROOT
BRANCH   1   7
HETATM    7  C8  UNL     1      15.545  -3.298  11.492  1.00  0.00    -0.022 A
HETATM    8  C7  UNL     1      15.514  -4.695  11.622  1.00  0.00     0.049 A
HETATM    9  C6  UNL     1      15.435  -5.313  12.849  1.00  0.00     0.106 A
HETATM   10  C21 UNL     1      15.385  -4.491  13.957  1.00  0.00     0.119 A
HETATM   11  C20 UNL     1      15.415  -3.116  13.844  1.00  0.00     0.088 A
HETATM   12  N2  UNL     1      15.307  -4.762  15.263  1.00  0.00    -0.237 N
HETATM   13  C19 UNL     1      15.495  -2.490  12.600  1.00  0.00     0.043 A
HETATM   14  N1  UNL     1      15.353  -2.626  15.085  1.00  0.00    -0.239 N
HETATM   15  O7  UNL     1      15.289  -3.629  15.911  1.00  0.00    -0.156 OA
ATOM     16  H1  UNL     1      15.356  -1.639  15.339  1.00  0.00     0.197 HD
ATOM     17  H2  UNL     1      15.269  -5.692  15.680  1.00  0.00     0.197 HD
BRANCH   9  18
HETATM   18  O1  UNL     1      15.406  -6.692  12.961  1.00  0.00    -0.320 OA
BRANCH  18  19
HETATM   19  C5  UNL     1      16.517  -7.417  13.414  1.00  0.00     0.143 C
BRANCH  19  20
HETATM   20  C4  UNL     1      16.247  -8.399  14.442  1.00  0.00     0.026 C
BRANCH  20  21
HETATM   21  C2  UNL     1      16.135  -8.213  15.724  1.00  0.00    -0.086 C
HETATM   22  C1  UNL     1      14.891  -8.552  16.449  1.00  0.00     0.043 C
HETATM   23  C3  UNL     1      17.266  -7.640  16.547  1.00  0.00     0.043 C
ENDBRANCH  20  21
ENDBRANCH  19  20
ENDBRANCH  18  19
ENDBRANCH   9  18
ENDBRANCH   1   7
BRANCH   6  24
HETATM   24  O6  UNL     1      13.663  -1.252   9.931  1.00  0.00    -0.352 OA
BRANCH  24  25
HETATM   25  C15 UNL     1      12.793  -0.693  10.855  1.00  0.00     0.137 C
HETATM   26  C16 UNL     1      11.784  -1.321  11.392  1.00  0.00    -0.066 C
HETATM   27  C17 UNL     1      11.498  -2.720  11.033  1.00  0.00     0.045 C
HETATM   28  C18 UNL     1      10.917  -0.639  12.364  1.00  0.00     0.045 C
ENDBRANCH  24  25
ENDBRANCH   6  24
BRANCH   3  29
HETATM   29  C11 UNL     1      19.082  -1.632   9.908  1.00  0.00     0.198 C
BRANCH  29  30
HETATM   30  O3  UNL     1      19.454  -0.849   8.818  1.00  0.00    -0.398 OA
ATOM     31  H3  UNL     1      20.298  -0.464   9.017  1.00  0.00     0.209 HD
ENDBRANCH  29  30
ENDBRANCH   3  29
BRANCH   5  32
HETATM   32  O5  UNL     1      15.119   0.829   9.143  1.00  0.00    -0.390 OA
ATOM     33  H5  UNL     1      14.256   0.828   8.745  1.00  0.00     0.210 HD
ENDBRANCH   5  32
BRANCH   4  34
HETATM   34  O4  UNL     1      17.516   0.864   9.751  1.00  0.00    -0.390 OA
ATOM     35  H4  UNL     1      17.654   1.482   9.043  1.00  0.00     0.210 HD
ENDBRANCH   4  34
TORSDOF 11
ENDMDL