MODEL 4
REMARK VINA RESULT: -7.496971194      2.314      3.270
REMARK  12 active torsions:
REMARK  status: ('A' for Active; 'I' for Inactive)
REMARK    1  A    between atoms: C2_2  and  N1_3
REMARK    2  A    between atoms: N1_3  and  C3_4
REMARK    3  A    between atoms: N1_3  and  C6_8
REMARK    4  A    between atoms: C3_4  and  C4_5
REMARK    5  A    between atoms: C9_12  and  N4_13
REMARK    6  A    between atoms: N4_13  and  O1_15
REMARK    7  A    between atoms: C10_17  and  O2_18
REMARK    8  A    between atoms: C11_20  and  O3_21
REMARK    9  A    between atoms: C13_25  and  C14_26
REMARK   10  A    between atoms: C14_26  and  C15_27
REMARK   11  A    between atoms: C16_28  and  C17_29
REMARK   12  A    between atoms: C20_32  and  O5_33
ROOT
HETATM    1  C4  UNL     1      13.707  -1.039  10.379  1.00  0.00     0.143 C
HETATM    2  C5  UNL     1      12.614  -0.613  11.296  1.00  0.00     0.060 C
HETATM    3  N2  UNL     1      11.782  -0.274  12.020  1.00  0.00    -0.197 NA
ENDROOT
BRANCH   1   4
HETATM    4  C3  UNL     1      13.891  -2.504  10.585  1.00  0.00     0.137 C
BRANCH   4   5
HETATM    5  N1  UNL     1      15.259  -2.928  10.797  1.00  0.00    -0.377 N
BRANCH   5   6
HETATM    6  C2  UNL     1      16.345  -2.478   9.978  1.00  0.00     0.118 C
HETATM    7  C1  UNL     1      17.383  -1.662  10.692  1.00  0.00     0.026 C
ENDBRANCH   5   6
BRANCH   5   8
HETATM    8  C6  UNL     1      15.571  -3.844  11.870  1.00  0.00     0.081 A
HETATM    9  C7  UNL     1      16.198  -5.062  11.770  1.00  0.00     0.089 A
HETATM   10  C8  UNL     1      16.279  -5.574  13.049  1.00  0.00     0.151 A
HETATM   11  N3  UNL     1      15.726  -4.716  13.923  1.00  0.00    -0.280 N
HETATM   12  O6  UNL     1      16.845  -6.781  13.351  1.00  0.00    -0.325 OA
HETATM   13  C9  UNL     1      15.292  -3.658  13.198  1.00  0.00     0.158 A
HETATM   14  C10 UNL     1      15.550  -4.746  15.348  1.00  0.00     0.260 C
HETATM   15  C11 UNL     1      16.606  -5.584  16.031  1.00  0.00     0.198 C
HETATM   16  C12 UNL     1      16.482  -7.052  15.753  1.00  0.00     0.187 C
HETATM   17  O4  UNL     1      15.191  -7.474  15.552  1.00  0.00    -0.372 OA
HETATM   18  C21 UNL     1      17.176  -7.491  14.496  1.00  0.00     0.193 C
HETATM   19  C13 UNL     1      15.339  -8.799  15.146  1.00  0.00     0.157 C
HETATM   20  C20 UNL     1      16.591  -8.903  14.343  1.00  0.00     0.179 C
BRANCH  13  21
HETATM   21  N4  UNL     1      14.630  -2.482  13.701  1.00  0.00    -0.251 N
ATOM     22  H4  UNL     1      15.118  -1.596  13.831  1.00  0.00     0.196 HD
BRANCH  21  23
HETATM   23  O1  UNL     1      13.405  -2.623  13.971  1.00  0.00    -0.288 OA
ATOM     24  H1  UNL     1      13.141  -3.498  14.229  1.00  0.00     0.244 HD
ENDBRANCH  21  23
ENDBRANCH  13  21
BRANCH  14  25
HETATM   25  O2  UNL     1      15.759  -3.433  15.834  1.00  0.00    -0.373 OA
ATOM     26  H2  UNL     1      16.482  -3.465  16.450  1.00  0.00     0.212 HD
ENDBRANCH  14  25
BRANCH  15  27
HETATM   27  O3  UNL     1      16.501  -5.355  17.402  1.00  0.00    -0.388 OA
ATOM     28  H3  UNL     1      17.179  -5.865  17.830  1.00  0.00     0.210 HD
ENDBRANCH  15  27
BRANCH  19  29
HETATM   29  C14 UNL     1      15.321  -9.663  16.377  1.00  0.00     0.061 C
BRANCH  29  30
HETATM   30  C15 UNL     1      14.061  -9.598  17.137  1.00  0.00    -0.028 C
HETATM   31  C16 UNL     1      13.362 -10.676  17.438  1.00  0.00    -0.027 C
BRANCH  31  32
HETATM   32  C17 UNL     1      12.089 -10.638  18.204  1.00  0.00    -0.001 C
HETATM   33  C18 UNL     1      11.186 -11.803  17.840  1.00  0.00     0.013 C
HETATM   34  C19 UNL     1      11.327  -9.372  18.001  1.00  0.00     0.013 C
ENDBRANCH  31  32
ENDBRANCH  29  30
ENDBRANCH  19  29
BRANCH  20  35
HETATM   35  O5  UNL     1      16.357  -9.192  12.999  1.00  0.00    -0.390 OA
ATOM     36  H5  UNL     1      16.130 -10.102  12.847  1.00  0.00     0.210 HD
ENDBRANCH  20  35
ENDBRANCH   5   8
ENDBRANCH   4   5
ENDBRANCH   1   4
TORSDOF 12
ENDMDL