MODEL 5
REMARK VINA RESULT: -8.221142260      3.242      7.462
REMARK  10 active torsions:
REMARK  status: ('A' for Active; 'I' for Inactive)
REMARK    1  A    between atoms: C2_2  and  C4_4
REMARK    2  A    between atoms: C5_5  and  C6_6
REMARK    3  A    between atoms: C8_10  and  S1_11
REMARK    4  A    between atoms: S1_11  and  C9_12
REMARK    5  A    between atoms: C9_12  and  C11_14
REMARK    6  A    between atoms: N4_23  and  C16_24
REMARK    7  A    between atoms: C17_26  and  C18_27
REMARK    8  A    between atoms: C18_27  and  O2_28
REMARK    9  A    between atoms: C19_30  and  O3_31
REMARK   10  A    between atoms: C20_33  and  O4_34
ROOT
HETATM    1  C6  UNL     1      14.206  -6.928  15.228  1.00  0.00     0.111 A
HETATM    2  N1  UNL     1      13.285  -5.999  14.785  1.00  0.00    -0.337 N
ATOM      3  H1  UNL     1      12.340  -5.900  15.157  1.00  0.00     0.167 HD
HETATM    4  C7  UNL     1      13.792  -5.251  13.812  1.00  0.00     0.112 A
HETATM    5  C8  UNL     1      13.300  -4.200  13.043  1.00  0.00     0.102 A
HETATM    6  N2  UNL     1      14.131  -3.679  12.133  1.00  0.00    -0.345 N
ATOM      7  H2  UNL     1      13.795  -2.907  11.557  1.00  0.00     0.167 HD
HETATM    8  C14 UNL     1      15.387  -4.120  11.938  1.00  0.00     0.183 A
HETATM    9  N3  UNL     1      15.812  -5.139  12.709  1.00  0.00    -0.336 N
ATOM     10  H3  UNL     1      16.763  -5.479  12.570  1.00  0.00     0.168 HD
HETATM   11  C15 UNL     1      15.075  -5.726  13.635  1.00  0.00     0.142 A
HETATM   12  N4  UNL     1      15.309  -6.750  14.508  1.00  0.00    -0.287 N
ENDROOT
BRANCH  12  13
HETATM   13  C16 UNL     1      16.513  -7.495  14.628  1.00  0.00     0.263 C
HETATM   14  O1  UNL     1      17.138  -7.706  13.395  1.00  0.00    -0.353 OA
HETATM   15  C17 UNL     1      18.399  -8.217  13.682  1.00  0.00     0.179 C
HETATM   16  C19 UNL     1      18.758  -7.817  15.095  1.00  0.00     0.182 C
HETATM   17  C20 UNL     1      17.646  -6.763  15.340  1.00  0.00     0.198 C
BRANCH  15  18
HETATM   18  C18 UNL     1      19.403  -7.566  12.756  1.00  0.00     0.198 C
BRANCH  18  19
HETATM   19  O2  UNL     1      18.897  -6.360  12.270  1.00  0.00    -0.398 OA
ATOM     20  H2  UNL     1      18.412  -5.911  12.952  1.00  0.00     0.209 HD
ENDBRANCH  18  19
ENDBRANCH  15  18
BRANCH  16  21
HETATM   21  O3  UNL     1      19.988  -7.224  15.212  1.00  0.00    -0.390 OA
ATOM     22  H3  UNL     1      20.617  -7.732  15.711  1.00  0.00     0.210 HD
ENDBRANCH  16  21
BRANCH  17  23
HETATM   23  O4  UNL     1      17.434  -6.731  16.686  1.00  0.00    -0.388 OA
ATOM     24  H4  UNL     1      18.047  -6.144  17.112  1.00  0.00     0.210 HD
ENDBRANCH  17  23
ENDBRANCH  12  13
BRANCH   1  25
HETATM   25  C5  UNL     1      13.840  -7.834  16.288  1.00  0.00     0.045 C
HETATM   26  C4  UNL     1      12.706  -8.051  16.861  1.00  0.00    -0.019 C
BRANCH  26  27
HETATM   27  C2  UNL     1      12.551  -9.062  17.967  1.00  0.00    -0.000 C
HETATM   28  C1  UNL     1      13.387 -10.290  17.738  1.00  0.00     0.013 C
HETATM   29  C3  UNL     1      11.097  -9.483  17.960  1.00  0.00     0.013 C
ENDBRANCH  26  27
ENDBRANCH   1  25
BRANCH   5  30
HETATM   30  S1  UNL     1      11.666  -3.589  13.286  1.00  0.00    -0.105 SA
BRANCH  30  31
HETATM   31  C9  UNL     1      11.086  -2.402  12.101  1.00  0.00     0.053 C
HETATM   32  C10 UNL     1      11.323  -2.825  10.662  1.00  0.00     0.022 C
BRANCH  31  33
HETATM   33  C11 UNL     1      11.511  -0.987  12.307  1.00  0.00    -0.009 C
HETATM   34  C12 UNL     1      12.316  -0.430  11.165  1.00  0.00     0.011 C
HETATM   35  C13 UNL     1      10.370  -0.084  12.707  1.00  0.00     0.011 C
ENDBRANCH  31  33
ENDBRANCH  30  31
ENDBRANCH   5  30
TORSDOF 10
ENDMDL