MODEL 2
REMARK VINA RESULT: -7.260910278      1.326      3.200
REMARK  11 active torsions:
REMARK  status: ('A' for Active; 'I' for Inactive)
REMARK    1  A    between atoms: C2_2  and  C3_3
REMARK    2  A    between atoms: C6_8  and  O3_9
REMARK    3  A    between atoms: O3_9  and  C7_10
REMARK    4  A    between atoms: C7_10  and  O4_12
REMARK    5  A    between atoms: C7_10  and  C9_14
REMARK    6  A    between atoms: C12_17  and  C13_18
REMARK    7  A    between atoms: C13_18  and  O5_19
REMARK    8  A    between atoms: C13_18  and  C16_23
REMARK    9  A    between atoms: O5_19  and  C14_20
REMARK   10  A    between atoms: C19_26  and  O7_27
REMARK   11  A    between atoms: C22_31  and  O8_32
ROOT
HETATM    1  C3  UNL     1      15.821  -5.688  13.631  1.00  0.00     0.110 C
HETATM    2  C4  UNL     1      16.534  -6.887  14.274  1.00  0.00     0.054 C
HETATM    3  O1  UNL     1      16.064  -4.618  14.523  1.00  0.00    -0.302 OA
HETATM    4  C5  UNL     1      15.797  -3.286  14.265  1.00  0.00     0.289 C
HETATM    5  O2  UNL     1      15.525  -2.400  15.088  1.00  0.00    -0.262 OA
HETATM    6  C6  UNL     1      15.877  -2.980  12.743  1.00  0.00     0.234 C
HETATM    7  C12 UNL     1      16.915  -3.934  12.214  1.00  0.00     0.091 C
HETATM    8  C22 UNL     1      16.446  -5.368  12.311  1.00  0.00     0.166 C
ENDROOT
BRANCH   7   9
HETATM    9  C13 UNL     1      17.620  -3.551  10.977  1.00  0.00     0.174 C
BRANCH   9  10
HETATM   10  O5  UNL     1      18.938  -3.069  11.227  1.00  0.00    -0.311 OA
BRANCH  10  11
HETATM   11  C14 UNL     1      20.025  -3.603  10.598  1.00  0.00     0.255 C
HETATM   12  C15 UNL     1      20.323  -3.258   9.171  1.00  0.00     0.126 C
HETATM   13  O6  UNL     1      20.762  -4.388  11.248  1.00  0.00    -0.266 OA
ENDBRANCH  10  11
ENDBRANCH   9  10
BRANCH   9  14
HETATM   14  C16 UNL     1      16.939  -2.365  10.327  1.00  0.00    -0.028 A
HETATM   15  C17 UNL     1      17.520  -1.118  10.483  1.00  0.00     0.012 A
HETATM   16  C18 UNL     1      16.979   0.018   9.926  1.00  0.00     0.037 A
HETATM   17  C19 UNL     1      15.819  -0.066   9.185  1.00  0.00     0.065 A
HETATM   18  C20 UNL     1      15.238  -1.307   9.029  1.00  0.00     0.037 A
HETATM   19  C21 UNL     1      15.801  -2.438   9.599  1.00  0.00     0.012 A
BRANCH  17  20
HETATM   20  O7  UNL     1      15.258   1.077   8.614  1.00  0.00    -0.361 OA
ATOM     21  H7  UNL     1      15.440   1.303   7.709  1.00  0.00     0.217 HD
ENDBRANCH  17  20
ENDBRANCH   9  14
ENDBRANCH   7   9
BRANCH   6  22
HETATM   22  O3  UNL     1      14.643  -3.277  12.243  1.00  0.00    -0.336 OA
BRANCH  22  23
HETATM   23  C7  UNL     1      13.592  -2.477  12.492  1.00  0.00     0.183 C
HETATM   24  C8  UNL     1      12.733  -3.194  13.582  1.00  0.00     0.084 C
BRANCH  23  25
HETATM   25  O4  UNL     1      13.927  -1.270  13.121  1.00  0.00    -0.362 OA
ATOM     26  H4  UNL     1      13.411  -0.526  12.833  1.00  0.00     0.213 HD
ENDBRANCH  23  25
BRANCH  23  27
HETATM   27  C9  UNL     1      12.653  -2.178  11.400  1.00  0.00    -0.032 C
HETATM   28  C10 UNL     1      11.836  -3.089  10.893  1.00  0.00     0.019 C
HETATM   29  C11 UNL     1      12.609  -0.810  10.812  1.00  0.00     0.048 C
ENDBRANCH  23  27
ENDBRANCH  22  23
ENDBRANCH   6  22
BRANCH   8  30
HETATM   30  O8  UNL     1      15.655  -5.635  11.226  1.00  0.00    -0.392 OA
ATOM     31  H8  UNL     1      15.937  -6.378  10.705  1.00  0.00     0.210 HD
ENDBRANCH   8  30
BRANCH   1  32
HETATM   32  C2  UNL     1      14.393  -6.063  13.558  1.00  0.00     0.003 C
HETATM   33  C1  UNL     1      13.779  -6.531  14.639  1.00  0.00     0.010 C
ENDBRANCH   1  32
TORSDOF 11
ENDMDL