MODEL 2
REMARK VINA RESULT: -8.370509689      2.834      7.436
REMARK  10 active torsions:
REMARK  status: ('A' for Active; 'I' for Inactive)
REMARK    1  A    between atoms: C3_3  and  N1_4
REMARK    2  A    between atoms: C5_7  and  N2_8
REMARK    3  A    between atoms: C6_10  and  C7_11
REMARK    4  A    between atoms: C12_16  and  O2_17
REMARK    5  A    between atoms: N3_19  and  C13_20
REMARK    6  A    between atoms: C15_22  and  O3_23
REMARK    7  A    between atoms: C17_26  and  O4_27
REMARK    8  A    between atoms: N4_29  and  C18_30
REMARK    9  A    between atoms: C18_30  and  C19_31
REMARK   10  A    between atoms: C19_31  and  C20_32
ROOT
HETATM    1  C1  UNL     1      17.439  -0.516   9.640  1.00  0.00     0.014 C
HETATM    2  C2  UNL     1      16.874  -1.576   9.724  1.00  0.00    -0.097 C
HETATM    3  C3  UNL     1      16.193  -2.852   9.814  1.00  0.00     0.229 C
ENDROOT
BRANCH   3   4
HETATM    4  N1  UNL     1      15.622  -3.048  11.153  1.00  0.00    -0.253 N
HETATM    5  C4  UNL     1      16.231  -3.833  12.057  1.00  0.00     0.283 A
HETATM    6  O1  UNL     1      17.314  -4.391  11.696  1.00  0.00    -0.265 OA
HETATM    7  C5  UNL     1      15.726  -4.046  13.334  1.00  0.00     0.153 A
HETATM    8  C17 UNL     1      14.545  -3.395  13.626  1.00  0.00     0.179 A
HETATM    9  N4  UNL     1      13.914  -2.603  12.741  1.00  0.00    -0.278 N
HETATM   10  C23 UNL     1      14.475  -2.449  11.517  1.00  0.00     0.334 A
HETATM   11  O5  UNL     1      13.889  -1.712  10.690  1.00  0.00    -0.246 OA
BRANCH   7  12
HETATM   12  N2  UNL     1      16.398  -4.875  14.246  1.00  0.00    -0.357 N
HETATM   13  C6  UNL     1      16.311  -6.182  14.260  1.00  0.00     0.101 C
ATOM     14  H2  UNL     1      16.993  -4.431  14.944  1.00  0.00     0.165 HD
BRANCH  13  15
HETATM   15  C7  UNL     1      17.066  -6.898  15.264  1.00  0.00    -0.005 A
HETATM   16  C8  UNL     1      18.320  -7.407  14.924  1.00  0.00     0.014 A
HETATM   17  C9  UNL     1      19.049  -8.090  15.871  1.00  0.00     0.002 A
HETATM   18  C10 UNL     1      18.516  -8.255  17.130  1.00  0.00     0.017 A
HETATM   19  C11 UNL     1      17.276  -7.752  17.466  1.00  0.00     0.030 A
HETATM   20  C12 UNL     1      16.510  -7.764  18.616  1.00  0.00     0.155 A
HETATM   21  C16 UNL     1      16.523  -7.057  16.522  1.00  0.00     0.041 A
HETATM   22  N3  UNL     1      15.348  -7.124  18.428  1.00  0.00    -0.307 N
HETATM   23  C15 UNL     1      15.355  -6.689  17.144  1.00  0.00     0.156 A
BRANCH  20  24
HETATM   24  O2  UNL     1      16.932  -8.376  19.793  1.00  0.00    -0.345 OA
ATOM     25  H2  UNL     1      16.762  -8.007  20.652  1.00  0.00     0.219 HD
ENDBRANCH  20  24
BRANCH  22  26
HETATM   26  C13 UNL     1      14.300  -6.940  19.423  1.00  0.00     0.129 C
HETATM   27  C14 UNL     1      13.221  -8.000  19.290  1.00  0.00     0.027 C
ENDBRANCH  22  26
BRANCH  23  28
HETATM   28  O3  UNL     1      14.332  -5.977  16.547  1.00  0.00    -0.345 OA
ATOM     29  H3  UNL     1      14.348  -5.041  16.378  1.00  0.00     0.219 HD
ENDBRANCH  23  28
ENDBRANCH  13  15
ENDBRANCH   7  12
BRANCH   8  30
HETATM   30  O4  UNL     1      14.005  -3.578  14.889  1.00  0.00    -0.344 OA
ATOM     31  H4  UNL     1      14.533  -3.324  15.637  1.00  0.00     0.219 HD
ENDBRANCH   8  30
BRANCH   9  32
HETATM   32  C18 UNL     1      12.674  -1.944  13.103  1.00  0.00     0.136 C
BRANCH  32  33
HETATM   33  C19 UNL     1      11.459  -2.776  12.764  1.00  0.00     0.024 C
BRANCH  33  34
HETATM   34  C20 UNL     1      10.417  -1.793  12.215  1.00  0.00    -0.021 C
HETATM   35  C21 UNL     1       9.205  -1.812  13.106  1.00  0.00     0.009 C
HETATM   36  C22 UNL     1      11.002  -0.377  12.300  1.00  0.00     0.009 C
ENDBRANCH  33  34
ENDBRANCH  32  33
ENDBRANCH   9  32
ENDBRANCH   3   4
TORSDOF 10
ENDMDL