MODEL 3
REMARK VINA RESULT: -7.510871392      2.155      4.100
REMARK  11 active torsions:
REMARK  status: ('A' for Active; 'I' for Inactive)
REMARK    1  A    between atoms: C2_2  and  C3_3
REMARK    2  A    between atoms: C3_3  and  C4_4
REMARK    3  A    between atoms: C4_4  and  C5_5
REMARK    4  A    between atoms: C5_5  and  C6_6
REMARK    5  A    between atoms: C6_6  and  C7_7
REMARK    6  A    between atoms: C8_8  and  N1_10
REMARK    7  A    between atoms: N2_13  and  C11_14
REMARK    8  A    between atoms: C12_16  and  C13_17
REMARK    9  A    between atoms: C13_17  and  O3_18
REMARK   10  A    between atoms: C14_20  and  O4_21
REMARK   11  A    between atoms: C16_25  and  O6_26
ROOT
HETATM    1  N1  UNL     1      14.811  -3.407  12.149  1.00  0.00    -0.266 N
HETATM    2  C10 UNL     1      15.977  -3.924  12.562  1.00  0.00     0.337 A
HETATM    3  O1  UNL     1      17.125  -3.535  12.259  1.00  0.00    -0.246 OA
HETATM    4  N2  UNL     1      15.813  -4.966  13.386  1.00  0.00    -0.260 N
HETATM    5  C17 UNL     1      14.475  -5.095  13.484  1.00  0.00     0.110 A
HETATM    6  S1  UNL     1      13.208  -6.013  14.195  1.00  0.00    -0.082 SA
HETATM    7  C18 UNL     1      11.875  -5.199  13.541  1.00  0.00     0.054 A
HETATM    8  C19 UNL     1      12.453  -4.219  12.775  1.00  0.00     0.040 A
HETATM    9  C20 UNL     1      13.801  -4.157  12.741  1.00  0.00     0.078 A
ENDROOT
BRANCH   4  10
HETATM   10  C11 UNL     1      16.789  -5.793  14.040  1.00  0.00     0.270 C
HETATM   11  O2  UNL     1      16.530  -5.860  15.365  1.00  0.00    -0.353 OA
HETATM   12  C12 UNL     1      16.622  -6.995  16.064  1.00  0.00     0.184 C
HETATM   13  C14 UNL     1      16.324  -8.288  15.405  1.00  0.00     0.221 C
HETATM   14  C15 UNL     1      16.526  -8.283  13.938  1.00  0.00     0.190 C
HETATM   15  O5  UNL     1      16.251  -9.232  13.231  1.00  0.00    -0.292 OA
HETATM   16  C16 UNL     1      17.087  -7.069  13.328  1.00  0.00     0.239 C
BRANCH  12  17
HETATM   17  C13 UNL     1      17.960  -7.146  16.810  1.00  0.00     0.199 C
BRANCH  17  18
HETATM   18  O3  UNL     1      19.001  -6.632  16.001  1.00  0.00    -0.398 OA
ATOM     19  H3  UNL     1      19.436  -7.352  15.559  1.00  0.00     0.209 HD
ENDBRANCH  17  18
ENDBRANCH  12  17
BRANCH  13  20
HETATM   20  O4  UNL     1      17.027  -9.313  16.030  1.00  0.00    -0.385 OA
ATOM     21  H4  UNL     1      17.020 -10.090  15.485  1.00  0.00     0.210 HD
ENDBRANCH  13  20
BRANCH  16  22
HETATM   22  O6  UNL     1      18.470  -7.256  13.286  1.00  0.00    -0.383 OA
ATOM     23  H6  UNL     1      18.696  -7.724  12.490  1.00  0.00     0.210 HD
ENDBRANCH  16  22
ENDBRANCH   4  10
BRANCH   1  24
HETATM   24  C8  UNL     1      14.618  -2.315  11.221  1.00  0.00     0.014 C
HETATM   25  C7  UNL     1      13.756  -1.387  11.438  1.00  0.00    -0.002 C
HETATM   26  C9  UNL     1      15.414  -2.344   9.980  1.00  0.00     0.068 C
BRANCH  25  27
HETATM   27  C6  UNL     1      13.407  -0.227  10.537  1.00  0.00     0.029 C
BRANCH  27  28
HETATM   28  C5  UNL     1      11.999   0.190  10.743  1.00  0.00     0.004 C
BRANCH  28  29
HETATM   29  C4  UNL     1      11.150  -0.711  11.539  1.00  0.00     0.000 C
BRANCH  29  30
HETATM   30  C3  UNL     1      10.356  -0.230  12.667  1.00  0.00    -0.000 C
BRANCH  30  31
HETATM   31  C2  UNL     1       9.167  -0.977  13.144  1.00  0.00    -0.005 C
HETATM   32  C1  UNL     1       8.185  -0.124  13.898  1.00  0.00     0.005 C
ENDBRANCH  30  31
ENDBRANCH  29  30
ENDBRANCH  28  29
ENDBRANCH  27  28
ENDBRANCH  25  27
ENDBRANCH   1  24
TORSDOF 11
ENDMDL