MODEL 3
REMARK VINA RESULT: -7.411583266      2.766      8.320
REMARK  8 active torsions:
REMARK  status: ('A' for Active; 'I' for Inactive)
REMARK    1  A    between atoms: C3_7  and  C4_8
REMARK    2  A    between atoms: C4_8  and  N3_9
REMARK    3  A    between atoms: N3_9  and  O1_10
REMARK    4  A    between atoms: N3_9  and  C11_18
REMARK    5  A    between atoms: O1_10  and  C5_11
REMARK    6  A    between atoms: C5_11  and  C6_12
REMARK    7  A    between atoms: C6_12  and  C7_14
REMARK    8  A    between atoms: C15_27  and  C16_28
ROOT
HETATM    1  C4  UNL     1      15.525  -6.382  15.719  1.00  0.00     0.251 C
HETATM    2  N4  UNL     1      15.939  -5.004  15.661  1.00  0.00    -0.335 N
ATOM      3  H4  UNL     1      16.341  -4.615  16.513  1.00  0.00     0.164 HD
HETATM    4  C14 UNL     1      15.851  -4.140  14.566  1.00  0.00     0.094 C
HETATM    5  N5  UNL     1      16.535  -3.022  14.552  1.00  0.00    -0.388 N
ATOM      6  H51 UNL     1      16.470  -2.391  13.754  1.00  0.00     0.157 HD
ATOM      7  H52 UNL     1      17.111  -2.841  15.374  1.00  0.00     0.157 HD
HETATM    8  C15 UNL     1      15.016  -4.401  13.373  1.00  0.00     0.204 C
HETATM    9  C17 UNL     1      13.808  -5.125  13.785  1.00  0.00     0.071 C
HETATM   10  S1  UNL     1      12.515  -4.645  13.498  1.00  0.00    -0.076 SA
HETATM   11  S2  UNL     1      14.028  -6.643  14.664  1.00  0.00    -0.057 SA
ENDROOT
BRANCH   1  12
HETATM   12  C3  UNL     1      15.044  -6.624  17.102  1.00  0.00     0.203 A
HETATM   13  N2  UNL     1      15.646  -6.193  18.258  1.00  0.00    -0.277 N
HETATM   14  N1  UNL     1      14.975  -6.576  19.304  1.00  0.00    -0.282 N
ATOM     15  H2  UNL     1      16.506  -5.645  18.292  1.00  0.00     0.189 HD
HETATM   16  C2  UNL     1      13.917  -7.266  18.847  1.00  0.00     0.136 A
ATOM     17  H1  UNL     1      15.206  -6.389  20.280  1.00  0.00     0.189 HD
HETATM   18  C1  UNL     1      12.833  -7.919  19.667  1.00  0.00     0.099 C
HETATM   19  O5  UNL     1      13.996  -7.270  17.546  1.00  0.00    -0.277 OA
ENDBRANCH   1  12
BRANCH   1  20
HETATM   20  N3  UNL     1      16.504  -7.317  15.343  1.00  0.00    -0.242 N
BRANCH  20  21
HETATM   21  O1  UNL     1      17.037  -8.110  16.227  1.00  0.00    -0.272 OA
BRANCH  21  22
HETATM   22  C5  UNL     1      18.286  -7.770  16.647  1.00  0.00     0.280 C
BRANCH  22  23
HETATM   23  C6  UNL     1      18.578  -8.309  18.021  1.00  0.00     0.160 C
HETATM   24  O2  UNL     1      17.787  -8.018  18.898  1.00  0.00    -0.295 OA
BRANCH  23  25
HETATM   25  C7  UNL     1      19.742  -9.141  18.334  1.00  0.00     0.012 C
HETATM   26  C8  UNL     1      21.018  -8.602  17.705  1.00  0.00     0.022 C
HETATM   27  C9  UNL     1      19.566 -10.550  17.804  1.00  0.00     0.022 C
HETATM   28  C10 UNL     1      19.940  -9.226  19.821  1.00  0.00     0.022 C
ENDBRANCH  23  25
ENDBRANCH  22  23
ENDBRANCH  21  22
ENDBRANCH  20  21
BRANCH  20  29
HETATM   29  C11 UNL     1      16.495  -7.766  13.977  1.00  0.00     0.105 C
HETATM   30  C12 UNL     1      17.556  -7.132  13.113  1.00  0.00     0.034 C
HETATM   31  C13 UNL     1      16.605  -9.269  13.889  1.00  0.00     0.034 C
ENDBRANCH  20  29
ENDBRANCH   1  20
BRANCH   8  32
HETATM   32  C16 UNL     1      14.625  -3.153  12.733  1.00  0.00     0.190 C
HETATM   33  O3  UNL     1      14.721  -3.007  11.489  1.00  0.00    -0.647 OA
HETATM   34  O4  UNL     1      14.134  -2.076  13.471  1.00  0.00    -0.647 OA
ENDBRANCH   8  32
TORSDOF 8
ENDMDL