MODEL 1
REMARK VINA RESULT: -8.567863502      0.000      0.000
REMARK  9 active torsions:
REMARK  status: ('A' for Active; 'I' for Inactive)
REMARK    1  A    between atoms: C2_3  and  O1_7
REMARK    2  A    between atoms: O1_7  and  C3_8
REMARK    3  A    between atoms: C3_8  and  C4_9
REMARK    4  A    between atoms: C5_11  and  C6_12
REMARK    5  A    between atoms: C6_12  and  O3_13
REMARK    6  A    between atoms: C6_12  and  C7_15
REMARK    7  A    between atoms: N3_18  and  C10_19
REMARK    8  A    between atoms: C10_19  and  C11_20
REMARK    9  A    between atoms: C19_29  and  O4_30
ROOT
HETATM    1  N1  UNL     1       9.242   0.862  13.630  1.00  0.00    -0.188 NA
HETATM    2  C1  UNL     1      10.010   0.181  13.086  1.00  0.00     0.144 C
HETATM    3  C2  UNL     1      11.019  -0.659  12.412  1.00  0.00     0.220 C
HETATM    4  N2  UNL     1      11.492  -0.257  11.254  1.00  0.00    -0.371 N
ATOM      5  H21 UNL     1      12.189  -0.838  10.788  1.00  0.00     0.158 HD
ATOM      6  H22 UNL     1      11.113   0.613  10.883  1.00  0.00     0.158 HD
ENDROOT
BRANCH   3   7
HETATM    7  O1  UNL     1      11.492  -1.747  12.876  1.00  0.00    -0.321 OA
BRANCH   7   8
HETATM    8  C3  UNL     1      12.106  -2.850  13.085  1.00  0.00     0.244 C
BRANCH   8   9
HETATM    9  C4  UNL     1      13.457  -2.928  12.404  1.00  0.00     0.098 A
HETATM   10  O2  UNL     1      14.056  -2.014  11.735  1.00  0.00    -0.313 OA
HETATM   11  C5  UNL     1      15.242  -2.445  11.248  1.00  0.00     0.084 A
HETATM   12  C20 UNL     1      15.378  -3.742  11.663  1.00  0.00     0.060 A
HETATM   13  C21 UNL     1      14.280  -4.053  12.377  1.00  0.00     0.079 A
HETATM   14  C22 UNL     1      13.999  -5.260  13.117  1.00  0.00     0.102 C
HETATM   15  N5  UNL     1      13.755  -6.194  13.745  1.00  0.00    -0.191 NA
BRANCH  11  16
HETATM   16  C6  UNL     1      16.039  -1.541  10.443  1.00  0.00     0.182 C
BRANCH  16  17
HETATM   17  O3  UNL     1      15.240  -1.327   9.244  1.00  0.00    -0.388 OA
ATOM     18  H3  UNL     1      14.351  -1.529   9.515  1.00  0.00     0.210 HD
ENDBRANCH  16  17
BRANCH  16  19
HETATM   19  C7  UNL     1      17.349  -2.103   9.864  1.00  0.00     0.056 C
HETATM   20  C8  UNL     1      18.366  -2.154  10.988  1.00  0.00     0.030 C
HETATM   21  C9  UNL     1      19.766  -2.033  10.634  1.00  0.00     0.127 C
HETATM   22  N3  UNL     1      20.049  -2.053   9.202  1.00  0.00    -0.370 N
HETATM   23  C18 UNL     1      19.228  -1.319   8.411  1.00  0.00     0.095 C
HETATM   24  C19 UNL     1      17.887  -0.948   8.962  1.00  0.00     0.163 C
BRANCH  22  25
HETATM   25  C10 UNL     1      21.444  -2.085   9.098  1.00  0.00     0.087 C
BRANCH  25  26
HETATM   26  C11 UNL     1      22.222  -3.038   8.299  1.00  0.00     0.081 C
HETATM   27  C12 UNL     1      22.289  -2.665   6.878  1.00  0.00     0.074 C
HETATM   28  N4  UNL     1      22.367  -2.353   5.779  1.00  0.00    -0.196 NA
HETATM   29  C13 UNL     1      23.425  -3.583   8.913  1.00  0.00     0.030 C
HETATM   30  C14 UNL     1      23.195  -4.872   9.721  1.00  0.00     0.002 C
HETATM   31  C15 UNL     1      22.961  -6.007   8.749  1.00  0.00     0.000 C
HETATM   32  C16 UNL     1      22.085  -5.417   7.653  1.00  0.00     0.002 C
HETATM   33  C17 UNL     1      21.242  -4.321   8.211  1.00  0.00     0.030 C
ENDBRANCH  25  26
ENDBRANCH  22  25
BRANCH  24  34
HETATM   34  O4  UNL     1      17.949   0.212   9.794  1.00  0.00    -0.390 OA
ATOM     35  H4  UNL     1      18.829   0.559   9.700  1.00  0.00     0.210 HD
ENDBRANCH  24  34
ENDBRANCH  16  19
ENDBRANCH  11  16
ENDBRANCH   8   9
ENDBRANCH   7   8
ENDBRANCH   3   7
TORSDOF 9
ENDMDL