MODEL 1
REMARK VINA RESULT: -5.588088390      0.000      0.000
REMARK  8 active torsions:
REMARK  status: ('A' for Active; 'I' for Inactive)
REMARK    1  A    between atoms: O1_2  and  C2_3
REMARK    2  A    between atoms: C8_11  and  O2_12
REMARK    3  A    between atoms: C10_14  and  O3_15
REMARK    4  A    between atoms: C12_17  and  O4_18
REMARK    5  A    between atoms: C14_20  and  O5_21
REMARK    6  A    between atoms: C17_24  and  O6_25
REMARK    7  A    between atoms: C18_27  and  O7_28
REMARK    8  A    between atoms: C21_32  and  O8_33
ROOT
HETATM    1  C2  UNL     1      17.731  -3.426  10.692  1.00  0.00     0.102 A
HETATM    2  C3  UNL     1      18.889  -3.362   9.919  1.00  0.00     0.051 A
HETATM    3  C4  UNL     1      19.587  -2.209   9.710  1.00  0.00    -0.024 A
HETATM    4  C5  UNL     1      20.790  -2.098   8.935  1.00  0.00    -0.008 C
HETATM    5  C6  UNL     1      21.760  -2.936   8.839  1.00  0.00    -0.016 C
HETATM    6  C7  UNL     1      22.031  -4.222   9.416  1.00  0.00     0.078 A
HETATM    7  N1  UNL     1      21.863  -5.336   8.613  1.00  0.00    -0.332 N
ATOM      8  H1  UNL     1      21.471  -5.207   7.681  1.00  0.00     0.168 HD
HETATM    9  C8  UNL     1      22.188  -6.565   8.995  1.00  0.00     0.179 A
HETATM   10  C10 UNL     1      22.721  -6.820  10.232  1.00  0.00     0.156 A
HETATM   11  C12 UNL     1      22.906  -5.748  11.068  1.00  0.00     0.141 A
HETATM   12  C14 UNL     1      22.552  -4.441  10.640  1.00  0.00     0.132 A
HETATM   13  C16 UNL     1      22.799  -2.326   7.881  1.00  0.00     0.076 C
HETATM   14  C17 UNL     1      21.909  -1.506   7.004  1.00  0.00     0.155 C
HETATM   15  C18 UNL     1      21.017  -0.869   8.077  1.00  0.00     0.181 C
HETATM   16  C19 UNL     1      19.083  -1.057  10.316  1.00  0.00     0.015 A
HETATM   17  C20 UNL     1      17.942  -1.087  11.083  1.00  0.00     0.040 A
HETATM   18  C21 UNL     1      17.262  -2.253  11.277  1.00  0.00     0.099 A
ENDROOT
BRANCH  15  19
HETATM   19  O7  UNL     1      19.860  -0.394   7.519  1.00  0.00    -0.388 OA
ATOM     20  H7  UNL     1      19.489  -0.993   6.881  1.00  0.00     0.210 HD
ENDBRANCH  15  19
BRANCH  12  21
HETATM   21  O5  UNL     1      22.783  -3.462  11.558  1.00  0.00    -0.351 OA
HETATM   22  C15 UNL     1      23.841  -2.553  11.422  1.00  0.00     0.210 C
ENDBRANCH  12  21
BRANCH  14  23
HETATM   23  O6  UNL     1      22.571  -0.491   6.339  1.00  0.00    -0.392 OA
ATOM     24  H6  UNL     1      21.997   0.061   5.820  1.00  0.00     0.210 HD
ENDBRANCH  14  23
BRANCH   9  25
HETATM   25  O2  UNL     1      21.988  -7.623   8.134  1.00  0.00    -0.339 OA
HETATM   26  C9  UNL     1      22.947  -7.871   7.126  1.00  0.00     0.211 C
ENDBRANCH   9  25
BRANCH  11  27
HETATM   27  O4  UNL     1      23.436  -5.911  12.337  1.00  0.00    -0.350 OA
HETATM   28  C13 UNL     1      22.679  -6.401  13.423  1.00  0.00     0.210 C
ENDBRANCH  11  27
BRANCH   1  29
HETATM   29  O1  UNL     1      17.058  -4.599  10.880  1.00  0.00    -0.353 OA
HETATM   30  C1  UNL     1      17.035  -5.427  11.992  1.00  0.00     0.210 C
ENDBRANCH   1  29
BRANCH  10  31
HETATM   31  O3  UNL     1      23.070  -8.093  10.656  1.00  0.00    -0.349 OA
HETATM   32  C11 UNL     1      24.319  -8.694  10.525  1.00  0.00     0.210 C
ENDBRANCH  10  31
BRANCH  18  33
HETATM   33  O8  UNL     1      16.111  -2.282  12.051  1.00  0.00    -0.358 OA
ATOM     34  H8  UNL     1      16.180  -2.261  12.998  1.00  0.00     0.217 HD
ENDBRANCH  18  33
TORSDOF 8
ENDMDL