MODEL 5
REMARK VINA RESULT: -8.975966216      3.293      9.460
REMARK  12 active torsions:
REMARK  status: ('A' for Active; 'I' for Inactive)
REMARK    1  A    between atoms: O1_2  and  C2_3
REMARK    2  A    between atoms: C5_6  and  C6_7
REMARK    3  A    between atoms: C6_7  and  N1_8
REMARK    4  A    between atoms: N1_8  and  C7_10
REMARK    5  A    between atoms: N3_15  and  C9_16
REMARK    6  A    between atoms: C9_16  and  C10_17
REMARK       I    between atoms: C10_17  and  N4_19
REMARK    7  A    between atoms: C12_26  and  C13_27
REMARK    8  A    between atoms: C13_27  and  C14_28
REMARK    9  A    between atoms: C14_28  and  C15_29
REMARK   10  A    between atoms: C15_29  and  C16_30
REMARK   11  A    between atoms: C16_30  and  C17_31
REMARK   12  A    between atoms: C26_43  and  O4_44
ROOT
HETATM    1  C9  UNL     1     -14.335  20.484 -15.499  1.00  0.00     0.236 C
ENDROOT
BRANCH   1   2
HETATM    2  N3  UNL     1     -13.443  19.926 -16.509  1.00  0.00    -0.300 N
HETATM    3  C8  UNL     1     -13.662  20.174 -17.809  1.00  0.00     0.328 A
HETATM    4  N2  UNL     1     -12.845  19.668 -18.775  1.00  0.00    -0.294 N
HETATM    5  O2  UNL     1     -14.653  20.891 -18.092  1.00  0.00    -0.246 OA
HETATM    6  C7  UNL     1     -11.802  18.910 -18.433  1.00  0.00     0.112 A
ATOM      7  H2  UNL     1     -13.030  19.869 -19.757  1.00  0.00     0.172 HD
HETATM    8  C23 UNL     1     -11.562  18.646 -17.106  1.00  0.00    -0.002 A
HETATM    9  C22 UNL     1     -12.403  19.166 -16.115  1.00  0.00     0.106 A
HETATM   10  C24 UNL     1     -10.399  17.799 -16.747  1.00  0.00     0.054 C
BRANCH   6  11
HETATM   11  N1  UNL     1     -11.019  18.423 -19.326  1.00  0.00    -0.371 N
ATOM     12  H1  UNL     1     -10.677  17.473 -19.182  1.00  0.00     0.161 HD
BRANCH  11  13
HETATM   13  C6  UNL     1     -10.587  19.105 -20.507  1.00  0.00     0.160 C
BRANCH  13  14
HETATM   14  C5  UNL     1      -9.092  19.022 -20.556  1.00  0.00    -0.038 A
HETATM   15  C4  UNL     1      -8.334  20.111 -20.207  1.00  0.00     0.012 A
HETATM   16  C3  UNL     1      -6.961  20.082 -20.234  1.00  0.00     0.040 A
HETATM   17  C2  UNL     1      -6.311  18.935 -20.621  1.00  0.00     0.101 A
HETATM   18  C26 UNL     1      -7.054  17.806 -20.983  1.00  0.00     0.102 A
HETATM   19  C25 UNL     1      -8.444  17.870 -20.944  1.00  0.00     0.048 A
BRANCH  17  20
HETATM   20  O1  UNL     1      -4.927  18.873 -20.658  1.00  0.00    -0.353 OA
HETATM   21  C1  UNL     1      -4.167  19.679 -19.791  1.00  0.00     0.210 C
ENDBRANCH  17  20
BRANCH  18  22
HETATM   22  O4  UNL     1      -6.356  16.678 -21.363  1.00  0.00    -0.353 OA
HETATM   23  C27 UNL     1      -6.240  15.545 -20.524  1.00  0.00     0.210 C
ENDBRANCH  18  22
ENDBRANCH  13  14
ENDBRANCH  11  13
ENDBRANCH   6  11
ENDBRANCH   1   2
BRANCH   1  24
HETATM   24  C10 UNL     1     -13.668  21.561 -14.761  1.00  0.00     0.242 C
HETATM   25  O3  UNL     1     -12.391  21.564 -14.703  1.00  0.00    -0.271 OA
HETATM   26  N4  UNL     1     -14.328  22.591 -14.111  1.00  0.00    -0.305 N
HETATM   27  C11 UNL     1     -15.292  23.324 -14.594  1.00  0.00     0.167 A
ATOM     28  H4  UNL     1     -14.029  22.796 -13.157  1.00  0.00     0.171 HD
HETATM   29  N5  UNL     1     -15.938  24.321 -13.979  1.00  0.00    -0.279 N
HETATM   30  S1  UNL     1     -16.078  23.310 -16.129  1.00  0.00    -0.038 SA
HETATM   31  N6  UNL     1     -16.855  24.931 -14.603  1.00  0.00    -0.296 N
ATOM     32  H5  UNL     1     -15.696  24.585 -13.024  1.00  0.00     0.189 HD
HETATM   33  C12 UNL     1     -17.165  24.585 -15.840  1.00  0.00     0.069 A
ATOM     34  H6  UNL     1     -17.357  25.693 -14.149  1.00  0.00     0.187 HD
BRANCH  33  35
HETATM   35  C13 UNL     1     -18.235  25.226 -16.705  1.00  0.00     0.066 C
BRANCH  35  36
HETATM   36  C14 UNL     1     -17.744  25.093 -18.100  1.00  0.00     0.007 C
BRANCH  36  37
HETATM   37  C15 UNL     1     -16.956  26.171 -18.701  1.00  0.00     0.005 C
BRANCH  37  38
HETATM   38  C16 UNL     1     -15.510  26.063 -18.917  1.00  0.00     0.040 C
BRANCH  38  39
HETATM   39  C17 UNL     1     -14.942  24.974 -19.676  1.00  0.00    -0.035 A
HETATM   40  C18 UNL     1     -15.316  24.609 -20.975  1.00  0.00     0.026 A
HETATM   41  C19 UNL     1     -14.597  23.492 -21.325  1.00  0.00     0.088 A
HETATM   42  N7  UNL     1     -13.799  23.154 -20.300  1.00  0.00    -0.369 N
HETATM   43  C20 UNL     1     -14.012  24.051 -19.308  1.00  0.00     0.011 A
ATOM     44  H7  UNL     1     -13.151  22.367 -20.274  1.00  0.00     0.165 HD
HETATM   45  C21 UNL     1     -13.310  24.004 -18.012  1.00  0.00     0.068 C
ENDBRANCH  38  39
ENDBRANCH  37  38
ENDBRANCH  36  37
ENDBRANCH  35  36
ENDBRANCH  33  35
ENDBRANCH   1  24
TORSDOF 12
ENDMDL