MODEL 2
REMARK VINA RESULT: -8.366173101      3.004     10.550
REMARK  14 active torsions:
REMARK  status: ('A' for Active; 'I' for Inactive)
REMARK    1  A    between atoms: C3_3  and  C4_4
REMARK    2  A    between atoms: C4_4  and  N1_5
REMARK    3  A    between atoms: C4_4  and  C16_23
REMARK       I    between atoms: N1_5  and  C5_7
REMARK    4  A    between atoms: C5_7  and  C6_9
REMARK    5  A    between atoms: C6_9  and  N2_10
REMARK    6  A    between atoms: C6_9  and  C12_19
REMARK       I    between atoms: N2_10  and  C7_12
REMARK    7  A    between atoms: C7_12  and  O3_14
REMARK    8  A    between atoms: O3_14  and  C8_15
REMARK       I    between atoms: C16_23  and  N3_25
REMARK    9  A    between atoms: N3_25  and  C18_27
REMARK   10  A    between atoms: C18_27  and  C19_28
REMARK       I    between atoms: C19_28  and  N4_30
REMARK   11  A    between atoms: N4_30  and  C20_32
REMARK   12  A    between atoms: C20_32  and  C21_33
REMARK   13  A    between atoms: C20_32  and  C23_35
REMARK   14  A    between atoms: C23_35  and  C24_37
ROOT
HETATM    1  C1  UNL     1     -12.765  20.312 -13.695  1.00  0.00     0.012 C
HETATM    2  C2  UNL     1     -12.180  20.678 -14.682  1.00  0.00    -0.115 C
HETATM    3  C3  UNL     1     -11.455  21.121 -15.862  1.00  0.00     0.128 C
ENDROOT
BRANCH   3   4
HETATM    4  C4  UNL     1     -11.541  20.108 -17.012  1.00  0.00     0.188 C
BRANCH   4   5
HETATM    5  N1  UNL     1     -10.329  19.291 -16.973  1.00  0.00    -0.345 N
HETATM    6  C5  UNL     1     -10.407  17.910 -16.739  1.00  0.00     0.242 C
HETATM    7  O1  UNL     1     -11.592  17.445 -16.560  1.00  0.00    -0.271 OA
ATOM      8  H1  UNL     1      -9.419  19.729 -17.115  1.00  0.00     0.163 HD
BRANCH   6   9
HETATM    9  C6  UNL     1      -9.273  16.975 -16.683  1.00  0.00     0.186 C
BRANCH   9  10
HETATM   10  N2  UNL     1      -8.254  17.464 -17.611  1.00  0.00    -0.323 N
HETATM   11  C7  UNL     1      -7.646  16.698 -18.595  1.00  0.00     0.362 C
HETATM   12  O2  UNL     1      -7.948  15.496 -18.750  1.00  0.00    -0.238 OA
ATOM     13  H2  UNL     1      -7.969  18.440 -17.528  1.00  0.00     0.165 HD
BRANCH  11  14
HETATM   14  O3  UNL     1      -6.693  17.242 -19.429  1.00  0.00    -0.294 OA
BRANCH  14  15
HETATM   15  C8  UNL     1      -7.042  17.751 -20.699  1.00  0.00     0.061 C
HETATM   16  C9  UNL     1      -6.802  16.747 -21.802  1.00  0.00     0.046 C
HETATM   17  C10 UNL     1      -8.477  18.231 -20.761  1.00  0.00     0.046 C
HETATM   18  C11 UNL     1      -6.161  18.950 -20.975  1.00  0.00     0.046 C
ENDBRANCH  14  15
ENDBRANCH  11  14
ENDBRANCH   9  10
BRANCH   9  19
HETATM   19  C12 UNL     1      -8.642  16.893 -15.316  1.00  0.00    -0.022 C
HETATM   20  C13 UNL     1      -8.726  15.443 -14.849  1.00  0.00     0.017 C
HETATM   21  C14 UNL     1      -7.226  17.332 -15.231  1.00  0.00     0.017 C
HETATM   22  C15 UNL     1      -9.425  17.782 -14.346  1.00  0.00     0.017 C
ENDBRANCH   9  19
ENDBRANCH   6   9
ENDBRANCH   4   5
BRANCH   4  23
HETATM   23  C16 UNL     1     -11.611  20.911 -18.243  1.00  0.00     0.243 C
HETATM   24  O4  UNL     1     -10.496  21.086 -18.847  1.00  0.00    -0.271 OA
HETATM   25  N3  UNL     1     -12.755  21.473 -18.778  1.00  0.00    -0.346 N
HETATM   26  C17 UNL     1     -12.625  22.335 -19.973  1.00  0.00     0.153 C
BRANCH  25  27
HETATM   27  C18 UNL     1     -14.100  21.247 -18.322  1.00  0.00     0.228 C
BRANCH  27  28
HETATM   28  C19 UNL     1     -14.700  22.511 -17.777  1.00  0.00     0.236 C
HETATM   29  O5  UNL     1     -14.057  23.258 -17.007  1.00  0.00    -0.272 OA
HETATM   30  N4  UNL     1     -16.017  22.864 -18.143  1.00  0.00    -0.348 N
ATOM     31  H4  UNL     1     -16.555  22.269 -18.772  1.00  0.00     0.163 HD
BRANCH  30  32
HETATM   32  C20 UNL     1     -16.600  24.094 -17.608  1.00  0.00     0.161 C
BRANCH  32  33
HETATM   33  C21 UNL     1     -17.383  24.804 -18.705  1.00  0.00     0.029 C
HETATM   34  C22 UNL     1     -16.666  24.844 -20.014  1.00  0.00     0.007 C
ENDBRANCH  32  33
BRANCH  32  35
HETATM   35  C23 UNL     1     -17.414  23.812 -16.410  1.00  0.00     0.205 C
HETATM   36  O6  UNL     1     -18.543  23.256 -16.484  1.00  0.00    -0.288 OA
BRANCH  35  37
HETATM   37  C24 UNL     1     -16.878  24.192 -15.095  1.00  0.00     0.122 A
HETATM   38  N5  UNL     1     -15.780  23.842 -14.469  1.00  0.00    -0.357 N
HETATM   39  C25 UNL     1     -15.505  24.307 -13.299  1.00  0.00     0.096 A
ATOM     40  H5  UNL     1     -15.133  23.192 -14.916  1.00  0.00     0.166 HD
HETATM   41  C26 UNL     1     -16.401  25.179 -12.730  1.00  0.00     0.069 A
HETATM   42  S1  UNL     1     -17.601  25.274 -13.942  1.00  0.00    -0.079 SA
ENDBRANCH  35  37
ENDBRANCH  32  35
ENDBRANCH  30  32
ENDBRANCH  27  28
ENDBRANCH  25  27
ENDBRANCH   4  23
ENDBRANCH   3   4
TORSDOF 14
ENDMDL