MODEL 5
REMARK VINA RESULT: -8.788548498      1.396      3.759
REMARK  13 active torsions:
REMARK  status: ('A' for Active; 'I' for Inactive)
REMARK    1  A    between atoms: C2_2  and  O1_3
REMARK    2  A    between atoms: O1_3  and  C3_4
REMARK    3  A    between atoms: C3_4  and  C4_5
REMARK    4  A    between atoms: C4_5  and  O2_6
REMARK    5  A    between atoms: O2_6  and  C5_7
REMARK    6  A    between atoms: C5_7  and  C6_8
REMARK    7  A    between atoms: C6_8  and  O3_9
REMARK    8  A    between atoms: O3_9  and  C7_10
REMARK    9  A    between atoms: C9_12  and  N1_13
REMARK   10  A    between atoms: C17_22  and  N3_23
REMARK   11  A    between atoms: N3_23  and  C18_25
REMARK   12  A    between atoms: C22_32  and  N6_33
REMARK   13  A    between atoms: N6_33  and  C23_35
ROOT
HETATM    1  C18 UNL     1     -12.993  20.011 -18.712  1.00  0.00     0.684 A
HETATM    2  N4  UNL     1     -12.969  20.968 -19.657  1.00  0.00    -0.200 N
ATOM      3  H4  UNL     1     -12.403  20.824 -20.494  1.00  0.00     0.183 HD
HETATM    4  C19 UNL     1     -13.673  22.115 -19.532  1.00  0.00     0.132 A
HETATM    5  C20 UNL     1     -14.451  22.361 -18.424  1.00  0.00     0.104 A
HETATM    6  C21 UNL     1     -15.209  23.569 -18.264  1.00  0.00     0.104 C
HETATM    7  N5  UNL     1     -15.840  24.537 -18.134  1.00  0.00    -0.191 NA
HETATM    8  C22 UNL     1     -14.473  21.366 -17.449  1.00  0.00     0.139 A
HETATM    9  N8  UNL     1     -13.754  20.242 -17.624  1.00  0.00    -0.175 N
ATOM     10  H8  UNL     1     -13.785  19.529 -16.895  1.00  0.00     0.186 HD
ENDROOT
BRANCH   8  11
HETATM   11  N6  UNL     1     -15.202  21.596 -16.412  1.00  0.00    -0.366 N
ATOM     12  H6  UNL     1     -16.141  21.203 -16.344  1.00  0.00     0.161 HD
BRANCH  11  13
HETATM   13  C23 UNL     1     -14.682  22.409 -15.357  1.00  0.00     0.118 C
HETATM   14  C24 UNL     1     -15.797  23.023 -14.510  1.00  0.00     0.036 C
HETATM   15  C25 UNL     1     -15.045  23.288 -13.203  1.00  0.00     0.060 C
HETATM   16  C26 UNL     1     -14.270  22.031 -13.062  1.00  0.00     0.017 A
HETATM   17  N7  UNL     1     -13.699  21.206 -12.165  1.00  0.00    -0.369 N
HETATM   18  C29 UNL     1     -14.054  21.509 -14.331  1.00  0.00    -0.012 A
HETATM   19  C27 UNL     1     -13.122  20.173 -12.796  1.00  0.00     0.089 A
ATOM     20  H7  UNL     1     -13.705  21.347 -11.155  1.00  0.00     0.165 HD
HETATM   21  C28 UNL     1     -13.342  20.362 -14.133  1.00  0.00     0.028 A
ENDBRANCH  11  13
ENDBRANCH   8  11
BRANCH   1  22
HETATM   22  N3  UNL     1     -12.330  18.906 -18.809  1.00  0.00    -0.189 N
ATOM     23  H3  UNL     1     -12.812  18.038 -18.578  1.00  0.00     0.184 HD
BRANCH  22  24
HETATM   24  C17 UNL     1     -10.985  18.828 -19.214  1.00  0.00     0.082 A
HETATM   25  C7  UNL     1      -9.979  18.748 -18.285  1.00  0.00     0.098 A
HETATM   26  C8  UNL     1      -8.658  18.671 -18.707  1.00  0.00     0.068 A
HETATM   27  C9  UNL     1      -8.302  18.671 -20.057  1.00  0.00     0.033 A
HETATM   28  C15 UNL     1      -9.321  18.751 -20.966  1.00  0.00     0.032 A
HETATM   29  C16 UNL     1     -10.654  18.830 -20.546  1.00  0.00     0.035 A
BRANCH  25  30
HETATM   30  O3  UNL     1     -10.318  18.748 -16.943  1.00  0.00    -0.347 OA
BRANCH  30  31
HETATM   31  C6  UNL     1      -9.964  17.594 -16.163  1.00  0.00     0.201 C
BRANCH  31  32
HETATM   32  C5  UNL     1      -9.066  18.098 -15.073  1.00  0.00     0.194 C
BRANCH  32  33
HETATM   33  O2  UNL     1      -8.815  17.131 -14.154  1.00  0.00    -0.387 OA
BRANCH  33  34
HETATM   34  C4  UNL     1      -9.087  15.855 -14.598  1.00  0.00     0.193 C
BRANCH  34  35
HETATM   35  C3  UNL     1      -7.736  15.113 -14.549  1.00  0.00     0.193 C
BRANCH  35  36
HETATM   36  O1  UNL     1      -7.658  14.373 -15.724  1.00  0.00    -0.389 OA
BRANCH  36  37
HETATM   37  C2  UNL     1      -6.544  14.784 -16.435  1.00  0.00     0.163 C
HETATM   38  C1  UNL     1      -7.008  15.513 -17.666  1.00  0.00     0.033 C
ENDBRANCH  36  37
ENDBRANCH  35  36
ENDBRANCH  34  35
ENDBRANCH  33  34
ENDBRANCH  32  33
ENDBRANCH  31  32
ENDBRANCH  30  31
ENDBRANCH  25  30
BRANCH  27  39
HETATM   39  N1  UNL     1      -6.927  18.589 -20.394  1.00  0.00    -0.377 N
HETATM   40  C10 UNL     1      -5.992  19.574 -19.877  1.00  0.00     0.153 C
HETATM   41  C11 UNL     1      -4.626  19.345 -20.446  1.00  0.00     0.291 C
HETATM   42  N2  UNL     1      -4.220  18.010 -20.135  1.00  0.00     0.087 N
HETATM   43  C12 UNL     1      -2.844  17.831 -20.485  1.00  0.00     0.310 C
HETATM   44  C13 UNL     1      -5.110  16.999 -20.601  1.00  0.00     0.291 C
HETATM   45  C14 UNL     1      -6.384  17.559 -21.245  1.00  0.00     0.153 C
ENDBRANCH  27  39
ENDBRANCH  22  24
ENDBRANCH   1  22
TORSDOF 13
ENDMDL