MODEL 4
REMARK VINA RESULT: -7.211733932      0.990      1.451
REMARK  13 active torsions:
REMARK  status: ('A' for Active; 'I' for Inactive)
REMARK    1  A    between atoms: C2_2  and  N1_3
REMARK       I    between atoms: N1_3  and  C3_5
REMARK    2  A    between atoms: C3_5  and  C4_7
REMARK    3  A    between atoms: C4_7  and  N2_8
REMARK    4  A    between atoms: N2_8  and  C5_9
REMARK    5  A    between atoms: N2_8  and  C22_38
REMARK    6  A    between atoms: C5_9  and  O2_10
REMARK    7  A    between atoms: C5_9  and  C6_12
REMARK    8  A    between atoms: C6_12  and  C7_13
REMARK    9  A    between atoms: C6_12  and  N3_16
REMARK   10  A    between atoms: C7_13  and  O3_14
REMARK   11  A    between atoms: N3_16  and  C8_17
REMARK       I    between atoms: N3_16  and  C14_26
REMARK   12  A    between atoms: C8_17  and  C9_18
REMARK   13  A    between atoms: C14_26  and  C15_28
ROOT
HETATM    1  N3  UNL     1     -10.608  20.228 -18.716  1.00  0.00    -0.308 N
HETATM    2  C14 UNL     1     -11.037  21.521 -19.083  1.00  0.00     0.264 C
HETATM    3  O5  UNL     1     -10.243  22.300 -19.707  1.00  0.00    -0.267 OA
ENDROOT
BRANCH   1   4
HETATM    4  C6  UNL     1     -11.748  19.372 -18.128  1.00  0.00     0.190 C
BRANCH   4   5
HETATM    5  C5  UNL     1     -11.275  18.653 -16.953  1.00  0.00     0.145 C
BRANCH   5   6
HETATM    6  N2  UNL     1     -11.118  19.022 -15.612  1.00  0.00    -0.315 N
BRANCH   6   7
HETATM    7  C4  UNL     1      -9.996  18.899 -14.747  1.00  0.00     0.234 C
BRANCH   7   8
HETATM    8  C3  UNL     1      -9.044  17.802 -15.102  1.00  0.00     0.235 C
HETATM    9  N1  UNL     1      -9.324  16.483 -14.731  1.00  0.00    -0.360 N
ATOM     10  H1  UNL     1     -10.188  16.299 -14.221  1.00  0.00     0.162 HD
HETATM   11  O1  UNL     1      -7.988  18.053 -15.733  1.00  0.00    -0.272 OA
BRANCH   9  12
HETATM   12  C2  UNL     1      -8.460  15.368 -15.030  1.00  0.00     0.118 C
HETATM   13  C1  UNL     1      -7.458  15.133 -13.916  1.00  0.00     0.026 C
ENDBRANCH   9  12
ENDBRANCH   7   8
ENDBRANCH   6   7
BRANCH   6  14
HETATM   14  C22 UNL     1     -12.287  19.670 -15.007  1.00  0.00     0.078 A
HETATM   15  C23 UNL     1     -13.529  19.881 -15.522  1.00  0.00     0.044 A
HETATM   16  C24 UNL     1     -14.426  20.496 -14.722  1.00  0.00    -0.053 A
HETATM   17  C25 UNL     1     -15.843  20.767 -15.200  1.00  0.00     0.049 C
HETATM   18  C26 UNL     1     -14.016  20.853 -13.470  1.00  0.00     0.058 A
HETATM   19  S1  UNL     1     -12.392  20.324 -13.438  1.00  0.00    -0.084 SA
ENDBRANCH   6  14
ENDBRANCH   5   6
BRANCH   5  20
HETATM   20  O2  UNL     1     -10.919  17.418 -17.171  1.00  0.00    -0.348 OA
ATOM     21  H2  UNL     1     -10.770  17.242 -18.093  1.00  0.00     0.219 HD
ENDBRANCH   5  20
ENDBRANCH   4   5
BRANCH   4  22
HETATM   22  C7  UNL     1     -12.306  18.548 -19.193  1.00  0.00     0.198 C
BRANCH  22  23
HETATM   23  O3  UNL     1     -13.396  17.816 -18.767  1.00  0.00    -0.398 OA
ATOM     24  H3  UNL     1     -13.171  16.911 -18.586  1.00  0.00     0.209 HD
ENDBRANCH  22  23
ENDBRANCH   4  22
ENDBRANCH   1   4
BRANCH   1  25
HETATM   25  C8  UNL     1      -9.317  19.702 -18.492  1.00  0.00     0.111 C
BRANCH  25  26
HETATM   26  C9  UNL     1      -8.480  19.003 -19.471  1.00  0.00     0.035 A
HETATM   27  C10 UNL     1      -7.922  17.752 -19.451  1.00  0.00     0.043 A
HETATM   28  C11 UNL     1      -8.165  16.577 -18.553  1.00  0.00     0.071 C
HETATM   29  N4  UNL     1      -6.995  17.717 -20.454  1.00  0.00    -0.265 N
HETATM   30  O4  UNL     1      -6.960  18.815 -21.047  1.00  0.00    -0.242 OA
ATOM     31  H4  UNL     1      -6.415  16.909 -20.684  1.00  0.00     0.194 HD
HETATM   32  C12 UNL     1      -7.828  19.681 -20.525  1.00  0.00     0.086 A
HETATM   33  C13 UNL     1      -7.938  21.069 -21.056  1.00  0.00     0.080 C
ENDBRANCH  25  26
ENDBRANCH   1  25
BRANCH   2  34
HETATM   34  C15 UNL     1     -12.307  22.189 -18.865  1.00  0.00     0.106 A
HETATM   35  C16 UNL     1     -12.604  22.744 -17.618  1.00  0.00    -0.039 A
HETATM   36  C17 UNL     1     -11.678  22.709 -16.464  1.00  0.00     0.049 C
HETATM   37  C18 UNL     1     -13.787  23.430 -17.418  1.00  0.00     0.032 A
HETATM   38  C19 UNL     1     -14.697  23.592 -18.418  1.00  0.00     0.009 A
HETATM   39  C20 UNL     1     -15.945  24.371 -18.156  1.00  0.00     0.068 C
HETATM   40  N5  UNL     1     -14.424  23.057 -19.640  1.00  0.00    -0.327 N
HETATM   41  C21 UNL     1     -13.258  22.377 -19.834  1.00  0.00     0.262 A
ATOM     42  H5  UNL     1     -15.089  23.164 -20.407  1.00  0.00     0.169 HD
HETATM   43  O6  UNL     1     -13.129  21.931 -21.014  1.00  0.00    -0.267 OA
ENDBRANCH   2  34
TORSDOF 13
ENDMDL