MODEL 4
REMARK VINA RESULT: -9.001457796      3.110      9.868
REMARK  13 active torsions:
REMARK  status: ('A' for Active; 'I' for Inactive)
REMARK       I    between atoms: C2_2  and  N1_4
REMARK    1  A    between atoms: N1_4  and  C3_6
REMARK    2  A    between atoms: C6_10  and  C7_11
REMARK    3  A    between atoms: C7_11  and  C8_12
REMARK    4  A    between atoms: C8_12  and  C9_13
REMARK    5  A    between atoms: C9_13  and  C10_14
REMARK    6  A    between atoms: C10_14  and  C11_15
REMARK    7  A    between atoms: C12_20  and  N4_21
REMARK    8  A    between atoms: N4_21  and  C13_23
REMARK    9  A    between atoms: C13_23  and  C15_25
REMARK   10  A    between atoms: C18_30  and  N6_31
REMARK       I    between atoms: N6_31  and  C20_33
REMARK       I    between atoms: C20_33  and  N7_35
REMARK   11  A    between atoms: N7_35  and  C21_37
REMARK   12  A    between atoms: C21_37  and  C22_38
REMARK   13  A    between atoms: C22_38  and  N8_39
ROOT
HETATM    1  C11 UNL     1     -12.774  19.235 -18.102  1.00  0.00     0.112 A
HETATM    2  N2  UNL     1     -14.094  19.126 -18.415  1.00  0.00    -0.274 N
ATOM      3  H2  UNL     1     -14.592  18.244 -18.542  1.00  0.00     0.189 HD
HETATM    4  N3  UNL     1     -14.640  20.327 -18.533  1.00  0.00    -0.131 N
ATOM      5  H3  UNL     1     -15.610  20.541 -18.762  1.00  0.00     0.205 HD
HETATM    6  C12 UNL     1     -13.660  21.200 -18.291  1.00  0.00     0.694 A
HETATM    7  N9  UNL     1     -12.518  20.543 -18.029  1.00  0.00    -0.178 N
ATOM      8  H9  UNL     1     -11.616  20.967 -17.812  1.00  0.00     0.185 HD
ENDROOT
BRANCH   6   9
HETATM    9  N4  UNL     1     -13.797  22.480 -18.292  1.00  0.00    -0.216 N
ATOM     10  H4  UNL     1     -13.937  22.922 -17.383  1.00  0.00     0.178 HD
BRANCH   9  11
HETATM   11  C13 UNL     1     -13.776  23.349 -19.422  1.00  0.00     0.128 C
HETATM   12  C14 UNL     1     -13.669  22.577 -20.734  1.00  0.00     0.038 C
BRANCH  11  13
HETATM   13  C15 UNL     1     -15.088  24.103 -19.408  1.00  0.00    -0.030 A
HETATM   14  C16 UNL     1     -15.671  24.553 -20.569  1.00  0.00     0.026 A
HETATM   15  C17 UNL     1     -16.870  25.238 -20.481  1.00  0.00     0.090 A
HETATM   16  N5  UNL     1     -17.484  25.477 -19.306  1.00  0.00    -0.352 N
HETATM   17  C18 UNL     1     -16.931  25.041 -18.133  1.00  0.00     0.111 A
ATOM     18  H5  UNL     1     -18.368  25.985 -19.291  1.00  0.00     0.166 HD
HETATM   19  C25 UNL     1     -15.745  24.366 -18.228  1.00  0.00     0.058 A
BRANCH  17  20
HETATM   20  N6  UNL     1     -17.625  25.292 -16.915  1.00  0.00    -0.290 N
HETATM   21  C19 UNL     1     -18.457  26.502 -16.922  1.00  0.00     0.163 C
HETATM   22  C20 UNL     1     -17.543  24.460 -15.776  1.00  0.00     0.323 C
HETATM   23  O3  UNL     1     -18.155  24.766 -14.733  1.00  0.00    -0.247 OA
HETATM   24  N7  UNL     1     -16.764  23.284 -15.827  1.00  0.00    -0.341 N
ATOM     25  H7  UNL     1     -16.264  23.039 -16.683  1.00  0.00     0.164 HD
BRANCH  24  26
HETATM   26  C21 UNL     1     -16.675  22.420 -14.658  1.00  0.00     0.143 C
BRANCH  26  27
HETATM   27  C22 UNL     1     -15.267  22.355 -14.133  1.00  0.00     0.135 C
BRANCH  27  28
HETATM   28  N8  UNL     1     -14.523  21.365 -14.826  1.00  0.00    -0.419 N
HETATM   29  C23 UNL     1     -15.146  20.098 -15.003  1.00  0.00     0.142 C
HETATM   30  C24 UNL     1     -13.144  21.352 -14.490  1.00  0.00     0.142 C
ENDBRANCH  27  28
ENDBRANCH  26  27
ENDBRANCH  24  26
ENDBRANCH  17  20
ENDBRANCH  11  13
ENDBRANCH   9  11
ENDBRANCH   6   9
BRANCH   1  31
HETATM   31  C10 UNL     1     -11.856  18.091 -17.876  1.00  0.00     0.078 C
BRANCH  31  32
HETATM   32  C9  UNL     1     -11.244  18.127 -16.480  1.00  0.00     0.008 C
BRANCH  32  33
HETATM   33  C8  UNL     1      -9.791  17.835 -16.558  1.00  0.00     0.006 C
BRANCH  33  34
HETATM   34  C7  UNL     1      -8.928  18.896 -17.141  1.00  0.00     0.049 C
BRANCH  34  35
HETATM   35  C6  UNL     1      -8.269  18.508 -18.434  1.00  0.00     0.016 A
HETATM   36  C4  UNL     1      -8.440  19.134 -19.662  1.00  0.00     0.065 A
HETATM   37  O2  UNL     1      -7.816  18.657 -20.642  1.00  0.00    -0.291 OA
HETATM   38  C5  UNL     1      -9.360  20.347 -19.767  1.00  0.00     0.078 C
HETATM   39  C3  UNL     1      -7.049  17.632 -20.522  1.00  0.00     0.194 A
HETATM   40  S1  UNL     1      -7.187  17.261 -18.861  1.00  0.00    -0.048 SA
BRANCH  39  41
HETATM   41  N1  UNL     1      -6.339  17.028 -21.456  1.00  0.00    -0.302 N
HETATM   42  C2  UNL     1      -7.001  16.065 -22.238  1.00  0.00     0.220 C
HETATM   43  C1  UNL     1      -7.908  15.040 -21.664  1.00  0.00     0.117 C
HETATM   44  O1  UNL     1      -6.812  16.075 -23.489  1.00  0.00    -0.274 OA
ATOM     45  H1  UNL     1      -5.355  17.250 -21.604  1.00  0.00     0.171 HD
ENDBRANCH  39  41
ENDBRANCH  34  35
ENDBRANCH  33  34
ENDBRANCH  32  33
ENDBRANCH  31  32
ENDBRANCH   1  31
TORSDOF 13
ENDMDL