MODEL 5
REMARK VINA RESULT: -8.918621035      0.654      1.160
REMARK  13 active torsions:
REMARK  status: ('A' for Active; 'I' for Inactive)
REMARK    1  A    between atoms: C2_2  and  C3_4
REMARK    2  A    between atoms: C3_4  and  C4_5
REMARK    3  A    between atoms: C3_4  and  N6_39
REMARK    4  A    between atoms: C4_5  and  C5_6
REMARK    5  A    between atoms: C5_6  and  C6_7
REMARK       I    between atoms: C6_7  and  N1_9
REMARK       I    between atoms: N1_9  and  C7_11
REMARK    6  A    between atoms: C7_11  and  C8_13
REMARK    7  A    between atoms: C12_19  and  N3_20
REMARK    8  A    between atoms: N3_20  and  C13_22
REMARK    9  A    between atoms: C13_22  and  C14_23
REMARK   10  A    between atoms: N5_30  and  C19_31
REMARK   11  A    between atoms: N6_39  and  C26_42
REMARK   12  A    between atoms: C26_42  and  C27_43
REMARK   13  A    between atoms: C27_43  and  N7_44
ROOT
HETATM    1  C8  UNL     1     -10.800  20.067 -16.006  1.00  0.00     0.101 A
HETATM    2  C9  UNL     1     -10.500  20.620 -17.266  1.00  0.00     0.039 A
HETATM    3  C10 UNL     1      -9.514  20.074 -18.041  1.00  0.00     0.026 A
HETATM    4  C11 UNL     1      -9.183  20.601 -19.287  1.00  0.00     0.121 A
HETATM    5  N2  UNL     1      -8.200  20.029 -19.991  1.00  0.00    -0.201 N
ATOM      6  H2  UNL     1      -7.956  20.415 -20.904  1.00  0.00     0.183 HD
HETATM    7  C12 UNL     1      -7.519  18.953 -19.530  1.00  0.00     0.679 A
HETATM    8  N4  UNL     1      -7.827  18.437 -18.337  1.00  0.00    -0.176 N
ATOM      9  H4  UNL     1      -7.315  17.627 -17.988  1.00  0.00     0.186 HD
HETATM   10  C18 UNL     1      -8.798  18.975 -17.602  1.00  0.00     0.138 A
HETATM   11  N5  UNL     1      -9.063  18.424 -16.401  1.00  0.00    -0.293 N
HETATM   12  C25 UNL     1     -10.065  18.992 -15.632  1.00  0.00     0.265 A
HETATM   13  O4  UNL     1     -10.322  18.477 -14.498  1.00  0.00    -0.267 OA
ENDROOT
BRANCH   1  14
HETATM   14  C7  UNL     1     -11.824  20.756 -15.233  1.00  0.00     0.264 C
HETATM   15  N1  UNL     1     -12.227  20.361 -13.962  1.00  0.00    -0.290 N
HETATM   16  C6  UNL     1     -13.201  20.917 -13.105  1.00  0.00     0.244 C
ATOM     17  H1  UNL     1     -11.745  19.543 -13.591  1.00  0.00     0.172 HD
HETATM   18  O2  UNL     1     -13.344  20.332 -11.988  1.00  0.00    -0.269 OA
HETATM   19  O3  UNL     1     -12.366  21.783 -15.766  1.00  0.00    -0.267 OA
BRANCH  16  20
HETATM   20  C5  UNL     1     -14.006  22.067 -13.433  1.00  0.00     0.050 C
BRANCH  20  21
HETATM   21  C4  UNL     1     -15.428  21.950 -13.776  1.00  0.00     0.073 C
BRANCH  21  22
HETATM   22  C3  UNL     1     -16.089  22.919 -14.681  1.00  0.00     0.258 C
BRANCH  22  23
HETATM   23  C2  UNL     1     -16.801  24.071 -14.162  1.00  0.00     0.153 C
HETATM   24  C1  UNL     1     -16.167  24.952 -13.100  1.00  0.00     0.093 C
HETATM   25  O1  UNL     1     -17.911  24.395 -14.521  1.00  0.00    -0.296 OA
ENDBRANCH  22  23
BRANCH  22  26
HETATM   26  N6  UNL     1     -15.083  23.427 -15.656  1.00  0.00    -0.062 N
ATOM     27  H62 UNL     1     -14.942  24.432 -15.549  1.00  0.00     0.278 HD
ATOM     28  H61 UNL     1     -14.145  23.105 -15.420  1.00  0.00     0.278 HD
BRANCH  26  29
HETATM   29  C26 UNL     1     -15.416  23.096 -16.999  1.00  0.00     0.263 C
BRANCH  29  30
HETATM   30  C27 UNL     1     -14.393  23.594 -17.982  1.00  0.00     0.298 C
BRANCH  30  31
HETATM   31  N7  UNL     1     -14.128  22.605 -19.024  1.00  0.00     0.081 N
HETATM   32  C28 UNL     1     -14.526  21.289 -18.585  1.00  0.00     0.309 C
HETATM   33  C29 UNL     1     -12.728  22.696 -19.384  1.00  0.00     0.309 C
ENDBRANCH  30  31
ENDBRANCH  29  30
ENDBRANCH  26  29
ENDBRANCH  22  26
ENDBRANCH  21  22
ENDBRANCH  20  21
ENDBRANCH  16  20
ENDBRANCH   1  14
BRANCH  11  34
HETATM   34  C19 UNL     1      -8.436  17.294 -15.835  1.00  0.00     0.095 C
HETATM   35  C20 UNL     1      -8.514  16.173 -16.886  1.00  0.00     0.026 C
HETATM   36  C21 UNL     1      -7.319  15.247 -16.750  1.00  0.00     0.002 C
HETATM   37  C22 UNL     1      -7.282  14.866 -15.270  1.00  0.00     0.000 C
HETATM   38  C23 UNL     1      -6.658  16.055 -14.599  1.00  0.00     0.002 C
HETATM   39  C24 UNL     1      -7.108  17.372 -15.223  1.00  0.00     0.026 C
ENDBRANCH  11  34
BRANCH   7  40
HETATM   40  N3  UNL     1      -6.583  18.472 -20.287  1.00  0.00    -0.225 N
ATOM     41  H3  UNL     1      -6.856  18.035 -21.168  1.00  0.00     0.177 HD
BRANCH  40  42
HETATM   42  C13 UNL     1      -5.180  18.515 -19.959  1.00  0.00     0.146 C
BRANCH  42  43
HETATM   43  C14 UNL     1      -4.667  17.100 -19.814  1.00  0.00    -0.035 C
HETATM   44  C15 UNL     1      -3.291  17.022 -20.479  1.00  0.00     0.016 C
HETATM   45  C16 UNL     1      -4.438  16.787 -18.353  1.00  0.00     0.016 C
HETATM   46  C17 UNL     1      -5.639  16.115 -20.443  1.00  0.00     0.016 C
ENDBRANCH  42  43
ENDBRANCH  40  42
ENDBRANCH   7  40
TORSDOF 13
ENDMDL