MODEL 4
REMARK VINA RESULT: -8.653672777      2.924     10.401
REMARK  13 active torsions:
REMARK  status: ('A' for Active; 'I' for Inactive)
REMARK    1  A    between atoms: C2_2  and  C4_4
REMARK    2  A    between atoms: C4_4  and  C11_17
REMARK    3  A    between atoms: N1_5  and  N2_7
REMARK       I    between atoms: N2_7  and  C5_9
REMARK    4  A    between atoms: C5_9  and  O2_11
REMARK    5  A    between atoms: O2_11  and  C6_12
REMARK    6  A    between atoms: C6_12  and  C7_13
REMARK       I    between atoms: C11_17  and  N3_19
REMARK       I    between atoms: N4_23  and  C15_24
REMARK       I    between atoms: C15_24  and  N7_29
REMARK    7  A    between atoms: N7_29  and  C17_31
REMARK    8  A    between atoms: C17_31  and  C18_32
REMARK    9  A    between atoms: C18_32  and  C19_33
REMARK   10  A    between atoms: C19_33  and  C20_34
REMARK   11  A    between atoms: C20_34  and  C21_35
REMARK   12  A    between atoms: C21_35  and  C22_36
REMARK   13  A    between atoms: C22_36  and  C23_37
ROOT
HETATM    1  C11 UNL     1     -12.342  20.939 -15.525  1.00  0.00     0.268 C
HETATM    2  O3  UNL     1     -12.064  20.997 -14.338  1.00  0.00    -0.266 OA
HETATM    3  N3  UNL     1     -11.700  20.355 -16.514  1.00  0.00    -0.345 N
HETATM    4  C12 UNL     1     -12.348  19.487 -17.520  1.00  0.00     0.128 C
HETATM    5  C13 UNL     1     -12.121  18.008 -17.288  1.00  0.00     0.040 C
HETATM    6  C14 UNL     1     -10.959  17.618 -16.478  1.00  0.00     0.143 C
HETATM    7  N4  UNL     1      -9.758  18.341 -16.706  1.00  0.00    -0.215 N
HETATM    8  C15 UNL     1      -8.805  17.697 -17.526  1.00  0.00     0.688 C
HETATM    9  N5  UNL     1      -8.724  17.874 -18.753  1.00  0.00    -0.126 N
ATOM     10  H5  UNL     1      -7.968  17.314 -19.144  1.00  0.00     0.197 HD
HETATM   11  C16 UNL     1      -9.329  18.578 -19.712  1.00  0.00     0.196 C
HETATM   12  N6  UNL     1      -9.837  19.226 -20.518  1.00  0.00    -0.171 NA
HETATM   13  N7  UNL     1      -7.894  16.780 -16.855  1.00  0.00    -0.205 N
ATOM     14  H7  UNL     1      -7.665  15.895 -17.309  1.00  0.00     0.183 HD
HETATM   15  C25 UNL     1      -9.385  19.626 -16.184  1.00  0.00     0.161 C
HETATM   16  C26 UNL     1     -10.262  20.698 -16.695  1.00  0.00     0.146 C
ENDROOT
BRANCH  13  17
HETATM   17  C17 UNL     1      -7.318  17.069 -15.605  1.00  0.00     0.079 C
BRANCH  17  18
HETATM   18  C18 UNL     1      -6.229  16.173 -15.154  1.00  0.00     0.049 C
BRANCH  18  19
HETATM   19  C19 UNL     1      -4.972  16.202 -15.946  1.00  0.00     0.032 C
BRANCH  19  20
HETATM   20  C20 UNL     1      -4.696  15.177 -16.946  1.00  0.00    -0.030 C
BRANCH  20  21
HETATM   21  C21 UNL     1      -4.373  15.492 -18.337  1.00  0.00    -0.023 C
BRANCH  21  22
HETATM   22  C22 UNL     1      -5.148  16.443 -19.123  1.00  0.00     0.104 C
BRANCH  22  23
HETATM   23  C23 UNL     1      -6.127  15.981 -20.092  1.00  0.00     0.100 A
HETATM   24  N8  UNL     1      -6.287  16.276 -21.392  1.00  0.00    -0.340 N
HETATM   25  C24 UNL     1      -7.350  15.599 -21.862  1.00  0.00     0.198 A
ATOM     26  H8  UNL     1      -5.701  16.910 -21.934  1.00  0.00     0.168 HD
HETATM   27  N9  UNL     1      -7.858  14.878 -20.856  1.00  0.00    -0.295 N
HETATM   28  N10 UNL     1      -7.128  15.106 -19.798  1.00  0.00    -0.288 N
ATOM     29  H9  UNL     1      -8.669  14.261 -20.906  1.00  0.00     0.187 HD
ATOM     30  H10 UNL     1      -7.285  14.689 -18.881  1.00  0.00     0.188 HD
ENDBRANCH  22  23
ENDBRANCH  21  22
ENDBRANCH  20  21
ENDBRANCH  19  20
ENDBRANCH  18  19
ENDBRANCH  17  18
ENDBRANCH  13  17
BRANCH   1  31
HETATM   31  C4  UNL     1     -13.852  21.825 -15.741  1.00  0.00     0.097 C
HETATM   32  N1  UNL     1     -13.333  22.290 -16.719  1.00  0.00    -0.295 N
ATOM     33  H1  UNL     1     -12.460  21.807 -16.929  1.00  0.00     0.187 HD
BRANCH  31  34
HETATM   34  C2  UNL     1     -14.456  21.277 -14.594  1.00  0.00     0.035 C
HETATM   35  C1  UNL     1     -15.580  20.241 -15.087  1.00  0.00     0.016 C
HETATM   36  C3  UNL     1     -15.311  22.377 -13.832  1.00  0.00     0.016 C
ENDBRANCH  31  34
BRANCH  32  37
HETATM   37  N2  UNL     1     -13.570  23.273 -17.630  1.00  0.00    -0.245 N
HETATM   38  C5  UNL     1     -13.969  23.010 -18.965  1.00  0.00     0.379 C
HETATM   39  O1  UNL     1     -14.126  21.882 -19.477  1.00  0.00    -0.237 OA
ATOM     40  H2  UNL     1     -13.455  24.244 -17.339  1.00  0.00     0.192 HD
BRANCH  38  41
HETATM   41  O2  UNL     1     -14.229  24.089 -19.814  1.00  0.00    -0.302 OA
BRANCH  41  42
HETATM   42  C6  UNL     1     -15.506  24.324 -20.377  1.00  0.00     0.189 C
BRANCH  42  43
HETATM   43  C7  UNL     1     -16.101  25.617 -19.900  1.00  0.00    -0.029 C
HETATM   44  C8  UNL     1     -15.234  26.268 -18.836  1.00  0.00     0.016 C
HETATM   45  C9  UNL     1     -17.438  25.331 -19.191  1.00  0.00     0.016 C
HETATM   46  C10 UNL     1     -16.353  26.517 -21.071  1.00  0.00     0.016 C
ENDBRANCH  42  43
ENDBRANCH  41  42
ENDBRANCH  38  41
ENDBRANCH  32  37
ENDBRANCH   1  31
TORSDOF 13
ENDMDL