MODEL 5
REMARK VINA RESULT: -7.599726601      3.336      6.482
REMARK  13 active torsions:
REMARK  status: ('A' for Active; 'I' for Inactive)
REMARK    1  A    between atoms: C2_2  and  S1_3
REMARK    2  A    between atoms: S1_3  and  N1_6
REMARK    3  A    between atoms: N1_6  and  C3_8
REMARK    4  A    between atoms: C3_8  and  C4_9
REMARK    5  A    between atoms: C3_8  and  C19_40
REMARK       I    between atoms: C4_9  and  N2_11
REMARK    6  A    between atoms: N2_11  and  C5_13
REMARK    7  A    between atoms: C6_18  and  C7_19
REMARK    8  A    between atoms: C7_19  and  C8_20
REMARK    9  A    between atoms: C8_20  and  C9_21
REMARK   10  A    between atoms: C9_21  and  C10_22
REMARK   11  A    between atoms: C10_22  and  C11_23
REMARK       I    between atoms: N7_29  and  C13_31
REMARK   12  A    between atoms: C13_31  and  C14_33
REMARK   13  A    between atoms: C14_33  and  C15_34
ROOT
HETATM    1  C5  UNL     1     -14.463  20.803 -17.658  1.00  0.00     0.167 A
HETATM    2  N3  UNL     1     -14.594  19.687 -18.376  1.00  0.00    -0.279 N
ATOM      3  H3  UNL     1     -15.455  19.496 -18.888  1.00  0.00     0.189 HD
HETATM    4  N4  UNL     1     -13.622  18.869 -18.410  1.00  0.00    -0.296 N
ATOM      5  H4  UNL     1     -13.701  18.010 -18.954  1.00  0.00     0.187 HD
HETATM    6  C6  UNL     1     -12.507  19.127 -17.739  1.00  0.00     0.069 A
HETATM    7  S3  UNL     1     -12.887  20.634 -17.026  1.00  0.00    -0.038 SA
ENDROOT
BRANCH   6   8
HETATM    8  C7  UNL     1     -11.258  18.281 -17.657  1.00  0.00     0.066 C
BRANCH   8   9
HETATM    9  C8  UNL     1     -11.039  17.908 -16.207  1.00  0.00     0.007 C
BRANCH   9  10
HETATM   10  C9  UNL     1     -10.009  18.762 -15.532  1.00  0.00     0.007 C
BRANCH  10  11
HETATM   11  C10 UNL     1      -8.913  17.905 -14.945  1.00  0.00     0.066 C
BRANCH  11  12
HETATM   12  C11 UNL     1      -8.033  17.378 -16.048  1.00  0.00     0.069 A
HETATM   13  N5  UNL     1      -7.690  17.950 -17.191  1.00  0.00    -0.296 N
HETATM   14  N6  UNL     1      -6.931  17.350 -18.009  1.00  0.00    -0.279 N
ATOM     15  H5  UNL     1      -8.040  18.880 -17.415  1.00  0.00     0.187 HD
HETATM   16  C12 UNL     1      -6.482  16.131 -17.701  1.00  0.00     0.167 A
ATOM     17  H6  UNL     1      -6.667  17.792 -18.890  1.00  0.00     0.189 HD
HETATM   18  N7  UNL     1      -5.696  15.338 -18.390  1.00  0.00    -0.306 N
HETATM   19  S2  UNL     1      -7.207  15.880 -16.163  1.00  0.00    -0.038 SA
HETATM   20  C13 UNL     1      -5.247  15.822 -19.646  1.00  0.00     0.224 C
ATOM     21  H7  UNL     1      -5.422  14.419 -18.042  1.00  0.00     0.171 HD
HETATM   22  O4  UNL     1      -4.191  16.505 -19.649  1.00  0.00    -0.273 OA
BRANCH  20  23
HETATM   23  C14 UNL     1      -6.040  15.495 -20.840  1.00  0.00     0.111 C
BRANCH  23  24
HETATM   24  C15 UNL     1      -5.911  16.498 -21.942  1.00  0.00    -0.043 C
HETATM   25  C16 UNL     1      -6.275  17.866 -21.445  1.00  0.00     0.015 C
HETATM   26  C17 UNL     1      -6.947  16.116 -23.009  1.00  0.00     0.015 C
HETATM   27  C18 UNL     1      -4.555  16.455 -22.597  1.00  0.00     0.015 C
ENDBRANCH  23  24
ENDBRANCH  20  23
ENDBRANCH  11  12
ENDBRANCH  10  11
ENDBRANCH   9  10
ENDBRANCH   8   9
ENDBRANCH   6   8
BRANCH   1  28
HETATM   28  N2  UNL     1     -15.372  21.740 -17.525  1.00  0.00    -0.304 N
HETATM   29  C4  UNL     1     -15.083  23.075 -17.770  1.00  0.00     0.247 C
HETATM   30  O3  UNL     1     -13.926  23.510 -17.844  1.00  0.00    -0.271 OA
ATOM     31  H2  UNL     1     -16.314  21.480 -17.234  1.00  0.00     0.171 HD
BRANCH  29  32
HETATM   32  C3  UNL     1     -16.220  24.060 -17.959  1.00  0.00     0.188 C
BRANCH  32  33
HETATM   33  N1  UNL     1     -16.410  24.779 -16.744  1.00  0.00    -0.305 N
ATOM     34  H1  UNL     1     -16.044  25.723 -16.621  1.00  0.00     0.173 HD
BRANCH  33  35
HETATM   35  S1  UNL     1     -17.270  23.997 -15.517  1.00  0.00     0.227 S
HETATM   36  O1  UNL     1     -18.144  22.939 -16.186  1.00  0.00    -0.206 OA
HETATM   37  O2  UNL     1     -18.250  24.906 -14.815  1.00  0.00    -0.206 OA
BRANCH  35  38
HETATM   38  C2  UNL     1     -16.321  23.185 -14.294  1.00  0.00     0.158 C
HETATM   39  C1  UNL     1     -16.458  21.698 -14.260  1.00  0.00     0.023 C
ENDBRANCH  35  38
ENDBRANCH  33  35
ENDBRANCH  32  33
BRANCH  32  40
HETATM   40  C19 UNL     1     -15.822  24.910 -19.136  1.00  0.00     0.010 C
HETATM   41  C20 UNL     1     -15.996  26.383 -18.790  1.00  0.00     0.012 C
HETATM   42  C21 UNL     1     -16.422  24.530 -20.440  1.00  0.00     0.012 C
ENDBRANCH  32  40
ENDBRANCH  29  32
ENDBRANCH   1  28
TORSDOF 13
ENDMDL