MODEL 4
REMARK VINA RESULT: -8.891585818      3.767      8.600
REMARK  13 active torsions:
REMARK  status: ('A' for Active; 'I' for Inactive)
REMARK    1  A    between atoms: C2_2  and  N1_3
REMARK    2  A    between atoms: N1_3  and  C3_4
REMARK    3  A    between atoms: C3_4  and  C4_5
REMARK    4  A    between atoms: C4_5  and  N2_6
REMARK    5  A    between atoms: N2_6  and  C5_8
REMARK    6  A    between atoms: N4_12  and  C7_14
REMARK    7  A    between atoms: C7_14  and  C8_15
REMARK    8  A    between atoms: C8_15  and  C9_16
REMARK    9  A    between atoms: C9_16  and  C10_17
REMARK   10  A    between atoms: C10_17  and  N5_18
REMARK   11  A    between atoms: N9_31  and  C17_32
REMARK   12  A    between atoms: C20_35  and  O1_36
REMARK   13  A    between atoms: C23_39  and  O2_40
ROOT
HETATM    1  C5  UNL     1     -13.768  20.504 -18.126  1.00  0.00     0.151 A
HETATM    2  N3  UNL     1     -14.270  20.568 -16.892  1.00  0.00    -0.174 N
ATOM      3  H3  UNL     1     -15.127  21.092 -16.716  1.00  0.00     0.186 HD
HETATM    4  C6  UNL     1     -13.634  19.930 -15.861  1.00  0.00     0.681 A
HETATM    5  N4  UNL     1     -14.137  20.005 -14.669  1.00  0.00    -0.226 N
ATOM      6  H4  UNL     1     -13.653  19.525 -13.911  1.00  0.00     0.177 HD
HETATM    7  N7  UNL     1     -12.504  19.230 -16.042  1.00  0.00    -0.174 N
ATOM      8  H7  UNL     1     -12.052  18.764 -15.255  1.00  0.00     0.186 HD
HETATM    9  C14 UNL     1     -11.986  19.152 -17.258  1.00  0.00     0.155 A
HETATM   10  C15 UNL     1     -12.600  19.781 -18.313  1.00  0.00     0.123 A
HETATM   11  N8  UNL     1     -11.867  19.529 -19.381  1.00  0.00    -0.346 N
ATOM     12  H8  UNL     1     -12.063  19.861 -20.326  1.00  0.00     0.167 HD
HETATM   13  C16 UNL     1     -10.835  18.779 -19.030  1.00  0.00     0.185 A
HETATM   14  N9  UNL     1     -10.863  18.509 -17.684  1.00  0.00    -0.319 N
ENDROOT
BRANCH   1  15
HETATM   15  N2  UNL     1     -14.318  21.075 -19.096  1.00  0.00    -0.352 N
ATOM     16  H2  UNL     1     -15.172  20.607 -19.403  1.00  0.00     0.166 HD
BRANCH  15  17
HETATM   17  C4  UNL     1     -14.016  22.219 -19.855  1.00  0.00     0.090 C
BRANCH  17  18
HETATM   18  C3  UNL     1     -13.863  23.497 -19.126  1.00  0.00     0.281 C
BRANCH  18  19
HETATM   19  N1  UNL     1     -15.044  24.215 -18.750  1.00  0.00    -0.063 N
HETATM   20  C24 UNL     1     -14.675  25.632 -18.758  1.00  0.00     0.238 C
HETATM   21  C25 UNL     1     -15.836  26.557 -18.549  1.00  0.00     0.028 C
HETATM   22  C26 UNL     1     -16.805  26.640 -19.672  1.00  0.00     0.002 C
HETATM   23  C27 UNL     1     -16.274  26.191 -21.002  1.00  0.00     0.002 C
HETATM   24  C28 UNL     1     -15.756  24.798 -21.023  1.00  0.00     0.028 C
HETATM   25  C29 UNL     1     -16.079  24.020 -19.764  1.00  0.00     0.238 C
BRANCH  19  26
HETATM   26  C2  UNL     1     -15.478  23.885 -17.447  1.00  0.00     0.233 C
HETATM   27  C1  UNL     1     -16.902  23.363 -17.389  1.00  0.00     0.035 C
ENDBRANCH  19  26
ENDBRANCH  18  19
ENDBRANCH  17  18
ENDBRANCH  15  17
ENDBRANCH   1  15
BRANCH   5  28
HETATM   28  C7  UNL     1     -15.341  20.728 -14.357  1.00  0.00     0.138 C
BRANCH  28  29
HETATM   29  C8  UNL     1     -15.019  21.737 -13.279  1.00  0.00     0.022 C
BRANCH  29  30
HETATM   30  C9  UNL     1     -15.096  23.115 -13.841  1.00  0.00     0.022 C
BRANCH  30  31
HETATM   31  C10 UNL     1     -16.515  23.596 -13.860  1.00  0.00     0.129 C
BRANCH  31  32
HETATM   32  N5  UNL     1     -16.569  25.033 -13.645  1.00  0.00    -0.352 N
HETATM   33  C11 UNL     1     -15.910  25.689 -12.670  1.00  0.00     0.108 A
HETATM   34  C12 UNL     1     -16.220  27.011 -12.805  1.00  0.00     0.106 A
HETATM   35  N6  UNL     1     -17.044  27.132 -13.840  1.00  0.00    -0.361 N
HETATM   36  C13 UNL     1     -17.279  25.902 -14.385  1.00  0.00     0.182 A
ATOM     37  H6  UNL     1     -17.441  28.009 -14.176  1.00  0.00     0.166 HD
ENDBRANCH  31  32
ENDBRANCH  30  31
ENDBRANCH  29  30
ENDBRANCH  28  29
ENDBRANCH   5  28
BRANCH  14  38
HETATM   38  C17 UNL     1      -9.879  17.732 -17.062  1.00  0.00     0.125 C
HETATM   39  C18 UNL     1      -9.396  18.300 -15.715  1.00  0.00     0.035 C
HETATM   40  C19 UNL     1      -8.626  17.222 -15.018  1.00  0.00     0.066 C
HETATM   41  C20 UNL     1      -8.296  16.035 -15.819  1.00  0.00     0.044 C
HETATM   42  C22 UNL     1      -8.283  15.955 -17.136  1.00  0.00     0.038 C
HETATM   43  C23 UNL     1      -8.668  17.296 -17.758  1.00  0.00     0.166 C
BRANCH  41  44
HETATM   44  O1  UNL     1      -7.957  14.855 -15.118  1.00  0.00    -0.360 OA
HETATM   45  C21 UNL     1      -7.407  14.981 -13.809  1.00  0.00     0.209 C
ENDBRANCH  41  44
BRANCH  43  46
HETATM   46  O2  UNL     1      -7.532  18.048 -17.329  1.00  0.00    -0.390 OA
ATOM     47  H2  UNL     1      -7.550  18.185 -16.390  1.00  0.00     0.210 HD
ENDBRANCH  43  46
ENDBRANCH  14  38
TORSDOF 13
ENDMDL