MODEL 4
REMARK VINA RESULT: -8.191848927      2.795      9.883
REMARK  15 active torsions:
REMARK  status: ('A' for Active; 'I' for Inactive)
REMARK    1  A    between atoms: O1_2  and  C2_3
REMARK    2  A    between atoms: C2_3  and  C3_4
REMARK    3  A    between atoms: C3_4  and  C4_5
REMARK    4  A    between atoms: C4_5  and  O2_6
REMARK    5  A    between atoms: O2_6  and  C5_7
REMARK       I    between atoms: C5_7  and  N1_9
REMARK    6  A    between atoms: N2_12  and  C8_13
REMARK    7  A    between atoms: C8_13  and  C9_14
REMARK    8  A    between atoms: C9_14  and  C10_15
REMARK    9  A    between atoms: C10_15  and  N3_16
REMARK   10  A    between atoms: C14_23  and  N5_24
REMARK   11  A    between atoms: N5_24  and  C15_26
REMARK   12  A    between atoms: C15_26  and  C16_27
REMARK   13  A    between atoms: C19_30  and  N6_31
REMARK       I    between atoms: N6_31  and  C20_33
REMARK   14  A    between atoms: C20_33  and  O5_35
REMARK   15  A    between atoms: O5_35  and  C21_36
ROOT
HETATM    1  N3  UNL     1     -16.242  23.116 -17.245  1.00  0.00    -0.226 N
ATOM      2  H3  UNL     1     -16.971  23.779 -17.509  1.00  0.00     0.177 HD
HETATM    3  C11 UNL     1     -15.412  23.005 -18.167  1.00  0.00     0.679 A
HETATM    4  N4  UNL     1     -15.662  23.769 -19.283  1.00  0.00    -0.202 N
ATOM      5  H4  UNL     1     -16.482  24.375 -19.318  1.00  0.00     0.183 HD
HETATM    6  C12 UNL     1     -14.827  23.711 -20.317  1.00  0.00     0.110 A
HETATM    7  C13 UNL     1     -13.718  22.893 -20.274  1.00  0.00     0.066 A
HETATM    8  C14 UNL     1     -13.457  22.120 -19.153  1.00  0.00     0.118 A
HETATM    9  N7  UNL     1     -14.318  22.199 -18.127  1.00  0.00    -0.177 N
ATOM     10  H7  UNL     1     -14.146  21.639 -17.292  1.00  0.00     0.185 HD
ENDROOT
BRANCH   1  11
HETATM   11  C10 UNL     1     -16.489  22.622 -15.968  1.00  0.00     0.140 C
BRANCH  11  12
HETATM   12  C9  UNL     1     -15.514  23.264 -14.945  1.00  0.00     0.050 C
BRANCH  12  13
HETATM   13  C8  UNL     1     -15.049  22.208 -13.992  1.00  0.00     0.276 C
BRANCH  13  14
HETATM   14  N2  UNL     1     -13.664  21.963 -13.914  1.00  0.00     0.107 N
HETATM   15  C7  UNL     1     -13.120  21.406 -12.738  1.00  0.00     0.294 C
HETATM   16  C6  UNL     1     -12.460  20.090 -13.115  1.00  0.00     0.160 C
HETATM   17  N1  UNL     1     -12.273  20.220 -14.534  1.00  0.00    -0.300 N
HETATM   18  C5  UNL     1     -11.243  19.617 -15.305  1.00  0.00     0.364 C
HETATM   19  C27 UNL     1     -13.316  21.082 -15.029  1.00  0.00     0.402 C
HETATM   20  O3  UNL     1     -11.275  19.833 -16.554  1.00  0.00    -0.238 OA
BRANCH  18  21
HETATM   21  O2  UNL     1     -10.245  18.840 -14.805  1.00  0.00    -0.304 OA
BRANCH  21  22
HETATM   22  C4  UNL     1      -9.686  17.720 -15.437  1.00  0.00     0.182 C
BRANCH  22  23
HETATM   23  C3  UNL     1      -8.537  17.085 -14.699  1.00  0.00     0.053 C
BRANCH  23  24
HETATM   24  C2  UNL     1      -8.844  15.623 -14.416  1.00  0.00     0.169 C
BRANCH  24  25
HETATM   25  O1  UNL     1      -8.493  14.765 -15.416  1.00  0.00    -0.396 OA
HETATM   26  C1  UNL     1      -7.192  14.811 -15.847  1.00  0.00     0.201 C
ENDBRANCH  24  25
ENDBRANCH  23  24
ENDBRANCH  22  23
ENDBRANCH  21  22
ENDBRANCH  18  21
ENDBRANCH  13  14
ENDBRANCH  12  13
ENDBRANCH  11  12
ENDBRANCH   1  11
BRANCH   8  27
HETATM   27  N5  UNL     1     -12.403  21.332 -19.110  1.00  0.00    -0.376 N
ATOM     28  H5  UNL     1     -12.489  20.332 -18.929  1.00  0.00     0.161 HD
BRANCH  27  29
HETATM   29  C15 UNL     1     -11.126  21.952 -19.330  1.00  0.00     0.126 C
BRANCH  29  30
HETATM   30  C16 UNL     1      -9.985  21.009 -19.495  1.00  0.00     0.003 C
HETATM   31  C17 UNL     1      -8.878  21.503 -20.368  1.00  0.00     0.008 C
HETATM   32  C18 UNL     1      -7.670  20.557 -20.337  1.00  0.00     0.026 C
HETATM   33  C19 UNL     1      -8.186  19.183 -20.107  1.00  0.00     0.086 C
HETATM   34  C25 UNL     1      -9.506  19.025 -20.842  1.00  0.00     0.026 C
HETATM   35  C26 UNL     1     -10.557  19.689 -19.977  1.00  0.00     0.008 C
BRANCH  33  36
HETATM   36  N6  UNL     1      -7.292  18.104 -20.362  1.00  0.00    -0.332 N
HETATM   37  C20 UNL     1      -6.851  17.291 -19.266  1.00  0.00     0.361 C
HETATM   38  O4  UNL     1      -7.256  17.548 -18.081  1.00  0.00    -0.238 OA
ATOM     39  H6  UNL     1      -6.971  17.912 -21.310  1.00  0.00     0.165 HD
BRANCH  37  40
HETATM   40  O5  UNL     1      -5.997  16.216 -19.383  1.00  0.00    -0.294 OA
BRANCH  40  41
HETATM   41  C21 UNL     1      -4.585  16.383 -19.513  1.00  0.00     0.061 C
HETATM   42  C22 UNL     1      -3.790  15.338 -18.810  1.00  0.00     0.046 C
HETATM   43  C23 UNL     1      -4.323  16.231 -21.019  1.00  0.00     0.046 C
HETATM   44  C24 UNL     1      -4.131  17.761 -19.147  1.00  0.00     0.046 C
ENDBRANCH  40  41
ENDBRANCH  37  40
ENDBRANCH  33  36
ENDBRANCH  29  30
ENDBRANCH  27  29
ENDBRANCH   8  27
TORSDOF 15
ENDMDL