MODEL 5
REMARK VINA RESULT: -6.547025657      2.205      8.129
REMARK  15 active torsions:
REMARK  status: ('A' for Active; 'I' for Inactive)
REMARK    1  A    between atoms: C2_2  and  C3_3
REMARK    2  A    between atoms: C3_3  and  C4_4
REMARK    3  A    between atoms: C4_4  and  C5_5
REMARK    4  A    between atoms: C5_5  and  C6_6
REMARK    5  A    between atoms: C6_6  and  C7_7
REMARK    6  A    between atoms: C7_7  and  C8_8
REMARK    7  A    between atoms: C10_12  and  C11_13
REMARK    8  A    between atoms: C11_13  and  C12_14
REMARK    9  A    between atoms: C12_14  and  C13_15
REMARK   10  A    between atoms: C13_15  and  N1_16
REMARK   11  A    between atoms: C24_34  and  C25_35
REMARK   12  A    between atoms: C25_35  and  C26_36
REMARK   13  A    between atoms: C26_36  and  C27_37
REMARK   14  A    between atoms: C27_37  and  C28_38
REMARK   15  A    between atoms: C28_38  and  N5_39
ROOT
HETATM    1  C8  UNL     1      10.570  27.355  -0.105  1.00  0.00     0.223 C
HETATM    2  O1  UNL     1      10.205  26.505   0.940  1.00  0.00    -0.305 OA
HETATM    3  C9  UNL     1       9.512  26.709   2.076  1.00  0.00     0.273 C
HETATM    4  O2  UNL     1      10.060  26.370   3.192  1.00  0.00    -0.264 OA
HETATM    5  C10 UNL     1       8.159  27.287   2.252  1.00  0.00     0.147 C
HETATM    6  S1  UNL     1       7.479  28.130   0.857  1.00  0.00    -0.154 SA
HETATM    7  C15 UNL     1       7.804  29.881   0.744  1.00  0.00     0.075 C
HETATM    8  C16 UNL     1       6.649  30.660   0.138  1.00  0.00     0.010 C
HETATM    9  C17 UNL     1       5.968  29.911  -0.957  1.00  0.00     0.001 C
HETATM   10  C18 UNL     1       6.253  30.451  -2.346  1.00  0.00     0.000 C
HETATM   11  C19 UNL     1       7.640  29.998  -2.733  1.00  0.00     0.000 C
HETATM   12  C20 UNL     1       7.821  29.741  -4.181  1.00  0.00     0.002 C
HETATM   13  C21 UNL     1       7.979  28.300  -4.572  1.00  0.00     0.020 C
HETATM   14  C22 UNL     1       8.808  27.491  -3.605  1.00  0.00     0.122 C
HETATM   15  N4  UNL     1       7.990  26.604  -2.803  1.00  0.00    -0.359 N
ATOM     16  H4  UNL     1       6.986  26.784  -2.793  1.00  0.00     0.162 HD
HETATM   17  C23 UNL     1       8.452  25.512  -2.032  1.00  0.00     0.240 C
HETATM   18  O3  UNL     1       7.648  25.051  -1.173  1.00  0.00    -0.271 OA
HETATM   19  C24 UNL     1       9.775  24.857  -2.128  1.00  0.00     0.176 C
HETATM   20  N6  UNL     1      10.885  25.797  -2.149  1.00  0.00    -0.346 N
ATOM     21  H6  UNL     1      11.344  25.937  -3.049  1.00  0.00     0.163 HD
HETATM   22  C29 UNL     1      11.394  26.534  -1.062  1.00  0.00     0.248 C
HETATM   23  O4  UNL     1      12.634  26.545  -0.825  1.00  0.00    -0.271 OA
ENDROOT
BRANCH   5  24
HETATM   24  C11 UNL     1       8.140  28.100   3.530  1.00  0.00     0.027 C
BRANCH  24  25
HETATM   25  C12 UNL     1       7.236  27.541   4.583  1.00  0.00     0.021 C
BRANCH  25  26
HETATM   26  C13 UNL     1       6.561  26.282   4.034  1.00  0.00     0.122 C
BRANCH  26  27
HETATM   27  N1  UNL     1       6.576  25.239   5.031  1.00  0.00    -0.367 N
HETATM   28  C14 UNL     1       5.507  24.566   5.272  1.00  0.00     0.196 C
HETATM   29  N2  UNL     1       5.499  23.537   6.249  1.00  0.00    -0.067 NA
HETATM   30  N3  UNL     1       4.313  24.846   4.561  1.00  0.00    -0.067 NA
ATOM     31  H1  UNL     1       7.433  25.036   5.545  1.00  0.00     0.161 HD
ENDBRANCH  26  27
ENDBRANCH  25  26
ENDBRANCH  24  25
ENDBRANCH   5  24
BRANCH   1  32
HETATM   32  C7  UNL     1      11.423  28.522   0.418  1.00  0.00     0.042 C
BRANCH  32  33
HETATM   33  C6  UNL     1      11.210  29.774  -0.357  1.00  0.00     0.003 C
BRANCH  33  34
HETATM   34  C5  UNL     1      12.394  30.137  -1.204  1.00  0.00     0.000 C
BRANCH  34  35
HETATM   35  C4  UNL     1      12.169  29.807  -2.664  1.00  0.00     0.000 C
BRANCH  35  36
HETATM   36  C3  UNL     1      13.348  29.039  -3.197  1.00  0.00    -0.000 C
BRANCH  36  37
HETATM   37  C2  UNL     1      14.571  29.358  -2.359  1.00  0.00    -0.005 C
HETATM   38  C1  UNL     1      15.469  28.175  -2.199  1.00  0.00     0.005 C
ENDBRANCH  36  37
ENDBRANCH  35  36
ENDBRANCH  34  35
ENDBRANCH  33  34
ENDBRANCH  32  33
ENDBRANCH   1  32
BRANCH  19  39
HETATM   39  C25 UNL     1       9.851  23.938  -3.356  1.00  0.00     0.035 C
BRANCH  39  40
HETATM   40  C26 UNL     1      10.660  24.496  -4.471  1.00  0.00     0.004 C
BRANCH  40  41
HETATM   41  C27 UNL     1      11.524  23.471  -5.183  1.00  0.00     0.027 C
BRANCH  41  42
HETATM   42  C28 UNL     1      12.890  23.367  -4.507  1.00  0.00     0.229 C
BRANCH  42  43
HETATM   43  N5  UNL     1      13.215  21.949  -4.499  1.00  0.00    -0.079 N
ATOM     44  H53 UNL     1      12.412  21.344  -4.669  1.00  0.00     0.274 HD
ATOM     45  H52 UNL     1      13.764  21.649  -5.305  1.00  0.00     0.274 HD
ATOM     46  H51 UNL     1      13.675  21.778  -3.604  1.00  0.00     0.274 HD
ENDBRANCH  42  43
ENDBRANCH  41  42
ENDBRANCH  40  41
ENDBRANCH  39  40
ENDBRANCH  19  39
TORSDOF 15
ENDMDL