MODEL 1
REMARK VINA RESULT: -7.246561917      0.000      0.000
REMARK  18 active torsions:
REMARK  status: ('A' for Active; 'I' for Inactive)
REMARK    1  A    between atoms: C2_2  and  C3_3
REMARK    2  A    between atoms: C3_3  and  N1_4
REMARK    3  A    between atoms: C3_3  and  C28_41
REMARK       I    between atoms: N1_4  and  C4_6
REMARK    4  A    between atoms: C4_6  and  C5_8
REMARK       I    between atoms: N2_11  and  C8_12
REMARK    5  A    between atoms: C8_12  and  C9_14
REMARK    6  A    between atoms: C9_14  and  O3_15
REMARK    7  A    between atoms: C9_14  and  C10_17
REMARK    8  A    between atoms: C11_18  and  C12_19
REMARK    9  A    between atoms: C12_19  and  C13_20
REMARK   10  A    between atoms: C12_19  and  N4_25
REMARK   11  A    between atoms: C13_20  and  C14_21
REMARK   12  A    between atoms: C14_21  and  C15_22
REMARK   13  A    between atoms: N4_25  and  C16_27
REMARK   14  A    between atoms: C16_27  and  C17_28
REMARK   15  A    between atoms: C16_27  and  C24_35
REMARK   16  A    between atoms: C17_28  and  C18_29
REMARK   17  A    between atoms: C24_35  and  O5_36
REMARK   18  A    between atoms: C24_35  and  C25_38
ROOT
HETATM    1  C10 UNL     1       8.733  24.321  -0.793  1.00  0.00     0.012 C
HETATM    2  C11 UNL     1       7.841  25.263  -0.456  1.00  0.00    -0.003 C
ENDROOT
BRANCH   2   3
HETATM    3  C12 UNL     1       7.661  25.916   0.822  1.00  0.00     0.100 C
BRANCH   3   4
HETATM    4  C13 UNL     1       7.900  27.435   0.631  1.00  0.00     0.037 C
BRANCH   4   5
HETATM    5  C14 UNL     1       8.715  27.783  -0.547  1.00  0.00     0.102 C
BRANCH   5   6
HETATM    6  C15 UNL     1      10.138  28.115  -0.130  1.00  0.00     0.231 C
HETATM    7  N3  UNL     1      10.997  27.057   0.199  1.00  0.00    -0.062 NA
HETATM    8  O4  UNL     1      10.508  29.296  -0.087  1.00  0.00    -0.277 OA
ENDBRANCH   5   6
ENDBRANCH   4   5
ENDBRANCH   3   4
BRANCH   3   9
HETATM    9  N4  UNL     1       8.479  25.543   1.888  1.00  0.00    -0.404 N
ATOM     10  H4  UNL     1       9.395  25.147   1.675  1.00  0.00     0.154 HD
BRANCH   9  11
HETATM   11  C16 UNL     1       8.111  25.684   3.257  1.00  0.00     0.129 C
BRANCH  11  12
HETATM   12  C17 UNL     1       7.775  24.388   3.853  1.00  0.00     0.003 C
BRANCH  12  13
HETATM   13  C18 UNL     1       6.538  24.125   4.596  1.00  0.00    -0.082 C
HETATM   14  C19 UNL     1       6.553  24.043   6.086  1.00  0.00     0.034 C
HETATM   15  C20 UNL     1       5.431  23.040   6.461  1.00  0.00     0.004 C
HETATM   16  C21 UNL     1       4.178  23.384   5.681  1.00  0.00     0.001 C
HETATM   17  C22 UNL     1       4.224  24.783   5.132  1.00  0.00     0.004 C
HETATM   18  C23 UNL     1       5.346  24.930   4.100  1.00  0.00     0.034 C
ENDBRANCH  12  13
ENDBRANCH  11  12
BRANCH  11  19
HETATM   19  C24 UNL     1       9.281  26.405   3.911  1.00  0.00     0.147 C
BRANCH  19  20
HETATM   20  O5  UNL     1      10.351  26.476   2.994  1.00  0.00    -0.393 OA
ATOM     21  H5  UNL     1      11.164  26.300   3.451  1.00  0.00     0.210 HD
ENDBRANCH  19  20
BRANCH  19  22
HETATM   22  C25 UNL     1       8.979  27.766   4.423  1.00  0.00     0.008 C
HETATM   23  C26 UNL     1       9.655  28.736   3.423  1.00  0.00     0.012 C
HETATM   24  C27 UNL     1       7.556  28.191   4.479  1.00  0.00     0.012 C
ENDBRANCH  19  22
ENDBRANCH  11  19
ENDBRANCH   9  11
ENDBRANCH   3   9
ENDBRANCH   2   3
BRANCH   1  25
HETATM   25  C9  UNL     1       8.764  23.759  -2.171  1.00  0.00     0.232 C
BRANCH  25  26
HETATM   26  C8  UNL     1       8.475  24.714  -3.243  1.00  0.00     0.253 C
HETATM   27  N2  UNL     1       9.492  25.643  -3.678  1.00  0.00    -0.336 N
HETATM   28  C5  UNL     1      10.870  25.957  -3.433  1.00  0.00     0.180 C
HETATM   29  C7  UNL     1       9.426  26.801  -4.585  1.00  0.00     0.129 C
HETATM   30  C6  UNL     1      10.465  27.425  -3.654  1.00  0.00     0.055 C
HETATM   31  O2  UNL     1       7.368  24.791  -3.824  1.00  0.00    -0.270 OA
BRANCH  28  32
HETATM   32  C4  UNL     1      11.823  25.580  -4.518  1.00  0.00     0.241 C
HETATM   33  N1  UNL     1      11.661  24.324  -5.167  1.00  0.00    -0.354 N
ATOM     34  H1  UNL     1      10.881  23.736  -4.869  1.00  0.00     0.162 HD
HETATM   35  O1  UNL     1      12.749  26.338  -4.857  1.00  0.00    -0.271 OA
BRANCH  33  36
HETATM   36  C3  UNL     1      12.506  23.823  -6.202  1.00  0.00     0.091 C
BRANCH  36  37
HETATM   37  C2  UNL     1      13.119  22.523  -5.781  1.00  0.00     0.021 C
HETATM   38  C1  UNL     1      13.865  22.554  -4.490  1.00  0.00     0.007 C
ENDBRANCH  36  37
BRANCH  36  39
HETATM   39  C28 UNL     1      11.951  23.871  -7.585  1.00  0.00    -0.031 C
HETATM   40  C29 UNL     1      10.427  23.680  -7.573  1.00  0.00     0.016 C
HETATM   41  C30 UNL     1      12.170  25.226  -8.241  1.00  0.00     0.016 C
HETATM   42  C31 UNL     1      12.556  22.850  -8.517  1.00  0.00     0.016 C
ENDBRANCH  36  39
ENDBRANCH  33  36
ENDBRANCH  28  32
ENDBRANCH  25  26
BRANCH  25  43
HETATM   43  O3  UNL     1      10.029  23.183  -2.422  1.00  0.00    -0.382 OA
ATOM     44  H3  UNL     1      10.072  22.352  -1.965  1.00  0.00     0.211 HD
ENDBRANCH  25  43
ENDBRANCH   1  25
TORSDOF 18
ENDMDL