MODEL 4
REMARK VINA RESULT: -9.332631342      0.917      1.463
REMARK  18 active torsions:
REMARK  status: ('A' for Active; 'I' for Inactive)
REMARK    1  A    between atoms: C2_2  and  C4_4
REMARK    2  A    between atoms: C4_4  and  C5_5
REMARK    3  A    between atoms: C5_5  and  N1_6
REMARK    4  A    between atoms: C5_5  and  C26_36
REMARK       I    between atoms: N1_6  and  C6_8
REMARK    5  A    between atoms: C6_8  and  C7_10
REMARK    6  A    between atoms: C7_10  and  C8_11
REMARK    7  A    between atoms: C8_11  and  C9_12
REMARK    8  A    between atoms: C9_12  and  C10_13
REMARK    9  A    between atoms: C10_13  and  C11_14
REMARK   10  A    between atoms: C11_14  and  C12_15
REMARK   11  A    between atoms: C12_15  and  C13_16
REMARK       I    between atoms: C13_16  and  N2_18
REMARK   12  A    between atoms: N2_18  and  C14_20
REMARK   13  A    between atoms: C14_20  and  C15_21
REMARK   14  A    between atoms: C15_21  and  C16_22
REMARK       I    between atoms: N3_25  and  C19_26
REMARK       I    between atoms: C19_26  and  N4_28
REMARK   15  A    between atoms: N4_28  and  C20_30
REMARK   16  A    between atoms: C26_36  and  O4_37
REMARK   17  A    between atoms: C26_36  and  N5_39
REMARK   18  A    between atoms: C29_42  and  O5_43
ROOT
HETATM    1  C10 UNL     1       5.030  23.837   5.660  1.00  0.00     0.000 C
ENDROOT
BRANCH   1   2
HETATM    2  C9  UNL     1       6.534  23.851   5.984  1.00  0.00     0.000 C
BRANCH   2   3
HETATM    3  C8  UNL     1       7.358  23.668   4.762  1.00  0.00     0.009 C
BRANCH   3   4
HETATM    4  C7  UNL     1       8.027  24.867   4.208  1.00  0.00     0.103 C
BRANCH   4   5
HETATM    5  C6  UNL     1       7.637  25.201   2.803  1.00  0.00     0.218 C
HETATM    6  N1  UNL     1       8.611  25.280   1.779  1.00  0.00    -0.352 N
ATOM      7  H1  UNL     1       9.581  25.093   2.032  1.00  0.00     0.163 HD
HETATM    8  O1  UNL     1       6.409  25.397   2.640  1.00  0.00    -0.274 OA
BRANCH   6   9
HETATM    9  C5  UNL     1       8.321  25.612   0.377  1.00  0.00     0.144 C
BRANCH   9  10
HETATM   10  C4  UNL     1       8.617  27.044   0.154  1.00  0.00     0.033 C
BRANCH  10  11
HETATM   11  C2  UNL     1       9.687  27.657   0.992  1.00  0.00    -0.021 C
HETATM   12  C1  UNL     1      11.029  27.745   0.330  1.00  0.00     0.009 C
HETATM   13  C3  UNL     1       9.349  28.964   1.633  1.00  0.00     0.009 C
ENDBRANCH  10  11
ENDBRANCH   9  10
BRANCH   9  14
HETATM   14  C26 UNL     1       9.096  24.613  -0.434  1.00  0.00     0.379 C
BRANCH  14  15
HETATM   15  O4  UNL     1       8.179  23.473  -0.478  1.00  0.00    -0.366 OA
ATOM     16  H4  UNL     1       7.781  23.569  -1.336  1.00  0.00     0.212 HD
ENDBRANCH  14  15
BRANCH  14  17
HETATM   17  N5  UNL     1       9.234  24.885  -1.839  1.00  0.00     0.121 N
HETATM   18  C27 UNL     1      10.400  25.431  -2.355  1.00  0.00     0.278 C
HETATM   19  C28 UNL     1      10.421  25.075  -3.830  1.00  0.00     0.064 C
HETATM   20  C29 UNL     1       9.370  24.009  -3.946  1.00  0.00     0.148 C
HETATM   21  C30 UNL     1       9.071  23.595  -2.532  1.00  0.00     0.307 C
BRANCH  20  22
HETATM   22  O5  UNL     1       9.862  22.978  -4.727  1.00  0.00    -0.394 OA
ATOM     23  H5  UNL     1       9.621  23.137  -5.632  1.00  0.00     0.210 HD
ENDBRANCH  20  22
ENDBRANCH  14  17
ENDBRANCH   9  14
ENDBRANCH   6   9
ENDBRANCH   4   5
ENDBRANCH   3   4
ENDBRANCH   2   3
ENDBRANCH   1   2
BRANCH   1  24
HETATM   24  C11 UNL     1       4.362  22.853   6.566  1.00  0.00     0.009 C
BRANCH  24  25
HETATM   25  C12 UNL     1       2.900  22.720   6.302  1.00  0.00     0.103 C
BRANCH  25  26
HETATM   26  C13 UNL     1       2.031  23.452   7.224  1.00  0.00     0.217 C
HETATM   27  O2  UNL     1       2.299  23.586   8.437  1.00  0.00    -0.274 OA
HETATM   28  N2  UNL     1       0.827  24.034   6.698  1.00  0.00    -0.361 N
ATOM     29  H2  UNL     1       0.580  23.945   5.713  1.00  0.00     0.162 HD
BRANCH  28  30
HETATM   30  C14 UNL     1      -0.023  24.755   7.630  1.00  0.00     0.123 C
BRANCH  30  31
HETATM   31  C15 UNL     1      -1.088  23.827   8.124  1.00  0.00     0.024 C
BRANCH  31  32
HETATM   32  C16 UNL     1      -2.120  23.535   7.088  1.00  0.00    -0.010 C
HETATM   33  C17 UNL     1      -2.776  22.196   7.264  1.00  0.00     0.024 C
HETATM   34  C18 UNL     1      -3.635  22.215   8.508  1.00  0.00     0.128 C
HETATM   35  N3  UNL     1      -4.596  23.264   8.398  1.00  0.00    -0.334 N
HETATM   36  C19 UNL     1      -5.974  23.048   8.578  1.00  0.00     0.318 C
HETATM   37  C24 UNL     1      -4.136  24.608   8.099  1.00  0.00     0.128 C
HETATM   38  O3  UNL     1      -6.798  24.019   8.462  1.00  0.00    -0.247 OA
HETATM   39  N4  UNL     1      -6.537  21.793   8.889  1.00  0.00    -0.335 N
ATOM     40  H4  UNL     1      -5.920  20.986   8.991  1.00  0.00     0.165 HD
HETATM   41  C25 UNL     1      -3.170  24.613   6.956  1.00  0.00     0.024 C
BRANCH  39  42
HETATM   42  C20 UNL     1      -7.968  21.610   9.069  1.00  0.00     0.023 C
HETATM   43  C21 UNL     1      -8.399  22.405  10.281  1.00  0.00     0.037 C
HETATM   44  C22 UNL     1      -8.749  22.087   7.876  1.00  0.00     0.037 C
HETATM   45  C23 UNL     1      -8.255  20.155   9.391  1.00  0.00     0.037 C
ENDBRANCH  39  42
ENDBRANCH  31  32
ENDBRANCH  30  31
ENDBRANCH  28  30
ENDBRANCH  25  26
ENDBRANCH  24  25
ENDBRANCH   1  24
TORSDOF 18
ENDMDL