MODEL 3
REMARK VINA RESULT: -7.894852615      4.029      8.389
REMARK  16 active torsions:
REMARK  status: ('A' for Active; 'I' for Inactive)
REMARK    1  A    between atoms: C2_2  and  C3_3
REMARK    2  A    between atoms: C3_3  and  C4_5
REMARK    3  A    between atoms: C4_5  and  C5_6
REMARK    4  A    between atoms: C5_6  and  C6_7
REMARK    5  A    between atoms: C6_7  and  C7_8
REMARK    6  A    between atoms: C7_8  and  C8_9
REMARK    7  A    between atoms: C8_9  and  C9_10
REMARK    8  A    between atoms: C12_15  and  C13_16
REMARK    9  A    between atoms: C16_19  and  C17_20
REMARK   10  A    between atoms: C17_20  and  C18_21
REMARK   11  A    between atoms: C23_31  and  C24_32
REMARK   12  A    between atoms: C24_32  and  C25_33
REMARK   13  A    between atoms: C25_33  and  C26_34
REMARK   14  A    between atoms: C26_34  and  C27_35
REMARK   15  A    between atoms: C27_35  and  C28_36
REMARK   16  A    between atoms: C28_36  and  C29_37
ROOT
HETATM    1  C9  UNL     1       7.900  25.491   4.007  1.00  0.00     0.223 C
HETATM    2  O2  UNL     1       7.535  25.158   2.722  1.00  0.00    -0.306 OA
HETATM    3  C10 UNL     1       7.316  25.810   1.574  1.00  0.00     0.260 C
HETATM    4  O3  UNL     1       6.107  25.856   1.131  1.00  0.00    -0.265 OA
HETATM    5  C11 UNL     1       8.300  26.509   0.706  1.00  0.00     0.118 C
HETATM    6  C12 UNL     1       9.043  27.626   1.342  1.00  0.00     0.021 C
HETATM    7  C16 UNL     1       8.576  29.001   1.126  1.00  0.00     0.095 C
HETATM    8  N2  UNL     1       8.149  29.760   2.273  1.00  0.00    -0.354 N
ATOM      9  H2  UNL     1       8.166  30.769   2.123  1.00  0.00     0.162 HD
HETATM   10  C22 UNL     1       7.725  29.401   3.526  1.00  0.00     0.240 C
HETATM   11  O4  UNL     1       6.497  29.683   3.822  1.00  0.00    -0.271 OA
HETATM   12  C23 UNL     1       8.396  28.733   4.662  1.00  0.00     0.176 C
HETATM   13  N5  UNL     1       7.557  27.717   5.278  1.00  0.00    -0.346 N
ATOM     14  H5  UNL     1       7.284  27.875   6.249  1.00  0.00     0.163 HD
HETATM   15  C30 UNL     1       7.083  26.535   4.670  1.00  0.00     0.248 C
HETATM   16  O5  UNL     1       5.833  26.330   4.681  1.00  0.00    -0.271 OA
ENDROOT
BRANCH  12  17
HETATM   17  C24 UNL     1       8.576  29.868   5.699  1.00  0.00     0.035 C
BRANCH  17  18
HETATM   18  C25 UNL     1       7.962  29.502   7.028  1.00  0.00     0.002 C
BRANCH  18  19
HETATM   19  C26 UNL     1       8.391  30.528   8.051  1.00  0.00     0.000 C
BRANCH  19  20
HETATM   20  C27 UNL     1       9.021  29.904   9.264  1.00  0.00     0.007 C
BRANCH  20  21
HETATM   21  C28 UNL     1       8.073  29.066  10.068  1.00  0.00     0.072 C
BRANCH  21  22
HETATM   22  C29 UNL     1       8.863  28.417  11.158  1.00  0.00     0.086 C
HETATM   23  N3  UNL     1       8.535  27.265  11.633  1.00  0.00    -0.391 N
ATOM     24  H32 UNL     1       7.712  26.813  11.233  1.00  0.00     0.157 HD
ATOM     25  H31 UNL     1       9.074  26.822  12.377  1.00  0.00     0.157 HD
HETATM   26  N4  UNL     1      10.017  29.050  11.718  1.00  0.00    -0.088 NA
ENDBRANCH  21  22
ENDBRANCH  20  21
ENDBRANCH  19  20
ENDBRANCH  18  19
ENDBRANCH  17  18
ENDBRANCH  12  17
BRANCH   7  27
HETATM   27  C17 UNL     1       7.531  29.113  -0.005  1.00  0.00     0.082 C
BRANCH  27  28
HETATM   28  C18 UNL     1       8.195  29.514  -1.252  1.00  0.00     0.011 A
HETATM   29  C19 UNL     1       8.465  28.778  -2.371  1.00  0.00     0.026 A
HETATM   30  C20 UNL     1       9.098  29.572  -3.289  1.00  0.00     0.019 A
HETATM   31  C21 UNL     1       9.212  30.820  -2.711  1.00  0.00     0.088 A
HETATM   32  N1  UNL     1       8.667  30.742  -1.510  1.00  0.00    -0.369 N
ATOM     33  H1  UNL     1       8.612  31.523  -0.857  1.00  0.00     0.165 HD
ENDBRANCH  27  28
ENDBRANCH   7  27
BRANCH   1  34
HETATM   34  C8  UNL     1       7.922  24.196   4.817  1.00  0.00     0.042 C
BRANCH  34  35
HETATM   35  C7  UNL     1       6.589  23.504   4.883  1.00  0.00     0.003 C
BRANCH  35  36
HETATM   36  C6  UNL     1       6.094  23.448   6.318  1.00  0.00     0.001 C
BRANCH  36  37
HETATM   37  C5  UNL     1       4.699  22.929   6.434  1.00  0.00     0.007 C
BRANCH  37  38
HETATM   38  C4  UNL     1       3.673  23.778   5.701  1.00  0.00     0.078 C
BRANCH  38  39
HETATM   39  C3  UNL     1       2.394  23.712   6.496  1.00  0.00     0.126 C
HETATM   40  O1  UNL     1       1.347  24.096   6.030  1.00  0.00    -0.298 OA
BRANCH  39  41
HETATM   41  C2  UNL     1       2.399  23.166   7.882  1.00  0.00     0.074 C
HETATM   42  C1  UNL     1       1.126  22.330   8.079  1.00  0.00     0.013 C
ENDBRANCH  39  41
ENDBRANCH  38  39
ENDBRANCH  37  38
ENDBRANCH  36  37
ENDBRANCH  35  36
ENDBRANCH  34  35
ENDBRANCH   1  34
BRANCH   6  43
HETATM   43  C13 UNL     1      10.524  27.513   0.918  1.00  0.00    -0.016 C
HETATM   44  C14 UNL     1      11.105  28.847   0.588  1.00  0.00     0.010 C
HETATM   45  C15 UNL     1      10.713  26.618  -0.262  1.00  0.00     0.010 C
ENDBRANCH   6  43
TORSDOF 16
ENDMDL