MODEL 5
REMARK VINA RESULT: -7.342030434      2.179      7.872
REMARK  15 active torsions:
REMARK  status: ('A' for Active; 'I' for Inactive)
REMARK    1  A    between atoms: C2_2  and  C3_3
REMARK    2  A    between atoms: C3_3  and  C5_5
REMARK    3  A    between atoms: C5_5  and  N1_6
REMARK    4  A    between atoms: C5_5  and  C16_24
REMARK       I    between atoms: N1_6  and  C6_8
REMARK    5  A    between atoms: C6_8  and  C7_10
REMARK       I    between atoms: C7_10  and  N2_12
REMARK    6  A    between atoms: N2_12  and  C8_14
REMARK    7  A    between atoms: C8_14  and  C10_16
REMARK    8  A    between atoms: C14_20  and  C15_21
REMARK    9  A    between atoms: C16_24  and  C17_25
REMARK   10  A    between atoms: C16_24  and  N3_32
REMARK   11  A    between atoms: C17_25  and  C18_26
REMARK       I    between atoms: N3_32  and  C24_34
REMARK   12  A    between atoms: C24_34  and  C25_36
REMARK   13  A    between atoms: C25_36  and  N4_39
REMARK   14  A    between atoms: N4_39  and  C28_41
REMARK   15  A    between atoms: C28_41  and  C29_42
ROOT
HETATM    1  C5  UNL     1      10.920  25.612  -1.541  1.00  0.00     0.138 C
ENDROOT
BRANCH   1   2
HETATM    2  C3  UNL     1      11.532  26.998  -1.507  1.00  0.00     0.010 C
HETATM    3  C4  UNL     1      12.979  27.129  -1.750  1.00  0.00     0.012 C
BRANCH   2   4
HETATM    4  C2  UNL     1      11.299  27.617  -0.121  1.00  0.00     0.002 C
HETATM    5  C1  UNL     1      11.316  29.122  -0.162  1.00  0.00     0.005 C
ENDBRANCH   2   4
ENDBRANCH   1   2
BRANCH   1   6
HETATM    6  N1  UNL     1       9.913  25.733  -0.424  1.00  0.00    -0.343 N
HETATM    7  C6  UNL     1       8.871  24.878  -0.152  1.00  0.00     0.309 C
HETATM    8  O1  UNL     1       8.606  23.865  -0.807  1.00  0.00    -0.262 OA
ATOM      9  H1  UNL     1      10.017  26.535   0.197  1.00  0.00     0.163 HD
BRANCH   7  10
HETATM   10  C7  UNL     1       7.992  25.155   0.984  1.00  0.00     0.309 C
HETATM   11  O2  UNL     1       6.793  25.452   0.741  1.00  0.00    -0.262 OA
HETATM   12  N2  UNL     1       8.456  25.097   2.332  1.00  0.00    -0.348 N
ATOM     13  H2  UNL     1       9.428  24.851   2.523  1.00  0.00     0.163 HD
BRANCH  12  14
HETATM   14  C8  UNL     1       7.582  25.377   3.398  1.00  0.00     0.085 C
HETATM   15  C9  UNL     1       7.501  24.111   4.266  1.00  0.00     0.032 C
BRANCH  14  16
HETATM   16  C10 UNL     1       7.870  26.505   4.301  1.00  0.00     0.022 C
HETATM   17  C11 UNL     1       6.734  27.380   4.706  1.00  0.00     0.007 C
HETATM   18  C12 UNL     1       7.426  28.556   5.369  1.00  0.00     0.001 C
HETATM   19  C13 UNL     1       8.924  28.306   5.264  1.00  0.00     0.016 C
HETATM   20  C14 UNL     1       8.944  27.462   3.937  1.00  0.00     0.093 C
BRANCH  20  21
HETATM   21  C15 UNL     1       8.694  28.445   2.905  1.00  0.00     0.177 C
HETATM   22  O3  UNL     1       7.886  28.285   1.981  1.00  0.00    -0.648 OA
HETATM   23  O4  UNL     1       9.401  29.639   2.956  1.00  0.00    -0.648 OA
ENDBRANCH  20  21
ENDBRANCH  14  16
ENDBRANCH  12  14
ENDBRANCH   7  10
ENDBRANCH   1   6
BRANCH   1  24
HETATM   24  C16 UNL     1      10.124  25.323  -2.762  1.00  0.00     0.032 C
BRANCH  24  25
HETATM   25  C17 UNL     1      10.620  24.343  -3.756  1.00  0.00     0.005 C
BRANCH  25  26
HETATM   26  C18 UNL     1      11.751  24.550  -4.636  1.00  0.00     0.010 C
HETATM   27  C19 UNL     1      13.089  23.998  -4.436  1.00  0.00     0.008 C
HETATM   28  C20 UNL     1      13.271  22.542  -4.847  1.00  0.00     0.001 C
HETATM   29  C21 UNL     1      12.985  22.469  -6.347  1.00  0.00     0.000 C
HETATM   30  C22 UNL     1      11.498  22.810  -6.458  1.00  0.00     0.001 C
HETATM   31  C23 UNL     1      11.287  24.239  -6.074  1.00  0.00     0.008 C
ENDBRANCH  25  26
ENDBRANCH  24  25
BRANCH  24  32
HETATM   32  N3  UNL     1       9.590  26.492  -3.490  1.00  0.00    -0.327 N
HETATM   33  C24 UNL     1       8.275  26.501  -4.011  1.00  0.00     0.249 C
HETATM   34  O5  UNL     1       7.572  25.484  -3.799  1.00  0.00    -0.270 OA
ATOM     35  H3  UNL     1      10.182  27.312  -3.619  1.00  0.00     0.168 HD
BRANCH  33  36
HETATM   36  C25 UNL     1       7.654  27.617  -4.803  1.00  0.00     0.104 C
HETATM   37  C26 UNL     1       8.645  28.261  -5.688  1.00  0.00     0.048 C
HETATM   38  C27 UNL     1       6.532  26.992  -5.681  1.00  0.00     0.048 C
BRANCH  36  39
HETATM   39  N4  UNL     1       6.997  28.472  -3.908  1.00  0.00    -0.379 N
ATOM     40  H4  UNL     1       5.986  28.390  -3.800  1.00  0.00     0.160 HD
BRANCH  39  41
HETATM   41  C28 UNL     1       7.675  29.422  -3.165  1.00  0.00     0.134 C
BRANCH  41  42
HETATM   42  C29 UNL     1       7.869  29.245  -1.718  1.00  0.00     0.160 C
HETATM   43  C30 UNL     1       7.851  30.437  -0.788  1.00  0.00     0.097 C
HETATM   44  O6  UNL     1       8.052  28.182  -1.182  1.00  0.00    -0.292 OA
ENDBRANCH  41  42
ENDBRANCH  39  41
ENDBRANCH  36  39
ENDBRANCH  33  36
ENDBRANCH  24  32
ENDBRANCH   1  24
TORSDOF 15
ENDMDL