MODEL 4
REMARK VINA RESULT: -7.764513792      2.126      9.750
REMARK  17 active torsions:
REMARK  status: ('A' for Active; 'I' for Inactive)
REMARK    1  A    between atoms: C2_2  and  C4_4
REMARK    2  A    between atoms: C4_4  and  C5_5
REMARK    3  A    between atoms: C5_5  and  N1_6
REMARK    4  A    between atoms: C5_5  and  C14_18
REMARK       I    between atoms: N1_6  and  C6_8
REMARK    5  A    between atoms: C6_8  and  C7_10
REMARK    6  A    between atoms: C7_10  and  N2_11
REMARK    7  A    between atoms: N2_11  and  C8_12
REMARK    8  A    between atoms: N2_11  and  C11_15
REMARK       I    between atoms: C14_18  and  N3_20
REMARK    9  A    between atoms: N3_20  and  C15_22
REMARK   10  A    between atoms: C15_22  and  C16_23
REMARK   11  A    between atoms: C15_22  and  C26_42
REMARK       I    between atoms: C16_23  and  N4_25
REMARK   12  A    between atoms: N4_25  and  C17_27
REMARK   13  A    between atoms: C17_27  and  C18_28
REMARK   14  A    between atoms: C17_27  and  C25_35
REMARK   15  A    between atoms: C18_28  and  C19_29
REMARK   16  A    between atoms: C25_35  and  N5_36
REMARK   17  A    between atoms: C25_35  and  O4_40
ROOT
HETATM    1  C15 UNL     1       9.720  23.303  -3.836  1.00  0.00     0.180 C
ENDROOT
BRANCH   1   2
HETATM    2  N3  UNL     1       9.272  24.558  -3.174  1.00  0.00    -0.346 N
HETATM    3  C14 UNL     1       8.930  24.566  -1.815  1.00  0.00     0.241 C
HETATM    4  O2  UNL     1       9.051  23.433  -1.228  1.00  0.00    -0.271 OA
ATOM      5  H3  UNL     1       9.214  25.421  -3.714  1.00  0.00     0.163 HD
BRANCH   3   6
HETATM    6  C5  UNL     1       8.446  25.703  -1.005  1.00  0.00     0.177 C
BRANCH   6   7
HETATM    7  C4  UNL     1       9.110  27.006  -1.246  1.00  0.00     0.038 C
BRANCH   7   8
HETATM    8  C2  UNL     1      10.319  27.313  -0.450  1.00  0.00    -0.020 C
HETATM    9  C1  UNL     1      11.547  27.537  -1.312  1.00  0.00     0.009 C
HETATM   10  C3  UNL     1      10.139  28.618   0.339  1.00  0.00     0.009 C
ENDBRANCH   7   8
ENDBRANCH   6   7
BRANCH   6  11
HETATM   11  N1  UNL     1       8.701  25.282   0.395  1.00  0.00    -0.346 N
HETATM   12  C6  UNL     1       7.716  25.421   1.387  1.00  0.00     0.246 C
HETATM   13  O1  UNL     1       6.613  25.917   1.006  1.00  0.00    -0.272 OA
ATOM     14  H1  UNL     1       9.609  24.884   0.642  1.00  0.00     0.163 HD
BRANCH  12  15
HETATM   15  C7  UNL     1       7.834  25.043   2.796  1.00  0.00     0.375 C
BRANCH  15  16
HETATM   16  N2  UNL     1       6.868  25.830   3.595  1.00  0.00     0.105 N
BRANCH  16  17
HETATM   17  C8  UNL     1       7.658  26.676   4.430  1.00  0.00     0.216 C
HETATM   18  C9  UNL     1       7.176  27.973   4.883  1.00  0.00     0.042 C
HETATM   19  C10 UNL     1       9.029  26.806   3.805  1.00  0.00     0.042 C
ENDBRANCH  16  17
BRANCH  16  20
HETATM   20  C11 UNL     1       5.992  24.927   4.275  1.00  0.00     0.216 C
HETATM   21  C12 UNL     1       6.387  24.457   5.638  1.00  0.00     0.042 C
HETATM   22  C13 UNL     1       4.519  25.237   4.166  1.00  0.00     0.042 C
ENDBRANCH  16  20
ENDBRANCH  15  16
ENDBRANCH  12  15
ENDBRANCH   6  11
ENDBRANCH   3   6
ENDBRANCH   1   2
BRANCH   1  23
HETATM   23  C16 UNL     1       8.856  23.184  -5.039  1.00  0.00     0.241 C
HETATM   24  O3  UNL     1       8.605  24.219  -5.714  1.00  0.00    -0.271 OA
HETATM   25  N4  UNL     1       8.284  21.979  -5.481  1.00  0.00    -0.350 N
ATOM     26  H4  UNL     1       8.478  21.124  -4.961  1.00  0.00     0.163 HD
BRANCH  25  27
HETATM   27  C17 UNL     1       7.406  21.907  -6.679  1.00  0.00     0.140 C
BRANCH  27  28
HETATM   28  C18 UNL     1       6.109  22.506  -6.292  1.00  0.00     0.034 C
BRANCH  28  29
HETATM   29  C19 UNL     1       5.485  23.552  -7.102  1.00  0.00    -0.013 C
HETATM   30  C20 UNL     1       6.141  24.023  -8.343  1.00  0.00     0.005 C
HETATM   31  C21 UNL     1       5.021  24.450  -9.307  1.00  0.00     0.000 C
HETATM   32  C22 UNL     1       3.918  25.130  -8.511  1.00  0.00     0.000 C
HETATM   33  C23 UNL     1       4.487  25.780  -7.262  1.00  0.00     0.000 C
HETATM   34  C24 UNL     1       5.065  24.777  -6.291  1.00  0.00     0.005 C
ENDBRANCH  28  29
ENDBRANCH  27  28
BRANCH  27  35
HETATM   35  C25 UNL     1       7.404  20.482  -7.148  1.00  0.00     0.339 C
BRANCH  35  36
HETATM   36  N5  UNL     1       6.090  19.865  -7.008  1.00  0.00    -0.051 N
ATOM     37  H53 UNL     1       5.818  19.790  -6.028  1.00  0.00     0.277 HD
ATOM     38  H52 UNL     1       5.351  20.490  -7.332  1.00  0.00     0.277 HD
ATOM     39  H51 UNL     1       6.043  18.961  -7.476  1.00  0.00     0.277 HD
ENDBRANCH  35  36
BRANCH  35  40
HETATM   40  O4  UNL     1       8.292  19.803  -6.257  1.00  0.00    -0.368 OA
ATOM     41  H4  UNL     1       8.483  18.978  -6.686  1.00  0.00     0.212 HD
ENDBRANCH  35  40
ENDBRANCH  27  35
ENDBRANCH  25  27
ENDBRANCH   1  23
BRANCH   1  42
HETATM   42  C26 UNL     1      11.168  23.427  -4.093  1.00  0.00     0.018 C
HETATM   43  C27 UNL     1      11.786  24.753  -3.775  1.00  0.00     0.007 C
HETATM   44  C28 UNL     1      13.190  24.749  -4.392  1.00  0.00     0.000 C
HETATM   45  C29 UNL     1      13.763  23.342  -4.424  1.00  0.00     0.000 C
HETATM   46  C30 UNL     1      12.998  22.452  -5.375  1.00  0.00     0.000 C
HETATM   47  C31 UNL     1      11.594  23.048  -5.483  1.00  0.00     0.007 C
ENDBRANCH   1  42
TORSDOF 17
ENDMDL