MODEL 5
REMARK VINA RESULT: -8.951587421      1.565      1.900
REMARK  16 active torsions:
REMARK  status: ('A' for Active; 'I' for Inactive)
REMARK    1  A    between atoms: N1_2  and  C2_4
REMARK    2  A    between atoms: C2_4  and  C3_5
REMARK    3  A    between atoms: C2_4  and  C12_15
REMARK    4  A    between atoms: C3_5  and  S1_6
REMARK    5  A    between atoms: S1_6  and  C4_7
REMARK    6  A    between atoms: C4_7  and  C5_8
REMARK       I    between atoms: C12_15  and  N2_17
REMARK    7  A    between atoms: N2_17  and  C13_19
REMARK    8  A    between atoms: C13_19  and  C14_20
REMARK    9  A    between atoms: C13_19  and  C22_31
REMARK   10  A    between atoms: C14_20  and  C15_21
REMARK   11  A    between atoms: C15_21  and  C16_22
REMARK   12  A    between atoms: C16_22  and  C17_23
REMARK       I    between atoms: C22_31  and  N4_33
REMARK   13  A    between atoms: N4_33  and  C23_35
REMARK   14  A    between atoms: C23_35  and  C24_36
REMARK   15  A    between atoms: C24_36  and  N5_39
REMARK       I    between atoms: N5_39  and  C27_41
REMARK   16  A    between atoms: C27_41  and  C28_43
ROOT
HETATM    1  C13 UNL     1       7.534  24.928   3.711  1.00  0.00     0.176 C
ENDROOT
BRANCH   1   2
HETATM    2  N2  UNL     1       8.188  24.993   2.429  1.00  0.00    -0.346 N
HETATM    3  C12 UNL     1       7.556  25.370   1.218  1.00  0.00     0.241 C
HETATM    4  O1  UNL     1       6.337  25.668   1.304  1.00  0.00    -0.271 OA
ATOM      5  H2  UNL     1       9.178  24.751   2.390  1.00  0.00     0.163 HD
BRANCH   3   6
HETATM    6  C2  UNL     1       8.273  25.418  -0.087  1.00  0.00     0.178 C
BRANCH   6   7
HETATM    7  N1  UNL     1       9.124  24.310  -0.297  1.00  0.00    -0.413 N
HETATM    8  C1  UNL     1       9.065  23.658  -1.561  1.00  0.00     0.140 C
ATOM      9  H1  UNL     1       9.759  23.988   0.433  1.00  0.00     0.153 HD
ENDBRANCH   6   7
BRANCH   6  10
HETATM   10  C3  UNL     1       8.965  26.723  -0.184  1.00  0.00     0.108 C
BRANCH  10  11
HETATM   11  S1  UNL     1      10.703  26.848  -0.266  1.00  0.00    -0.166 SA
BRANCH  11  12
HETATM   12  C4  UNL     1      11.463  28.108  -1.207  1.00  0.00     0.079 C
BRANCH  12  13
HETATM   13  C5  UNL     1      12.941  28.299  -1.131  1.00  0.00    -0.001 C
HETATM   14  C6  UNL     1      13.303  29.355  -2.192  1.00  0.00     0.010 C
HETATM   15  C7  UNL     1      14.171  28.683  -3.203  1.00  0.00    -0.014 C
HETATM   16  C8  UNL     1      15.508  28.409  -2.588  1.00  0.00     0.005 C
HETATM   17  C11 UNL     1      13.564  27.267  -3.162  1.00  0.00     0.009 C
HETATM   18  C9  UNL     1      15.158  27.389  -1.493  1.00  0.00     0.005 C
HETATM   19  C10 UNL     1      13.679  27.083  -1.672  1.00  0.00    -0.009 C
ENDBRANCH  12  13
ENDBRANCH  11  12
ENDBRANCH  10  11
ENDBRANCH   6  10
ENDBRANCH   3   6
ENDBRANCH   1   2
BRANCH   1  20
HETATM   20  C14 UNL     1       8.097  23.973   4.694  1.00  0.00     0.035 C
BRANCH  20  21
HETATM   21  C15 UNL     1       7.188  23.742   5.878  1.00  0.00     0.003 C
BRANCH  21  22
HETATM   22  C16 UNL     1       5.921  23.016   5.451  1.00  0.00     0.006 C
BRANCH  22  23
HETATM   23  C17 UNL     1       4.730  23.638   6.191  1.00  0.00     0.011 C
HETATM   24  C18 UNL     1       4.160  22.698   7.184  1.00  0.00     0.008 C
HETATM   25  C19 UNL     1       2.672  22.597   7.239  1.00  0.00     0.028 C
HETATM   26  C20 UNL     1       1.982  22.956   5.958  1.00  0.00     0.232 C
HETATM   27  N3  UNL     1       2.406  24.320   5.650  1.00  0.00    -0.075 N
HETATM   28  C21 UNL     1       3.766  24.261   5.225  1.00  0.00     0.237 C
ATOM     29  H32 UNL     1       1.798  24.782   4.973  1.00  0.00     0.277 HD
ATOM     30  H31 UNL     1       2.259  24.966   6.425  1.00  0.00     0.277 HD
ENDBRANCH  22  23
ENDBRANCH  21  22
ENDBRANCH  20  21
ENDBRANCH   1  20
BRANCH   1  31
HETATM   31  C22 UNL     1       7.474  26.319   4.268  1.00  0.00     0.240 C
HETATM   32  O2  UNL     1       6.340  26.720   4.726  1.00  0.00    -0.271 OA
HETATM   33  N4  UNL     1       8.595  27.170   4.299  1.00  0.00    -0.357 N
ATOM     34  H4  UNL     1       9.490  26.854   3.925  1.00  0.00     0.162 HD
BRANCH  33  35
HETATM   35  C23 UNL     1       8.469  28.496   4.867  1.00  0.00     0.152 C
BRANCH  35  36
HETATM   36  C24 UNL     1       8.827  29.560   3.853  1.00  0.00     0.041 C
HETATM   37  C25 UNL     1       7.613  29.787   2.975  1.00  0.00     0.039 C
HETATM   38  C26 UNL     1       9.899  28.908   2.950  1.00  0.00     0.039 C
BRANCH  36  39
HETATM   39  N5  UNL     1       9.362  30.759   4.432  1.00  0.00    -0.351 N
HETATM   40  C27 UNL     1       8.613  31.592   5.299  1.00  0.00     0.221 C
HETATM   41  O3  UNL     1       7.431  31.285   5.588  1.00  0.00    -0.273 OA
ATOM     42  H5  UNL     1      10.321  31.022   4.209  1.00  0.00     0.163 HD
BRANCH  40  43
HETATM   43  C28 UNL     1       9.231  32.823   5.861  1.00  0.00     0.070 C
HETATM   44  C29 UNL     1       9.974  33.538   4.760  1.00  0.00     0.019 C
HETATM   45  C30 UNL     1       8.149  33.724   6.459  1.00  0.00     0.019 C
ENDBRANCH  40  43
ENDBRANCH  36  39
ENDBRANCH  35  36
ENDBRANCH  33  35
ENDBRANCH   1  31
TORSDOF 16
ENDMDL