MODEL 5
REMARK VINA RESULT: -7.849148759      4.295     11.136
REMARK  18 active torsions:
REMARK  status: ('A' for Active; 'I' for Inactive)
REMARK    1  A    between atoms: N1_2  and  C2_4
REMARK    2  A    between atoms: C2_4  and  C3_5
REMARK    3  A    between atoms: C2_4  and  C23_37
REMARK       I    between atoms: C3_5  and  N2_7
REMARK    4  A    between atoms: N2_7  and  C4_8
REMARK    5  A    between atoms: C4_8  and  C5_9
REMARK    6  A    between atoms: C5_9  and  N3_10
REMARK    7  A    between atoms: N3_10  and  C6_12
REMARK    8  A    between atoms: C6_12  and  C7_13
REMARK    9  A    between atoms: C6_12  and  C13_23
REMARK   10  A    between atoms: C7_13  and  C8_15
REMARK       I    between atoms: C8_15  and  N4_17
REMARK   11  A    between atoms: N4_17  and  C9_19
REMARK   12  A    between atoms: C9_19  and  C10_20
REMARK   13  A    between atoms: C13_23  and  C14_24
REMARK   14  A    between atoms: C13_23  and  N5_28
REMARK   15  A    between atoms: C14_24  and  C15_25
REMARK       I    between atoms: N5_28  and  C18_30
REMARK   16  A    between atoms: C18_30  and  O5_32
REMARK   17  A    between atoms: O5_32  and  C19_33
REMARK   18  A    between atoms: C23_37  and  C25_39
ROOT
HETATM    1  C6  UNL     1       7.841  25.727   2.457  1.00  0.00     0.180 C
ENDROOT
BRANCH   1   2
HETATM    2  N3  UNL     1       8.425  24.920   1.487  1.00  0.00    -0.406 N
ATOM      3  H3  UNL     1       9.415  24.741   1.654  1.00  0.00     0.154 HD
BRANCH   2   4
HETATM    4  C5  UNL     1       7.958  24.324   0.371  1.00  0.00     0.148 C
BRANCH   4   5
HETATM    5  C4  UNL     1       9.139  24.296  -0.720  1.00  0.00     0.240 C
BRANCH   5   6
HETATM    6  N2  UNL     1       8.615  24.348  -1.969  1.00  0.00    -0.412 NA
HETATM    7  C3  UNL     1       8.066  24.409  -3.253  1.00  0.00     0.309 C
HETATM    8  O1  UNL     1       6.985  24.995  -3.505  1.00  0.00    -0.255 OA
BRANCH   7   9
HETATM    9  C2  UNL     1       8.815  23.717  -4.363  1.00  0.00     0.188 C
BRANCH   9  10
HETATM   10  N1  UNL     1       7.878  23.168  -5.331  1.00  0.00    -0.412 N
HETATM   11  C1  UNL     1       8.040  21.906  -5.867  1.00  0.00     0.141 C
ATOM     12  H1  UNL     1       7.079  23.731  -5.621  1.00  0.00     0.153 HD
ENDBRANCH   9  10
BRANCH   9  13
HETATM   13  C23 UNL     1       9.912  24.423  -5.022  1.00  0.00     0.018 C
HETATM   14  C24 UNL     1      10.080  25.887  -4.592  1.00  0.00     0.013 C
BRANCH  13  15
HETATM   15  C25 UNL     1      11.267  23.822  -5.134  1.00  0.00    -0.008 C
HETATM   16  C26 UNL     1      11.720  23.347  -6.474  1.00  0.00     0.005 C
HETATM   17  C27 UNL     1      12.576  22.080  -6.177  1.00  0.00     0.000 C
HETATM   18  C28 UNL     1      13.231  22.190  -4.835  1.00  0.00     0.000 C
HETATM   19  C29 UNL     1      13.583  23.601  -4.440  1.00  0.00     0.000 C
HETATM   20  C30 UNL     1      12.402  24.563  -4.513  1.00  0.00     0.005 C
ENDBRANCH  13  15
ENDBRANCH   9  13
ENDBRANCH   7   9
ENDBRANCH   5   6
ENDBRANCH   4   5
ENDBRANCH   2   4
ENDBRANCH   1   2
BRANCH   1  21
HETATM   21  C7  UNL     1       8.005  25.027   3.809  1.00  0.00     0.240 C
HETATM   22  O2  UNL     1       9.106  24.386   4.011  1.00  0.00    -0.285 OA
BRANCH  21  23
HETATM   23  C8  UNL     1       7.040  25.030   4.848  1.00  0.00     0.289 C
HETATM   24  O3  UNL     1       6.494  26.061   5.311  1.00  0.00    -0.264 OA
HETATM   25  N4  UNL     1       6.639  23.798   5.438  1.00  0.00    -0.354 N
ATOM     26  H4  UNL     1       7.062  22.940   5.083  1.00  0.00     0.162 HD
BRANCH  25  27
HETATM   27  C9  UNL     1       5.676  23.681   6.502  1.00  0.00     0.126 C
BRANCH  27  28
HETATM   28  C10 UNL     1       4.353  23.073   6.069  1.00  0.00    -0.005 C
HETATM   29  C11 UNL     1       3.485  24.159   5.411  1.00  0.00     0.011 C
HETATM   30  C12 UNL     1       3.604  22.582   7.278  1.00  0.00     0.011 C
ENDBRANCH  27  28
ENDBRANCH  25  27
ENDBRANCH  21  23
ENDBRANCH   1  21
BRANCH   1  31
HETATM   31  C13 UNL     1       8.495  27.084   2.519  1.00  0.00     0.117 C
BRANCH  31  32
HETATM   32  C14 UNL     1       9.054  27.522   1.139  1.00  0.00     0.031 C
BRANCH  32  33
HETATM   33  C15 UNL     1      10.469  27.999   1.195  1.00  0.00    -0.021 C
HETATM   34  C16 UNL     1      11.162  27.297   0.010  1.00  0.00     0.009 C
HETATM   35  C17 UNL     1      10.518  29.492   0.842  1.00  0.00     0.009 C
ENDBRANCH  32  33
ENDBRANCH  31  32
BRANCH  31  36
HETATM   36  N5  UNL     1       7.616  28.207   2.834  1.00  0.00    -0.330 N
HETATM   37  C18 UNL     1       7.796  28.992   3.996  1.00  0.00     0.361 C
HETATM   38  O4  UNL     1       8.686  28.774   4.865  1.00  0.00    -0.238 OA
ATOM     39  H5  UNL     1       6.850  28.432   2.198  1.00  0.00     0.165 HD
BRANCH  37  40
HETATM   40  O5  UNL     1       6.957  30.079   4.190  1.00  0.00    -0.294 OA
BRANCH  40  41
HETATM   41  C19 UNL     1       7.110  31.390   3.775  1.00  0.00     0.061 C
HETATM   42  C20 UNL     1       8.272  31.713   2.906  1.00  0.00     0.046 C
HETATM   43  C21 UNL     1       7.084  32.355   4.941  1.00  0.00     0.046 C
HETATM   44  C22 UNL     1       5.842  31.736   2.970  1.00  0.00     0.046 C
ENDBRANCH  40  41
ENDBRANCH  37  40
ENDBRANCH  31  36
ENDBRANCH   1  31
TORSDOF 18
ENDMDL