MODEL 5
REMARK VINA RESULT: -7.169711424      1.996      5.597
REMARK  18 active torsions:
REMARK  status: ('A' for Active; 'I' for Inactive)
REMARK    1  A    between atoms: C2_2  and  C3_3
REMARK    2  A    between atoms: C10_10  and  C11_11
REMARK    3  A    between atoms: C11_11  and  N1_12
REMARK    4  A    between atoms: C14_15  and  C15_16
REMARK    5  A    between atoms: C15_16  and  N2_17
REMARK       I    between atoms: N2_17  and  C16_19
REMARK    6  A    between atoms: C16_19  and  C17_21
REMARK    7  A    between atoms: C17_21  and  C18_22
REMARK    8  A    between atoms: C17_21  and  N4_29
REMARK    9  A    between atoms: C18_22  and  N3_23
REMARK   10  A    between atoms: N3_23  and  C19_25
REMARK   11  A    between atoms: N4_29  and  C23_31
REMARK   12  A    between atoms: C23_31  and  C24_32
REMARK   13  A    between atoms: C24_32  and  C26_34
REMARK   14  A    between atoms: C28_38  and  C29_39
REMARK   15  A    between atoms: C29_39  and  C30_40
REMARK   16  A    between atoms: C30_40  and  C31_41
REMARK   17  A    between atoms: C31_41  and  C32_42
REMARK   18  A    between atoms: C32_42  and  N6_43
ROOT
HETATM    1  N1  UNL     1      10.624  26.271  -3.715  1.00  0.00    -0.325 N
HETATM    2  C12 UNL     1       9.580  26.751  -2.839  1.00  0.00     0.133 C
HETATM    3  C13 UNL     1       9.567  25.871  -1.595  1.00  0.00     0.046 C
HETATM    4  C14 UNL     1       8.910  24.530  -1.952  1.00  0.00     0.096 C
HETATM    5  N5  UNL     1       9.847  23.659  -2.527  1.00  0.00    -0.403 N
ATOM      6  H5  UNL     1      10.401  23.020  -1.956  1.00  0.00     0.154 HD
HETATM    7  C28 UNL     1       9.993  23.708  -3.969  1.00  0.00     0.170 C
HETATM    8  C33 UNL     1      10.731  24.945  -4.284  1.00  0.00     0.246 C
HETATM    9  O2  UNL     1      11.612  24.848  -5.205  1.00  0.00    -0.271 OA
ENDROOT
BRANCH   4  10
HETATM   10  C15 UNL     1       8.326  23.984  -0.683  1.00  0.00     0.147 C
BRANCH  10  11
HETATM   11  N2  UNL     1       8.855  24.608   0.529  1.00  0.00    -0.357 N
HETATM   12  C16 UNL     1       7.938  25.396   1.272  1.00  0.00     0.245 C
HETATM   13  O1  UNL     1       6.741  25.489   0.833  1.00  0.00    -0.271 OA
ATOM     14  H2  UNL     1       9.824  24.484   0.824  1.00  0.00     0.162 HD
BRANCH  12  15
HETATM   15  C17 UNL     1       8.315  26.102   2.501  1.00  0.00     0.208 C
BRANCH  15  16
HETATM   16  C18 UNL     1       8.722  27.532   2.352  1.00  0.00     0.090 C
BRANCH  16  17
HETATM   17  N3  UNL     1       8.644  28.216   1.156  1.00  0.00    -0.392 N
ATOM     18  H3  UNL     1       7.809  28.072   0.588  1.00  0.00     0.159 HD
BRANCH  17  19
HETATM   19  C19 UNL     1       9.611  29.088   0.660  1.00  0.00     0.018 C
HETATM   20  C20 UNL     1      10.951  28.521   0.423  1.00  0.00     0.037 C
HETATM   21  C21 UNL     1       9.128  29.653  -0.702  1.00  0.00     0.037 C
HETATM   22  C22 UNL     1       9.791  30.342   1.519  1.00  0.00     0.037 C
ENDBRANCH  17  19
ENDBRANCH  16  17
ENDBRANCH  15  16
BRANCH  15  23
HETATM   23  N4  UNL     1       7.306  25.943   3.508  1.00  0.00    -0.405 N
ATOM     24  H4  UNL     1       6.565  26.636   3.621  1.00  0.00     0.154 HD
BRANCH  23  25
HETATM   25  C23 UNL     1       7.364  24.832   4.318  1.00  0.00     0.119 C
BRANCH  25  26
HETATM   26  C24 UNL     1       6.094  24.734   5.234  1.00  0.00    -0.002 C
HETATM   27  C25 UNL     1       4.960  25.109   4.300  1.00  0.00     0.011 C
BRANCH  26  28
HETATM   28  C26 UNL     1       6.041  23.299   5.633  1.00  0.00     0.001 C
HETATM   29  C27 UNL     1       4.840  22.938   6.441  1.00  0.00     0.005 C
ENDBRANCH  26  28
ENDBRANCH  25  26
ENDBRANCH  23  25
ENDBRANCH  15  23
ENDBRANCH  12  15
ENDBRANCH  10  11
ENDBRANCH   4  10
BRANCH   7  30
HETATM   30  C29 UNL     1       8.718  23.584  -4.724  1.00  0.00     0.034 C
BRANCH  30  31
HETATM   31  C30 UNL     1       8.825  22.707  -5.940  1.00  0.00     0.004 C
BRANCH  31  32
HETATM   32  C31 UNL     1       7.517  22.018  -6.216  1.00  0.00     0.027 C
BRANCH  32  33
HETATM   33  C32 UNL     1       7.740  20.573  -6.656  1.00  0.00     0.229 C
BRANCH  33  34
HETATM   34  N6  UNL     1       6.452  19.892  -6.684  1.00  0.00    -0.079 N
ATOM     35  H63 UNL     1       6.181  19.530  -5.769  1.00  0.00     0.274 HD
ATOM     36  H62 UNL     1       5.671  20.536  -6.815  1.00  0.00     0.274 HD
ATOM     37  H61 UNL     1       6.483  19.166  -7.398  1.00  0.00     0.274 HD
ENDBRANCH  33  34
ENDBRANCH  32  33
ENDBRANCH  31  32
ENDBRANCH  30  31
ENDBRANCH   7  30
BRANCH   1  38
HETATM   38  C11 UNL     1      11.716  27.086  -4.066  1.00  0.00     0.106 C
BRANCH  38  39
HETATM   39  C10 UNL     1      12.076  28.360  -3.509  1.00  0.00    -0.008 A
HETATM   40  C3  UNL     1      13.119  28.280  -2.534  1.00  0.00    -0.046 A
HETATM   41  C4  UNL     1      13.509  29.419  -1.875  1.00  0.00     0.014 A
HETATM   42  C5  UNL     1      12.918  30.628  -2.136  1.00  0.00    -0.061 A
HETATM   43  C6  UNL     1      13.372  31.840  -1.401  1.00  0.00     0.048 C
HETATM   44  C7  UNL     1      11.925  30.674  -3.072  1.00  0.00     0.014 A
HETATM   45  C8  UNL     1      11.466  29.551  -3.791  1.00  0.00    -0.049 A
HETATM   46  C9  UNL     1      10.345  29.763  -4.735  1.00  0.00     0.049 C
BRANCH  40  47
HETATM   47  C2  UNL     1      13.811  26.983  -2.259  1.00  0.00     0.035 C
HETATM   48  C1  UNL     1      15.074  27.156  -1.433  1.00  0.00     0.010 C
ENDBRANCH  40  47
ENDBRANCH  38  39
ENDBRANCH   1  38
TORSDOF 18
ENDMDL