MODEL 3
REMARK VINA RESULT: -8.710177396      2.444      4.735
REMARK  15 active torsions:
REMARK  status: ('A' for Active; 'I' for Inactive)
REMARK    1  A    between atoms: C2_2  and  C3_3
REMARK    2  A    between atoms: C3_3  and  N1_6
REMARK       I    between atoms: N1_6  and  C6_8
REMARK    3  A    between atoms: C6_8  and  C7_10
REMARK    4  A    between atoms: C7_10  and  C8_11
REMARK    5  A    between atoms: C7_10  and  C15_18
REMARK    6  A    between atoms: C8_11  and  C9_12
REMARK    7  A    between atoms: C15_18  and  C16_19
REMARK    8  A    between atoms: C15_18  and  N6_44
REMARK    9  A    between atoms: C16_19  and  N2_20
REMARK       I    between atoms: N2_20  and  C17_22
REMARK   10  A    between atoms: C17_22  and  C18_24
REMARK       I    between atoms: C18_24  and  N3_26
REMARK   11  A    between atoms: N3_26  and  C19_28
REMARK   12  A    between atoms: C19_28  and  C20_29
REMARK   13  A    between atoms: C19_28  and  C27_41
REMARK   14  A    between atoms: C20_29  and  C21_31
REMARK   15  A    between atoms: C22_34  and  C23_35
ROOT
HETATM    1  N2  UNL     1       9.545  25.825  -0.040  1.00  0.00    -0.351 N
ATOM      2  H2  UNL     1      10.036  26.210   0.767  1.00  0.00     0.162 HD
HETATM    3  C17 UNL     1       8.163  25.536   0.044  1.00  0.00     0.309 C
HETATM    4  O2  UNL     1       7.564  25.063  -0.950  1.00  0.00    -0.262 OA
ENDROOT
BRANCH   1   5
HETATM    5  C16 UNL     1      10.247  25.579  -1.241  1.00  0.00     0.152 C
BRANCH   5   6
HETATM    6  C15 UNL     1      10.671  26.871  -1.992  1.00  0.00     0.132 C
BRANCH   6   7
HETATM    7  C7  UNL     1      11.826  26.586  -2.863  1.00  0.00     0.030 C
BRANCH   7   8
HETATM    8  C6  UNL     1      11.674  25.771  -4.048  1.00  0.00     0.250 C
HETATM    9  N1  UNL     1      12.395  24.648  -4.485  1.00  0.00    -0.349 N
ATOM     10  H1  UNL     1      13.158  24.317  -3.895  1.00  0.00     0.163 HD
HETATM   11  O1  UNL     1      10.737  26.088  -4.870  1.00  0.00    -0.268 OA
BRANCH   9  12
HETATM   12  C3  UNL     1      12.134  23.925  -5.712  1.00  0.00     0.025 C
HETATM   13  C4  UNL     1      10.728  23.355  -5.754  1.00  0.00     0.038 C
HETATM   14  C5  UNL     1      12.262  24.830  -6.924  1.00  0.00     0.038 C
BRANCH  12  15
HETATM   15  C2  UNL     1      13.121  22.814  -5.891  1.00  0.00     0.026 C
HETATM   16  C1  UNL     1      13.485  22.206  -4.547  1.00  0.00     0.007 C
ENDBRANCH  12  15
ENDBRANCH   9  12
ENDBRANCH   7   8
BRANCH   7  17
HETATM   17  C8  UNL     1      13.157  26.547  -2.178  1.00  0.00    -0.007 C
BRANCH  17  18
HETATM   18  C9  UNL     1      14.302  27.309  -2.654  1.00  0.00     0.009 C
HETATM   19  C10 UNL     1      15.460  27.545  -1.759  1.00  0.00     0.008 C
HETATM   20  C11 UNL     1      16.252  28.777  -2.190  1.00  0.00     0.001 C
HETATM   21  C12 UNL     1      16.112  29.098  -3.640  1.00  0.00     0.000 C
HETATM   22  C13 UNL     1      14.667  29.418  -3.950  1.00  0.00     0.001 C
HETATM   23  C14 UNL     1      13.745  28.728  -2.974  1.00  0.00     0.008 C
ENDBRANCH  17  18
ENDBRANCH   7  17
ENDBRANCH   6   7
BRANCH   6  24
HETATM   24  N6  UNL     1      10.701  27.953  -1.089  1.00  0.00    -0.416 N
HETATM   25  C30 UNL     1      10.086  29.172  -1.429  1.00  0.00     0.140 C
ATOM     26  H6  UNL     1      11.170  27.852  -0.189  1.00  0.00     0.153 HD
ENDBRANCH   6  24
ENDBRANCH   5   6
ENDBRANCH   1   5
BRANCH   3  27
HETATM   27  C18 UNL     1       7.395  25.777   1.274  1.00  0.00     0.310 C
HETATM   28  O3  UNL     1       6.120  25.817   1.191  1.00  0.00    -0.262 OA
HETATM   29  N3  UNL     1       8.041  25.959   2.506  1.00  0.00    -0.341 N
ATOM     30  H3  UNL     1       9.058  25.924   2.562  1.00  0.00     0.163 HD
BRANCH  29  31
HETATM   31  C19 UNL     1       7.251  26.198   3.698  1.00  0.00     0.166 C
BRANCH  31  32
HETATM   32  C20 UNL     1       6.940  24.919   4.354  1.00  0.00     0.215 C
HETATM   33  O4  UNL     1       7.912  24.113   4.538  1.00  0.00    -0.287 OA
BRANCH  32  34
HETATM   34  C21 UNL     1       5.603  24.547   4.788  1.00  0.00     0.154 A
HETATM   35  N4  UNL     1       5.340  23.621   5.748  1.00  0.00    -0.341 N
HETATM   36  C22 UNL     1       4.004  23.546   5.909  1.00  0.00     0.029 A
ATOM     37  H4  UNL     1       6.035  23.076   6.258  1.00  0.00     0.167 HD
HETATM   38  C26 UNL     1       3.439  24.439   5.036  1.00  0.00     0.115 A
HETATM   39  N5  UNL     1       4.458  25.044   4.356  1.00  0.00    -0.347 N
ATOM     40  H5  UNL     1       4.352  25.759   3.636  1.00  0.00     0.167 HD
BRANCH  36  41
HETATM   41  C23 UNL     1       3.336  22.635   6.880  1.00  0.00     0.029 C
HETATM   42  C24 UNL     1       2.704  23.519   7.941  1.00  0.00     0.016 C
HETATM   43  C25 UNL     1       2.264  21.812   6.195  1.00  0.00     0.016 C
ENDBRANCH  36  41
ENDBRANCH  32  34
ENDBRANCH  31  32
BRANCH  31  44
HETATM   44  C27 UNL     1       8.066  27.070   4.657  1.00  0.00     0.008 C
HETATM   45  C28 UNL     1       9.137  27.832   3.900  1.00  0.00     0.012 C
HETATM   46  C29 UNL     1       7.132  28.032   5.317  1.00  0.00     0.012 C
ENDBRANCH  31  44
ENDBRANCH  29  31
ENDBRANCH   3  27
TORSDOF 15
ENDMDL