MODEL 3
REMARK VINA RESULT: -8.271766090      2.653      8.228
REMARK  15 active torsions:
REMARK  status: ('A' for Active; 'I' for Inactive)
REMARK    1  A    between atoms: C2_2  and  C3_3
REMARK    2  A    between atoms: C4_4  and  C5_5
REMARK    3  A    between atoms: C5_5  and  N1_6
REMARK    4  A    between atoms: C5_5  and  C6_10
REMARK       I    between atoms: C6_10  and  N2_12
REMARK    5  A    between atoms: C10_16  and  N3_17
REMARK       I    between atoms: N3_17  and  C11_19
REMARK    6  A    between atoms: C11_19  and  C12_21
REMARK    7  A    between atoms: C12_21  and  C13_22
REMARK    8  A    between atoms: C12_21  and  C18_30
REMARK    9  A    between atoms: C13_22  and  C14_23
REMARK       I    between atoms: C18_30  and  N5_32
REMARK   10  A    between atoms: N5_32  and  C19_34
REMARK   11  A    between atoms: C19_34  and  C20_35
REMARK   12  A    between atoms: C19_34  and  C27_42
REMARK   13  A    between atoms: C20_35  and  C21_36
REMARK   14  A    between atoms: C27_42  and  O4_43
REMARK   15  A    between atoms: C27_42  and  C28_45
ROOT
HETATM    1  C12 UNL     1       7.855  24.819   3.528  1.00  0.00     0.171 C
ENDROOT
BRANCH   1   2
HETATM    2  C11 UNL     1       8.517  25.828   4.379  1.00  0.00     0.231 C
HETATM    3  N3  UNL     1       7.837  27.002   4.772  1.00  0.00    -0.347 N
ATOM      4  H3  UNL     1       6.878  27.147   4.458  1.00  0.00     0.163 HD
HETATM    5  O2  UNL     1       9.697  25.622   4.747  1.00  0.00    -0.273 OA
BRANCH   3   6
HETATM    6  C10 UNL     1       8.469  28.017   5.618  1.00  0.00     0.177 C
HETATM    7  C9  UNL     1       7.634  28.249   6.836  1.00  0.00     0.036 C
HETATM    8  C8  UNL     1       6.760  29.468   6.703  1.00  0.00     0.023 C
HETATM    9  C7  UNL     1       7.556  30.738   6.474  1.00  0.00     0.135 C
HETATM   10  N2  UNL     1       8.556  30.586   5.462  1.00  0.00    -0.285 N
HETATM   11  C6  UNL     1       9.426  31.585   4.988  1.00  0.00     0.260 C
HETATM   12  C31 UNL     1       8.698  29.283   4.861  1.00  0.00     0.249 C
HETATM   13  O1  UNL     1      10.293  31.372   4.073  1.00  0.00    -0.270 OA
HETATM   14  O5  UNL     1       9.029  29.202   3.641  1.00  0.00    -0.271 OA
BRANCH  11  15
HETATM   15  C5  UNL     1       9.463  33.012   5.480  1.00  0.00     0.297 C
BRANCH  15  16
HETATM   16  C4  UNL     1       8.894  33.928   4.464  1.00  0.00     0.011 C
HETATM   17  C3  UNL     1       7.938  33.584   3.446  1.00  0.00    -0.028 C
BRANCH  17  18
HETATM   18  C2  UNL     1       6.599  33.032   3.646  1.00  0.00     0.022 C
HETATM   19  C1  UNL     1       6.232  31.779   2.925  1.00  0.00     0.009 C
ENDBRANCH  17  18
ENDBRANCH  15  16
BRANCH  15  20
HETATM   20  N1  UNL     1      10.676  33.390   6.019  1.00  0.00    -0.063 N
ATOM     21  H13 UNL     1      11.250  32.565   6.195  1.00  0.00     0.275 HD
ATOM     22  H12 UNL     1      11.240  33.858   5.311  1.00  0.00     0.275 HD
ATOM     23  H11 UNL     1      10.629  33.965   6.860  1.00  0.00     0.275 HD
ENDBRANCH  15  20
ENDBRANCH  11  15
ENDBRANCH   3   6
ENDBRANCH   1   2
BRANCH   1  24
HETATM   24  C13 UNL     1       6.332  24.873   3.703  1.00  0.00     0.056 C
BRANCH  24  25
HETATM   25  C14 UNL     1       5.996  24.385   5.104  1.00  0.00     0.187 C
HETATM   26  C15 UNL     1       6.606  23.016   5.349  1.00  0.00     0.034 C
HETATM   27  C16 UNL     1       5.570  22.266   6.132  1.00  0.00     0.029 C
HETATM   28  C17 UNL     1       4.326  23.129   6.132  1.00  0.00     0.233 C
HETATM   29  N4  UNL     1       4.573  24.217   5.217  1.00  0.00    -0.071 N
ATOM     30  H42 UNL     1       4.094  25.076   5.485  1.00  0.00     0.277 HD
ATOM     31  H41 UNL     1       4.118  24.084   4.313  1.00  0.00     0.277 HD
ENDBRANCH  24  25
ENDBRANCH   1  24
BRANCH   1  32
HETATM   32  C18 UNL     1       8.083  25.079   2.075  1.00  0.00     0.231 C
HETATM   33  O3  UNL     1       7.616  24.281   1.249  1.00  0.00    -0.273 OA
HETATM   34  N5  UNL     1       8.816  26.207   1.636  1.00  0.00    -0.353 N
ATOM     35  H5  UNL     1       9.199  26.862   2.318  1.00  0.00     0.163 HD
BRANCH  34  36
HETATM   36  C19 UNL     1       9.026  26.435   0.216  1.00  0.00     0.114 C
BRANCH  36  37
HETATM   37  C20 UNL     1      10.452  26.215  -0.182  1.00  0.00     0.032 C
BRANCH  37  38
HETATM   38  C21 UNL     1      10.539  25.319  -1.372  1.00  0.00    -0.013 C
HETATM   39  C22 UNL     1       9.177  24.674  -1.680  1.00  0.00     0.005 C
HETATM   40  C23 UNL     1       9.462  23.434  -2.496  1.00  0.00     0.000 C
HETATM   41  C24 UNL     1      10.670  23.665  -3.375  1.00  0.00     0.000 C
HETATM   42  C25 UNL     1      10.797  25.100  -3.803  1.00  0.00     0.000 C
HETATM   43  C26 UNL     1      10.949  26.040  -2.627  1.00  0.00     0.005 C
ENDBRANCH  37  38
ENDBRANCH  36  37
BRANCH  36  44
HETATM   44  C27 UNL     1       8.484  27.796  -0.158  1.00  0.00     0.144 C
BRANCH  44  45
HETATM   45  O4  UNL     1       7.884  28.292   1.025  1.00  0.00    -0.393 OA
ATOM     46  H4  UNL     1       6.961  28.378   0.817  1.00  0.00     0.210 HD
ENDBRANCH  44  45
BRANCH  44  47
HETATM   47  C28 UNL     1       9.523  28.744  -0.650  1.00  0.00     0.016 A
HETATM   48  C29 UNL     1       9.209  29.330  -2.020  1.00  0.00     0.007 A
HETATM   49  C30 UNL     1       9.192  30.207  -0.822  1.00  0.00     0.007 A
ENDBRANCH  44  47
ENDBRANCH  36  44
ENDBRANCH  34  36
ENDBRANCH   1  32
TORSDOF 15
ENDMDL