MODEL 1
REMARK VINA RESULT: -7.570881020      0.000      0.000
REMARK  17 active torsions:
REMARK  status: ('A' for Active; 'I' for Inactive)
REMARK    1  A    between atoms: O1_2  and  C2_3
REMARK    2  A    between atoms: C2_3  and  C5_6
REMARK    3  A    between atoms: C5_6  and  N1_7
REMARK    4  A    between atoms: C5_6  and  C28_43
REMARK       I    between atoms: N1_7  and  C6_9
REMARK    5  A    between atoms: C6_9  and  C7_11
REMARK    6  A    between atoms: C7_11  and  C8_12
REMARK    7  A    between atoms: C7_11  and  N2_16
REMARK    8  A    between atoms: C8_12  and  C9_13
REMARK       I    between atoms: N2_16  and  C12_18
REMARK    9  A    between atoms: C12_18  and  C13_20
REMARK   10  A    between atoms: C13_20  and  C14_21
REMARK   11  A    between atoms: C13_20  and  C21_36
REMARK   12  A    between atoms: C14_21  and  N3_22
REMARK       I    between atoms: N3_22  and  C15_24
REMARK   13  A    between atoms: C15_24  and  C16_26
REMARK   14  A    between atoms: C16_26  and  N4_27
REMARK   15  A    between atoms: C16_26  and  C19_32
REMARK       I    between atoms: N4_27  and  C17_29
REMARK   16  A    between atoms: C19_32  and  O6_34
REMARK   17  A    between atoms: C21_36  and  C22_37
ROOT
HETATM    1  C13 UNL     1       8.160  25.603   5.147  1.00  0.00     0.119 C
ENDROOT
BRANCH   1   2
HETATM    2  C12 UNL     1       8.585  27.083   5.213  1.00  0.00     0.231 C
HETATM    3  N2  UNL     1       7.610  28.100   5.475  1.00  0.00    -0.325 N
ATOM      4  H2  UNL     1       6.652  27.821   5.689  1.00  0.00     0.168 HD
HETATM    5  O3  UNL     1       9.747  27.387   5.029  1.00  0.00    -0.272 OA
BRANCH   3   6
HETATM    6  C7  UNL     1       7.931  29.481   5.449  1.00  0.00     0.081 C
BRANCH   6   7
HETATM    7  C6  UNL     1       7.529  30.262   6.621  1.00  0.00     0.268 C
HETATM    8  N1  UNL     1       8.008  30.028   7.906  1.00  0.00    -0.323 N
ATOM      9  H1  UNL     1       8.702  29.281   7.906  1.00  0.00     0.169 HD
HETATM   10  O2  UNL     1       6.705  31.188   6.395  1.00  0.00    -0.266 OA
BRANCH   8  11
HETATM   11  C5  UNL     1       7.809  30.531   9.213  1.00  0.00     0.048 C
BRANCH  11  12
HETATM   12  C2  UNL     1       8.972  31.002   9.944  1.00  0.00     0.095 C
HETATM   13  C3  UNL     1       9.565  32.322   9.521  1.00  0.00     0.052 C
HETATM   14  C4  UNL     1       8.680  31.192  11.460  1.00  0.00     0.052 C
BRANCH  12  15
HETATM   15  O1  UNL     1      10.008  30.055   9.958  1.00  0.00    -0.379 OA
HETATM   16  C1  UNL     1      10.267  29.532  11.222  1.00  0.00     0.203 C
ENDBRANCH  12  15
ENDBRANCH  11  12
BRANCH  11  17
HETATM   17  C28 UNL     1       6.792  29.714   9.948  1.00  0.00    -0.062 C
HETATM   18  C29 UNL     1       5.369  30.066   9.737  1.00  0.00     0.045 C
HETATM   19  C30 UNL     1       7.068  28.229   9.948  1.00  0.00     0.045 C
ENDBRANCH  11  17
ENDBRANCH   8  11
ENDBRANCH   6   7
BRANCH   6  20
HETATM   20  C8  UNL     1       7.710  30.049   4.097  1.00  0.00     0.067 C
BRANCH  20  21
HETATM   21  C9  UNL     1       8.912  30.371   3.293  1.00  0.00    -0.017 C
HETATM   22  C10 UNL     1       9.944  31.058   4.174  1.00  0.00     0.010 C
HETATM   23  C11 UNL     1       8.597  31.381   2.190  1.00  0.00     0.010 C
ENDBRANCH  20  21
ENDBRANCH   6  20
ENDBRANCH   3   6
ENDBRANCH   1   2
BRANCH   1  24
HETATM   24  C14 UNL     1       8.964  24.966   4.059  1.00  0.00     0.140 C
BRANCH  24  25
HETATM   25  N3  UNL     1       8.825  25.834   2.863  1.00  0.00    -0.358 N
HETATM   26  C15 UNL     1       8.145  25.331   1.716  1.00  0.00     0.243 C
HETATM   27  O4  UNL     1       7.622  24.198   1.759  1.00  0.00    -0.271 OA
ATOM     28  H3  UNL     1       9.210  26.779   2.863  1.00  0.00     0.162 HD
BRANCH  26  29
HETATM   29  C16 UNL     1       8.044  26.135   0.490  1.00  0.00     0.205 C
BRANCH  29  30
HETATM   30  N4  UNL     1       9.274  25.950  -0.314  1.00  0.00    -0.346 N
HETATM   31  C17 UNL     1       9.178  25.116  -1.461  1.00  0.00     0.214 C
HETATM   32  C18 UNL     1      10.363  24.859  -2.317  1.00  0.00     0.117 C
HETATM   33  O5  UNL     1       8.083  24.597  -1.751  1.00  0.00    -0.274 OA
ATOM     34  H4  UNL     1      10.152  26.400  -0.055  1.00  0.00     0.163 HD
ENDBRANCH  29  30
BRANCH  29  35
HETATM   35  C19 UNL     1       8.153  27.617   0.951  1.00  0.00     0.146 C
HETATM   36  C20 UNL     1       8.776  28.456  -0.141  1.00  0.00     0.042 C
BRANCH  35  37
HETATM   37  O6  UNL     1       6.968  28.099   1.415  1.00  0.00    -0.393 OA
ATOM     38  H6  UNL     1       6.579  28.728   0.820  1.00  0.00     0.210 HD
ENDBRANCH  35  37
ENDBRANCH  29  35
ENDBRANCH  26  29
ENDBRANCH  24  25
ENDBRANCH   1  24
BRANCH   1  39
HETATM   39  C21 UNL     1       6.721  25.487   5.235  1.00  0.00    -0.008 C
BRANCH  39  40
HETATM   40  C22 UNL     1       5.965  24.281   4.816  1.00  0.00    -0.083 C
HETATM   41  C23 UNL     1       4.492  24.307   4.894  1.00  0.00     0.034 C
HETATM   42  C24 UNL     1       3.899  23.496   6.051  1.00  0.00     0.004 C
HETATM   43  C25 UNL     1       4.610  22.226   6.336  1.00  0.00     0.001 C
HETATM   44  C26 UNL     1       6.065  22.625   6.662  1.00  0.00     0.004 C
HETATM   45  C27 UNL     1       6.644  23.022   5.314  1.00  0.00     0.034 C
ENDBRANCH  39  40
ENDBRANCH   1  39
TORSDOF 17
ENDMDL