MODEL 3
REMARK VINA RESULT: -7.055184793      3.357      6.578
REMARK  15 active torsions:
REMARK  status: ('A' for Active; 'I' for Inactive)
REMARK    1  A    between atoms: C2_2  and  C3_3
REMARK    2  A    between atoms: C3_3  and  C5_5
REMARK    3  A    between atoms: C5_5  and  C6_6
REMARK    4  A    between atoms: C5_5  and  N1_13
REMARK    5  A    between atoms: C6_6  and  C7_7
REMARK       I    between atoms: N1_13  and  C13_15
REMARK    6  A    between atoms: C13_15  and  C14_17
REMARK    7  A    between atoms: C17_23  and  C18_24
REMARK    8  A    between atoms: C18_24  and  C19_25
REMARK    9  A    between atoms: C19_25  and  C20_26
REMARK       I    between atoms: C20_26  and  N3_28
REMARK   10  A    between atoms: N3_28  and  C21_29
REMARK   11  A    between atoms: C21_29  and  C22_30
REMARK   12  A    between atoms: C22_30  and  C23_31
REMARK   13  A    between atoms: C23_31  and  N4_32
REMARK   14  A    between atoms: C25_39  and  C26_40
REMARK   15  A    between atoms: C26_40  and  C27_41
ROOT
HETATM    1  N4  UNL     1      -0.211  23.009   6.350  1.00  0.00    -0.368 N
ATOM      2  H4  UNL     1      -0.149  22.486   5.476  1.00  0.00     0.161 HD
HETATM    3  C24 UNL     1      -1.343  23.322   6.810  1.00  0.00     0.348 C
HETATM    4  O4  UNL     1      -2.522  23.524   7.104  1.00  0.00    -0.284 OA
ENDROOT
BRANCH   1   5
HETATM    5  C23 UNL     1       0.986  23.378   7.040  1.00  0.00     0.128 C
BRANCH   5   6
HETATM    6  C22 UNL     1       1.472  22.277   7.966  1.00  0.00     0.079 C
BRANCH   6   7
HETATM    7  C21 UNL     1       2.533  21.489   7.165  1.00  0.00     0.160 C
BRANCH   7   8
HETATM    8  N3  UNL     1       3.507  22.244   6.590  1.00  0.00    -0.388 NA
HETATM    9  C20 UNL     1       4.478  23.008   6.006  1.00  0.00     0.290 C
HETATM   10  O3  UNL     1       4.307  23.963   5.212  1.00  0.00    -0.257 OA
BRANCH   9  11
HETATM   11  C19 UNL     1       5.959  22.734   6.308  1.00  0.00     0.121 C
BRANCH  11  12
HETATM   12  C18 UNL     1       6.741  23.992   6.226  1.00  0.00     0.053 C
BRANCH  12  13
HETATM   13  C17 UNL     1       7.120  24.378   4.831  1.00  0.00     0.278 C
HETATM   14  C16 UNL     1       8.472  24.017   4.389  1.00  0.00     0.249 C
HETATM   15  N2  UNL     1       8.830  24.437   3.057  1.00  0.00    -0.340 N
HETATM   16  O2  UNL     1       9.331  23.377   5.086  1.00  0.00    -0.271 OA
HETATM   17  C14 UNL     1       8.299  25.764   2.638  1.00  0.00     0.138 C
ATOM     18  H2  UNL     1       9.408  23.864   2.443  1.00  0.00     0.163 HD
HETATM   19  C15 UNL     1       7.007  25.512   1.854  1.00  0.00     0.051 C
HETATM   20  C25 UNL     1       7.977  26.466   3.907  1.00  0.00     0.224 C
HETATM   21  N5  UNL     1       6.909  25.805   4.650  1.00  0.00    -0.055 N
ATOM     22  H52 UNL     1       6.004  25.983   4.215  1.00  0.00     0.278 HD
ATOM     23  H51 UNL     1       6.758  26.264   5.548  1.00  0.00     0.278 HD
BRANCH  17  24
HETATM   24  C13 UNL     1       9.323  26.373   1.789  1.00  0.00     0.248 C
HETATM   25  N1  UNL     1       9.226  26.628   0.421  1.00  0.00    -0.354 N
ATOM     26  H1  UNL     1       8.335  26.343   0.015  1.00  0.00     0.162 HD
HETATM   27  O1  UNL     1      10.406  26.686   2.427  1.00  0.00    -0.271 OA
BRANCH  25  28
HETATM   28  C5  UNL     1      10.132  27.211  -0.528  1.00  0.00     0.088 C
BRANCH  28  29
HETATM   29  C3  UNL     1      11.094  26.195  -0.978  1.00  0.00     0.004 C
HETATM   30  C4  UNL     1      12.546  26.601  -1.035  1.00  0.00     0.012 C
BRANCH  29  31
HETATM   31  C2  UNL     1      10.781  25.723  -2.408  1.00  0.00     0.002 C
HETATM   32  C1  UNL     1       9.986  24.463  -2.390  1.00  0.00     0.005 C
ENDBRANCH  29  31
ENDBRANCH  28  29
BRANCH  28  33
HETATM   33  C6  UNL     1       9.347  27.968  -1.555  1.00  0.00     0.030 C
BRANCH  33  34
HETATM   34  C7  UNL     1       9.193  29.441  -1.423  1.00  0.00    -0.013 C
HETATM   35  C8  UNL     1       8.711  29.740   0.047  1.00  0.00     0.005 C
HETATM   36  C9  UNL     1       7.226  29.615   0.192  1.00  0.00     0.000 C
HETATM   37  C10 UNL     1       6.596  30.862  -0.413  1.00  0.00     0.000 C
HETATM   38  C11 UNL     1       7.495  31.260  -1.575  1.00  0.00     0.000 C
HETATM   39  C12 UNL     1       8.004  29.940  -2.222  1.00  0.00     0.005 C
ENDBRANCH  33  34
ENDBRANCH  28  33
ENDBRANCH  25  28
ENDBRANCH  17  24
BRANCH  20  40
HETATM   40  C26 UNL     1       7.589  27.894   3.731  1.00  0.00     0.042 C
BRANCH  40  41
HETATM   41  C27 UNL     1       8.467  28.907   4.432  1.00  0.00     0.013 C
HETATM   42  C28 UNL     1       8.687  30.141   3.606  1.00  0.00     0.008 C
HETATM   43  C29 UNL     1       9.593  31.061   4.408  1.00  0.00     0.028 C
HETATM   44  C30 UNL     1       9.153  31.261   5.814  1.00  0.00     0.232 C
HETATM   45  N6  UNL     1       8.623  30.114   6.475  1.00  0.00    -0.075 N
HETATM   46  C31 UNL     1       7.708  29.351   5.686  1.00  0.00     0.237 C
ATOM     47  H62 UNL     1       9.377  29.521   6.819  1.00  0.00     0.277 HD
ATOM     48  H61 UNL     1       8.193  30.381   7.361  1.00  0.00     0.277 HD
ENDBRANCH  40  41
ENDBRANCH  20  40
ENDBRANCH  12  13
ENDBRANCH  11  12
ENDBRANCH   9  11
ENDBRANCH   7   8
ENDBRANCH   6   7
ENDBRANCH   5   6
ENDBRANCH   1   5
TORSDOF 15
ENDMDL