MODEL 4
REMARK VINA RESULT: -9.000219419      3.441      6.009
REMARK  16 active torsions:
REMARK  status: ('A' for Active; 'I' for Inactive)
REMARK    1  A    between atoms: C3_3  and  N1_4
REMARK       I    between atoms: N1_4  and  C4_6
REMARK    2  A    between atoms: C4_6  and  C5_8
REMARK    3  A    between atoms: C5_8  and  N2_9
REMARK    4  A    between atoms: C5_8  and  C19_38
REMARK    5  A    between atoms: N2_9  and  S1_11
REMARK    6  A    between atoms: S1_11  and  C6_14
REMARK    7  A    between atoms: C6_14  and  C7_15
REMARK    8  A    between atoms: C7_15  and  C8_16
REMARK    9  A    between atoms: C8_16  and  C9_17
REMARK   10  A    between atoms: C10_20  and  C11_21
REMARK   11  A    between atoms: C11_21  and  C12_22
REMARK   12  A    between atoms: C11_21  and  N5_30
REMARK   13  A    between atoms: C12_22  and  C13_23
REMARK   14  A    between atoms: C13_23  and  C14_24
REMARK   15  A    between atoms: C14_24  and  C15_25
REMARK   16  A    between atoms: C15_25  and  N4_26
REMARK       I    between atoms: N5_30  and  C16_32
ROOT
HETATM    1  C1  UNL     1       7.871  27.885  10.709  1.00  0.00     0.015 C
HETATM    2  C2  UNL     1       8.056  28.814   9.974  1.00  0.00    -0.086 C
HETATM    3  C3  UNL     1       8.285  29.919   9.064  1.00  0.00     0.096 C
HETATM    4  C25 UNL     1       7.121  30.876   8.981  1.00  0.00     0.044 C
HETATM    5  C26 UNL     1       7.168  31.552  10.334  1.00  0.00     0.004 C
HETATM    6  C27 UNL     1       8.594  31.448  10.814  1.00  0.00     0.004 C
HETATM    7  C28 UNL     1       9.367  30.835   9.639  1.00  0.00     0.044 C
ENDROOT
BRANCH   3   8
HETATM    8  N1  UNL     1       8.640  29.453   7.740  1.00  0.00    -0.336 N
HETATM    9  C4  UNL     1       7.785  28.726   6.918  1.00  0.00     0.266 C
HETATM   10  O1  UNL     1       6.608  28.446   7.384  1.00  0.00    -0.266 OA
ATOM     11  H1  UNL     1       9.572  29.671   7.389  1.00  0.00     0.164 HD
BRANCH   9  12
HETATM   12  C5  UNL     1       8.015  28.206   5.569  1.00  0.00     0.091 C
BRANCH  12  13
HETATM   13  N2  UNL     1       8.995  27.150   5.540  1.00  0.00    -0.282 N
ATOM     14  H2  UNL     1       9.901  27.250   5.997  1.00  0.00     0.178 HD
BRANCH  13  15
HETATM   15  S1  UNL     1       8.573  25.747   4.718  1.00  0.00     0.230 S
HETATM   16  O2  UNL     1       7.950  26.080   3.378  1.00  0.00    -0.206 OA
HETATM   17  O3  UNL     1       9.843  24.931   4.462  1.00  0.00    -0.206 OA
BRANCH  15  18
HETATM   18  C6  UNL     1       7.491  24.726   5.673  1.00  0.00     0.164 C
BRANCH  18  19
HETATM   19  C7  UNL     1       6.068  25.193   5.462  1.00  0.00     0.024 C
BRANCH  19  20
HETATM   20  C8  UNL     1       5.186  24.183   4.816  1.00  0.00     0.077 C
BRANCH  20  21
HETATM   21  C9  UNL     1       4.369  23.384   5.744  1.00  0.00     0.081 A
HETATM   22  N3  UNL     1       3.011  23.518   5.786  1.00  0.00    -0.346 N
HETATM   23  C10 UNL     1       2.526  22.665   6.691  1.00  0.00     0.049 A
ATOM     24  H3  UNL     1       2.459  24.163   5.221  1.00  0.00     0.167 HD
HETATM   25  C18 UNL     1       3.603  22.005   7.205  1.00  0.00     0.116 A
HETATM   26  N6  UNL     1       4.757  22.445   6.622  1.00  0.00    -0.354 N
ATOM     27  H6  UNL     1       5.709  22.130   6.812  1.00  0.00     0.166 HD
BRANCH  23  28
HETATM   28  C11 UNL     1       1.080  22.472   7.076  1.00  0.00     0.136 C
BRANCH  28  29
HETATM   29  C12 UNL     1       1.019  21.454   8.172  1.00  0.00     0.031 C
BRANCH  29  30
HETATM   30  C13 UNL     1      -0.359  21.329   8.748  1.00  0.00     0.004 C
BRANCH  30  31
HETATM   31  C14 UNL     1      -1.420  21.000   7.736  1.00  0.00     0.027 C
BRANCH  31  32
HETATM   32  C15 UNL     1      -2.639  21.865   8.059  1.00  0.00     0.229 C
BRANCH  32  33
HETATM   33  N4  UNL     1      -3.127  22.320   6.748  1.00  0.00    -0.079 N
ATOM     34  H43 UNL     1      -2.393  22.660   6.127  1.00  0.00     0.274 HD
ATOM     35  H42 UNL     1      -3.451  21.568   6.141  1.00  0.00     0.274 HD
ATOM     36  H41 UNL     1      -3.841  23.015   6.968  1.00  0.00     0.274 HD
ENDBRANCH  32  33
ENDBRANCH  31  32
ENDBRANCH  30  31
ENDBRANCH  29  30
ENDBRANCH  28  29
BRANCH  28  37
HETATM   37  N5  UNL     1       0.563  23.757   7.486  1.00  0.00    -0.351 N
HETATM   38  C16 UNL     1      -0.365  24.481   6.703  1.00  0.00     0.214 C
HETATM   39  C17 UNL     1      -0.886  25.812   7.152  1.00  0.00     0.117 C
HETATM   40  O4  UNL     1      -0.748  23.983   5.615  1.00  0.00    -0.274 OA
ATOM     41  H5  UNL     1       0.878  24.156   8.370  1.00  0.00     0.163 HD
ENDBRANCH  28  37
ENDBRANCH  23  28
ENDBRANCH  20  21
ENDBRANCH  19  20
ENDBRANCH  18  19
ENDBRANCH  15  18
ENDBRANCH  13  15
ENDBRANCH  12  13
BRANCH  12  42
HETATM   42  C19 UNL     1       8.075  29.123   4.435  1.00  0.00     0.042 C
HETATM   43  C20 UNL     1       7.011  30.193   4.460  1.00  0.00     0.011 C
HETATM   44  C21 UNL     1       6.972  30.735   3.017  1.00  0.00     0.001 C
HETATM   45  C22 UNL     1       8.238  31.515   2.817  1.00  0.00     0.000 C
HETATM   46  C23 UNL     1       9.390  31.121   3.670  1.00  0.00     0.001 C
HETATM   47  C24 UNL     1       9.436  29.709   4.131  1.00  0.00     0.011 C
ENDBRANCH  12  42
ENDBRANCH   9  12
ENDBRANCH   3   8
TORSDOF 16
ENDMDL