MODEL 3
REMARK VINA RESULT: -7.338176291      0.731      1.270
REMARK  18 active torsions:
REMARK  status: ('A' for Active; 'I' for Inactive)
REMARK    1  A    between atoms: C2_2  and  C3_3
REMARK    2  A    between atoms: C3_3  and  C5_5
REMARK    3  A    between atoms: C5_5  and  N1_6
REMARK    4  A    between atoms: C5_5  and  C24_34
REMARK    5  A    between atoms: N1_6  and  C6_8
REMARK    6  A    between atoms: C6_8  and  C7_9
REMARK    7  A    between atoms: C6_8  and  C16_21
REMARK       I    between atoms: C7_9  and  N2_11
REMARK    8  A    between atoms: N2_11  and  C8_13
REMARK    9  A    between atoms: C8_13  and  C9_14
REMARK   10  A    between atoms: C9_14  and  C10_15
REMARK   11  A    between atoms: C10_15  and  C11_16
REMARK   12  A    between atoms: C11_16  and  C12_17
REMARK   13  A    between atoms: C16_21  and  C17_22
REMARK   14  A    between atoms: C16_21  and  N3_25
REMARK   15  A    between atoms: C17_22  and  O2_23
REMARK   16  A    between atoms: C20_28  and  C21_29
REMARK       I    between atoms: C24_34  and  N5_36
REMARK   17  A    between atoms: N5_36  and  C25_38
REMARK   18  A    between atoms: C25_38  and  C26_40
ROOT
HETATM    1  C6  UNL     1       8.822  27.003   3.104  1.00  0.00     0.195 C
ENDROOT
BRANCH   1   2
HETATM    2  N1  UNL     1       8.163  28.202   3.506  1.00  0.00    -0.395 N
ATOM      3  H1  UNL     1       7.181  28.377   3.287  1.00  0.00     0.155 HD
BRANCH   2   4
HETATM    4  C5  UNL     1       8.968  29.163   4.247  1.00  0.00     0.174 C
BRANCH   4   5
HETATM    5  C3  UNL     1       9.192  30.423   3.525  1.00  0.00     0.013 C
HETATM    6  C4  UNL     1       7.915  31.195   3.194  1.00  0.00     0.012 C
BRANCH   5   7
HETATM    7  C2  UNL     1      10.242  31.322   4.070  1.00  0.00     0.002 C
HETATM    8  C1  UNL     1      10.799  32.188   2.926  1.00  0.00     0.005 C
ENDBRANCH   5   7
ENDBRANCH   4   5
BRANCH   4   9
HETATM    9  C24 UNL     1       8.261  29.231   5.553  1.00  0.00     0.245 C
HETATM   10  O4  UNL     1       7.145  28.566   5.536  1.00  0.00    -0.271 OA
HETATM   11  N5  UNL     1       8.569  29.858   6.736  1.00  0.00    -0.319 N
ATOM     12  H5  UNL     1       9.428  30.402   6.809  1.00  0.00     0.169 HD
BRANCH  11  13
HETATM   13  C25 UNL     1       7.704  29.759   7.862  1.00  0.00     0.083 C
HETATM   14  S1  UNL     1       8.017  28.865   9.187  1.00  0.00    -0.065 SA
BRANCH  13  15
HETATM   15  C26 UNL     1       6.420  30.500   7.848  1.00  0.00     0.039 C
HETATM   16  C27 UNL     1       6.616  31.980   7.967  1.00  0.00     0.017 C
HETATM   17  C28 UNL     1       5.460  30.006   8.889  1.00  0.00     0.017 C
ENDBRANCH  13  15
ENDBRANCH  11  13
ENDBRANCH   4   9
ENDBRANCH   2   4
ENDBRANCH   1   2
BRANCH   1  18
HETATM   18  C7  UNL     1       8.737  25.885   4.071  1.00  0.00     0.242 C
HETATM   19  O1  UNL     1       9.781  25.232   4.317  1.00  0.00    -0.271 OA
HETATM   20  N2  UNL     1       7.547  25.515   4.722  1.00  0.00    -0.359 N
ATOM     21  H2  UNL     1       6.723  26.069   4.490  1.00  0.00     0.162 HD
BRANCH  20  22
HETATM   22  C8  UNL     1       7.347  24.472   5.662  1.00  0.00     0.122 C
BRANCH  22  23
HETATM   23  C9  UNL     1       6.552  23.295   5.177  1.00  0.00     0.020 C
BRANCH  23  24
HETATM   24  C10 UNL     1       5.132  23.484   5.718  1.00  0.00     0.002 C
BRANCH  24  25
HETATM   25  C11 UNL     1       4.725  22.364   6.644  1.00  0.00     0.008 C
BRANCH  25  26
HETATM   26  C12 UNL     1       3.236  22.295   6.736  1.00  0.00    -0.051 C
HETATM   27  C13 UNL     1       2.754  22.487   8.162  1.00  0.00     0.014 C
HETATM   28  C14 UNL     1       2.709  20.977   6.230  1.00  0.00     0.014 C
HETATM   29  C15 UNL     1       2.643  23.413   5.899  1.00  0.00     0.014 C
ENDBRANCH  25  26
ENDBRANCH  24  25
ENDBRANCH  23  24
ENDBRANCH  22  23
ENDBRANCH  20  22
ENDBRANCH   1  18
BRANCH   1  30
HETATM   30  C16 UNL     1       8.026  26.560   1.846  1.00  0.00     0.134 C
BRANCH  30  31
HETATM   31  C17 UNL     1       7.398  25.219   1.992  1.00  0.00     0.191 C
BRANCH  31  32
HETATM   32  O2  UNL     1       6.022  25.402   1.759  1.00  0.00    -0.399 OA
ATOM     33  H2  UNL     1       5.838  24.991   0.922  1.00  0.00     0.209 HD
ENDBRANCH  31  32
ENDBRANCH  30  31
BRANCH  30  34
HETATM   34  N3  UNL     1       8.871  26.548   0.694  1.00  0.00    -0.404 N
HETATM   35  C18 UNL     1      10.066  25.796   0.786  1.00  0.00     0.118 C
HETATM   36  C19 UNL     1      11.039  26.161  -0.344  1.00  0.00     0.033 C
HETATM   37  C20 UNL     1      10.282  26.247  -1.657  1.00  0.00     0.078 C
HETATM   38  C22 UNL     1       9.161  27.247  -1.561  1.00  0.00     0.033 C
HETATM   39  C23 UNL     1       8.919  27.703  -0.112  1.00  0.00     0.118 C
BRANCH  37  40
HETATM   40  C21 UNL     1       9.646  24.932  -1.984  1.00  0.00     0.235 C
HETATM   41  N4  UNL     1       8.229  24.778  -1.991  1.00  0.00    -0.062 NA
HETATM   42  O3  UNL     1      10.315  23.898  -2.270  1.00  0.00    -0.277 OA
ENDBRANCH  37  40
ENDBRANCH  30  34
ENDBRANCH   1  30
TORSDOF 18
ENDMDL