MODEL 2
REMARK VINA RESULT: -5.858957537      2.571      4.206
REMARK  17 active torsions:
REMARK  status: ('A' for Active; 'I' for Inactive)
REMARK    1  A    between atoms: C2_2  and  C3_3
REMARK    2  A    between atoms: C3_3  and  C4_4
REMARK    3  A    between atoms: C4_4  and  C5_5
REMARK    4  A    between atoms: C5_5  and  C6_6
REMARK    5  A    between atoms: C6_6  and  C7_7
REMARK    6  A    between atoms: C11_14  and  C12_15
REMARK    7  A    between atoms: C13_16  and  C14_17
REMARK    8  A    between atoms: C14_17  and  N2_18
REMARK    9  A    between atoms: C16_25  and  C17_26
REMARK   10  A    between atoms: C17_26  and  C18_27
REMARK   11  A    between atoms: C18_27  and  C19_28
REMARK   12  A    between atoms: C19_28  and  C20_29
REMARK   13  A    between atoms: C20_29  and  C21_30
REMARK   14  A    between atoms: C21_30  and  C22_31
REMARK   15  A    between atoms: C24_38  and  C25_39
REMARK   16  A    between atoms: C25_39  and  C26_40
REMARK   17  A    between atoms: C29_45  and  O7_46
ROOT
HETATM    1  C7  UNL     1       8.112  31.193   4.479  1.00  0.00     0.159 C
HETATM    2  N1  UNL     1       7.416  30.813   3.301  1.00  0.00    -0.349 N
ATOM      3  H1  UNL     1       6.480  30.459   3.498  1.00  0.00     0.163 HD
HETATM    4  C8  UNL     1       7.707  30.809   1.950  1.00  0.00     0.218 C
HETATM    5  O1  UNL     1       6.801  31.377   1.211  1.00  0.00    -0.274 OA
HETATM    6  C9  UNL     1       8.845  30.284   1.196  1.00  0.00     0.105 C
HETATM    7  C10 UNL     1       8.613  28.946   0.561  1.00  0.00     0.046 C
HETATM    8  C11 UNL     1       7.895  27.950   1.439  1.00  0.00     0.155 C
HETATM    9  O2  UNL     1       8.620  27.753   2.572  1.00  0.00    -0.310 OA
HETATM   10  C15 UNL     1       9.129  26.773   3.309  1.00  0.00     0.282 C
HETATM   11  O3  UNL     1      10.374  26.453   3.306  1.00  0.00    -0.263 OA
HETATM   12  C16 UNL     1       8.293  25.964   4.207  1.00  0.00     0.184 C
HETATM   13  N3  UNL     1       7.155  26.605   4.794  1.00  0.00    -0.345 N
ATOM     14  H3  UNL     1       6.262  26.154   4.600  1.00  0.00     0.163 HD
HETATM   15  C23 UNL     1       7.072  27.763   5.598  1.00  0.00     0.241 C
HETATM   16  O6  UNL     1       5.982  28.417   5.422  1.00  0.00    -0.271 OA
HETATM   17  C24 UNL     1       7.997  28.322   6.573  1.00  0.00     0.175 C
HETATM   18  N4  UNL     1       8.891  29.357   6.179  1.00  0.00    -0.359 N
ATOM     19  H4  UNL     1       9.641  29.497   6.857  1.00  0.00     0.162 HD
HETATM   20  C29 UNL     1       8.993  30.217   5.106  1.00  0.00     0.135 C
ENDROOT
BRANCH  12  21
HETATM   21  C17 UNL     1       9.143  25.219   5.254  1.00  0.00     0.035 C
BRANCH  21  22
HETATM   22  C18 UNL     1       8.984  23.747   5.055  1.00  0.00     0.002 C
BRANCH  22  23
HETATM   23  C19 UNL     1       7.523  23.390   4.959  1.00  0.00     0.001 C
BRANCH  23  24
HETATM   24  C20 UNL     1       6.817  23.329   6.265  1.00  0.00     0.010 C
BRANCH  24  25
HETATM   25  C21 UNL     1       5.432  22.753   6.216  1.00  0.00     0.113 C
BRANCH  25  26
HETATM   26  C22 UNL     1       4.415  23.574   5.570  1.00  0.00     0.172 C
HETATM   27  O4  UNL     1       3.221  23.194   5.522  1.00  0.00    -0.648 OA
HETATM   28  O5  UNL     1       4.751  24.806   4.987  1.00  0.00    -0.648 OA
ENDBRANCH  25  26
ENDBRANCH  24  25
ENDBRANCH  23  24
ENDBRANCH  22  23
ENDBRANCH  21  22
ENDBRANCH  12  21
BRANCH   8  29
HETATM   29  C12 UNL     1       7.650  26.690   0.693  1.00  0.00     0.003 C
HETATM   30  C13 UNL     1       8.680  26.056   0.168  1.00  0.00    -0.001 C
BRANCH  30  31
HETATM   31  C14 UNL     1       8.556  24.787  -0.601  1.00  0.00     0.256 C
BRANCH  31  32
HETATM   32  N2  UNL     1       9.178  23.734   0.196  1.00  0.00    -0.076 N
ATOM     33  H23 UNL     1       8.758  22.817   0.040  1.00  0.00     0.274 HD
ATOM     34  H22 UNL     1      10.121  23.503  -0.115  1.00  0.00     0.274 HD
ATOM     35  H21 UNL     1       9.141  24.030   1.171  1.00  0.00     0.274 HD
ENDBRANCH  31  32
ENDBRANCH  30  31
ENDBRANCH   8  29
BRANCH  17  36
HETATM   36  C25 UNL     1       7.371  28.808   7.871  1.00  0.00     0.038 C
BRANCH  36  37
HETATM   37  C26 UNL     1       8.241  28.896   9.048  1.00  0.00    -0.020 C
HETATM   38  C27 UNL     1       8.384  30.408   9.361  1.00  0.00     0.009 C
HETATM   39  C28 UNL     1       7.801  28.274  10.321  1.00  0.00     0.009 C
ENDBRANCH  36  37
ENDBRANCH  17  36
BRANCH  20  40
HETATM   40  O7  UNL     1      10.153  30.143   4.506  1.00  0.00    -0.348 OA
ATOM     41  H7  UNL     1      10.327  29.273   4.168  1.00  0.00     0.219 HD
ENDBRANCH  20  40
BRANCH   1  42
HETATM   42  C6  UNL     1       8.871  32.513   4.200  1.00  0.00     0.033 C
BRANCH  42  43
HETATM   43  C5  UNL     1       8.937  33.347   5.454  1.00  0.00     0.002 C
BRANCH  43  44
HETATM   44  C4  UNL     1      10.409  33.537   5.777  1.00  0.00     0.000 C
BRANCH  44  45
HETATM   45  C3  UNL     1      11.155  34.142   4.607  1.00  0.00    -0.000 C
BRANCH  45  46
HETATM   46  C2  UNL     1      12.482  33.383   4.495  1.00  0.00    -0.005 C
HETATM   47  C1  UNL     1      12.470  32.483   3.280  1.00  0.00     0.005 C
ENDBRANCH  45  46
ENDBRANCH  44  45
ENDBRANCH  43  44
ENDBRANCH  42  43
ENDBRANCH   1  42
TORSDOF 17
ENDMDL