MODEL 2
REMARK VINA RESULT: -7.887489327      1.863      7.832
REMARK  16 active torsions:
REMARK  status: ('A' for Active; 'I' for Inactive)
REMARK    1  A    between atoms: C2_2  and  C4_4
REMARK    2  A    between atoms: C4_4  and  C5_5
REMARK    3  A    between atoms: C5_5  and  N1_6
REMARK    4  A    between atoms: C5_5  and  C6_10
REMARK       I    between atoms: C6_10  and  N2_12
REMARK    5  A    between atoms: N2_12  and  C7_14
REMARK    6  A    between atoms: C7_14  and  C8_15
REMARK    7  A    between atoms: C7_14  and  C23_37
REMARK    8  A    between atoms: C8_15  and  C9_16
REMARK       I    between atoms: C9_16  and  N3_18
REMARK    9  A    between atoms: N3_18  and  C10_20
REMARK   10  A    between atoms: C10_20  and  C11_21
REMARK   11  A    between atoms: C10_20  and  C18_28
REMARK   12  A    between atoms: C11_21  and  C12_22
REMARK   13  A    between atoms: C18_28  and  N4_29
REMARK   14  A    between atoms: C18_28  and  C19_33
REMARK   15  A    between atoms: C19_33  and  C20_34
REMARK       I    between atoms: C23_37  and  N5_39
REMARK   16  A    between atoms: N5_39  and  C24_41
ROOT
HETATM    1  C7  UNL     1       6.602  24.264   4.613  1.00  0.00     0.185 C
ENDROOT
BRANCH   1   2
HETATM    2  N2  UNL     1       6.801  25.268   3.600  1.00  0.00    -0.346 N
HETATM    3  C6  UNL     1       7.454  25.055   2.360  1.00  0.00     0.249 C
HETATM    4  O1  UNL     1       7.894  23.907   2.110  1.00  0.00    -0.271 OA
ATOM      5  H2  UNL     1       6.444  26.204   3.789  1.00  0.00     0.163 HD
BRANCH   3   6
HETATM    6  C5  UNL     1       7.623  26.146   1.373  1.00  0.00     0.275 C
BRANCH   6   7
HETATM    7  C4  UNL     1       8.400  27.305   1.941  1.00  0.00     0.046 C
BRANCH   7   8
HETATM    8  C2  UNL     1       8.264  28.564   1.150  1.00  0.00    -0.020 C
HETATM    9  C1  UNL     1       6.866  28.819   0.640  1.00  0.00     0.009 C
HETATM   10  C3  UNL     1       9.229  28.711   0.015  1.00  0.00     0.009 C
ENDBRANCH   7   8
ENDBRANCH   6   7
BRANCH   6  11
HETATM   11  N1  UNL     1       8.242  25.614   0.191  1.00  0.00    -0.066 N
ATOM     12  H13 UNL     1       9.152  26.043   0.024  1.00  0.00     0.275 HD
ATOM     13  H12 UNL     1       8.543  24.650   0.332  1.00  0.00     0.275 HD
ATOM     14  H11 UNL     1       7.636  25.699  -0.626  1.00  0.00     0.275 HD
ENDBRANCH   6  11
ENDBRANCH   3   6
ENDBRANCH   1   2
BRANCH   1  15
HETATM   15  C8  UNL     1       7.290  24.683   5.870  1.00  0.00     0.137 C
BRANCH  15  16
HETATM   16  C9  UNL     1       7.852  26.025   5.811  1.00  0.00     0.220 C
HETATM   17  O2  UNL     1       9.000  26.128   5.241  1.00  0.00    -0.274 OA
HETATM   18  N3  UNL     1       7.288  27.190   6.298  1.00  0.00    -0.354 N
ATOM     19  H3  UNL     1       6.376  27.169   6.753  1.00  0.00     0.162 HD
BRANCH  18  20
HETATM   20  C10 UNL     1       8.064  28.543   6.142  1.00  0.00     0.115 C
BRANCH  20  21
HETATM   21  C11 UNL     1       7.338  29.151   5.030  1.00  0.00     0.032 C
BRANCH  21  22
HETATM   22  C12 UNL     1       7.724  30.122   4.058  1.00  0.00    -0.013 C
HETATM   23  C13 UNL     1       6.955  31.402   4.021  1.00  0.00     0.005 C
HETATM   24  C14 UNL     1       7.088  32.032   2.619  1.00  0.00     0.000 C
HETATM   25  C15 UNL     1       8.545  32.126   2.256  1.00  0.00     0.000 C
HETATM   26  C16 UNL     1       9.389  31.878   3.493  1.00  0.00     0.000 C
HETATM   27  C17 UNL     1       9.192  30.446   3.936  1.00  0.00     0.005 C
ENDBRANCH  21  22
ENDBRANCH  20  21
BRANCH  20  28
HETATM   28  C18 UNL     1       7.909  29.017   7.539  1.00  0.00     0.206 C
BRANCH  28  29
HETATM   29  N4  UNL     1       8.648  30.378   7.471  1.00  0.00    -0.073 N
ATOM     30  H43 UNL     1       8.359  30.997   6.714  1.00  0.00     0.274 HD
ATOM     31  H42 UNL     1       8.422  31.038   8.215  1.00  0.00     0.274 HD
ATOM     32  H41 UNL     1       9.620  30.068   7.438  1.00  0.00     0.274 HD
ENDBRANCH  28  29
BRANCH  28  33
HETATM   33  C19 UNL     1       6.642  29.446   8.135  1.00  0.00     0.038 C
BRANCH  33  34
HETATM   34  C20 UNL     1       6.330  29.037   9.537  1.00  0.00    -0.021 C
HETATM   35  C21 UNL     1       6.212  30.328  10.380  1.00  0.00     0.009 C
HETATM   36  C22 UNL     1       7.449  28.267  10.180  1.00  0.00     0.009 C
ENDBRANCH  33  34
ENDBRANCH  28  33
ENDBRANCH  20  28
ENDBRANCH  18  20
ENDBRANCH  15  16
ENDBRANCH   1  15
BRANCH   1  37
HETATM   37  C23 UNL     1       5.124  24.069   4.858  1.00  0.00     0.242 C
HETATM   38  O3  UNL     1       4.351  24.715   4.120  1.00  0.00    -0.271 OA
HETATM   39  N5  UNL     1       4.674  23.197   5.876  1.00  0.00    -0.333 N
ATOM     40  H5  UNL     1       5.351  22.694   6.448  1.00  0.00     0.165 HD
BRANCH  39  41
HETATM   41  C24 UNL     1       3.257  23.013   6.112  1.00  0.00     0.224 C
HETATM   42  C25 UNL     1       2.826  21.588   5.897  1.00  0.00     0.059 C
HETATM   43  C26 UNL     1       2.175  21.017   7.108  1.00  0.00     0.002 C
HETATM   44  C27 UNL     1       3.020  21.402   8.331  1.00  0.00     0.038 C
HETATM   45  C29 UNL     1       1.147  22.023   7.642  1.00  0.00    -0.018 C
HETATM   46  C28 UNL     1       2.341  22.756   8.236  1.00  0.00     0.132 C
HETATM   47  O4  UNL     1       2.889  23.576   7.296  1.00  0.00    -0.361 OA
HETATM   48  C30 UNL     1       0.263  21.414   8.710  1.00  0.00     0.018 C
HETATM   49  C31 UNL     1       0.391  22.757   6.576  1.00  0.00     0.018 C
ENDBRANCH  39  41
ENDBRANCH   1  37
TORSDOF 16
ENDMDL