MODEL 2
REMARK VINA RESULT: -7.860114595      1.998      3.026
REMARK  16 active torsions:
REMARK  status: ('A' for Active; 'I' for Inactive)
REMARK    1  A    between atoms: C2_2  and  C4_4
REMARK    2  A    between atoms: C4_4  and  C5_5
REMARK    3  A    between atoms: C5_5  and  N1_6
REMARK    4  A    between atoms: C5_5  and  C12_23
REMARK       I    between atoms: N1_6  and  C6_8
REMARK    5  A    between atoms: C6_8  and  C7_10
REMARK    6  A    between atoms: C7_10  and  N2_11
REMARK    7  A    between atoms: C7_10  and  C8_15
REMARK    8  A    between atoms: C8_15  and  C9_16
REMARK    9  A    between atoms: C9_16  and  C10_17
REMARK   10  A    between atoms: C10_17  and  C11_18
REMARK   11  A    between atoms: C11_18  and  N3_19
REMARK       I    between atoms: C12_23  and  N4_25
REMARK   12  A    between atoms: N4_25  and  C13_27
REMARK   13  A    between atoms: N5_31  and  C17_32
REMARK   14  A    between atoms: C17_32  and  C18_33
REMARK   15  A    between atoms: C21_36  and  C22_37
REMARK       I    between atoms: C22_37  and  N6_39
REMARK   16  A    between atoms: N6_39  and  C23_41
ROOT
HETATM    1  C12 UNL     1      -5.915  22.601   8.731  1.00  0.00     0.240 C
HETATM    2  O2  UNL     1      -5.677  23.823   8.642  1.00  0.00    -0.271 OA
HETATM    3  N4  UNL     1      -4.876  21.636   8.635  1.00  0.00    -0.353 N
ATOM      4  H4  UNL     1      -5.084  20.641   8.709  1.00  0.00     0.163 HD
ENDROOT
BRANCH   3   5
HETATM    5  C13 UNL     1      -3.519  22.089   8.432  1.00  0.00     0.107 C
HETATM    6  C14 UNL     1      -3.304  23.550   8.619  1.00  0.00     0.029 C
HETATM    7  C15 UNL     1      -2.735  24.178   7.388  1.00  0.00     0.022 C
HETATM    8  C16 UNL     1      -1.481  23.452   6.904  1.00  0.00     0.122 C
HETATM    9  N5  UNL     1      -1.665  22.025   6.971  1.00  0.00    -0.387 N
HETATM   10  C30 UNL     1      -3.049  21.729   7.012  1.00  0.00     0.102 C
HETATM   11  C31 UNL     1      -3.424  20.305   6.678  1.00  0.00     0.034 C
BRANCH   9  12
HETATM   12  C17 UNL     1      -0.790  21.328   7.813  1.00  0.00     0.063 C
BRANCH  12  13
HETATM   13  C18 UNL     1       0.669  21.449   7.464  1.00  0.00     0.024 C
HETATM   14  C19 UNL     1       1.506  21.609   8.713  1.00  0.00     0.010 C
HETATM   15  C20 UNL     1       2.961  21.528   8.333  1.00  0.00     0.015 C
HETATM   16  C21 UNL     1       3.206  21.943   6.889  1.00  0.00     0.078 C
HETATM   17  C28 UNL     1       2.301  23.064   6.465  1.00  0.00     0.015 C
HETATM   18  C29 UNL     1       0.846  22.685   6.614  1.00  0.00     0.010 C
BRANCH  16  19
HETATM   19  C22 UNL     1       4.611  22.372   6.766  1.00  0.00     0.222 C
HETATM   20  O3  UNL     1       5.491  21.725   7.399  1.00  0.00    -0.273 OA
HETATM   21  N6  UNL     1       5.016  23.463   5.979  1.00  0.00    -0.356 N
ATOM     22  H6  UNL     1       4.309  23.990   5.466  1.00  0.00     0.162 HD
BRANCH  21  23
HETATM   23  C23 UNL     1       6.388  23.860   5.875  1.00  0.00     0.084 C
HETATM   24  C24 UNL     1       6.586  25.331   5.594  1.00  0.00     0.025 C
HETATM   25  C25 UNL     1       7.757  25.414   4.646  1.00  0.00     0.002 C
HETATM   26  C26 UNL     1       8.181  23.999   4.339  1.00  0.00     0.002 C
HETATM   27  C27 UNL     1       6.942  23.193   4.609  1.00  0.00     0.025 C
ENDBRANCH  21  23
ENDBRANCH  16  19
ENDBRANCH  12  13
ENDBRANCH   9  12
ENDBRANCH   3   5
BRANCH   1  28
HETATM   28  C5  UNL     1      -7.342  22.189   8.946  1.00  0.00     0.177 C
BRANCH  28  29
HETATM   29  C4  UNL     1      -7.956  23.000  10.041  1.00  0.00     0.038 C
BRANCH  29  30
HETATM   30  C2  UNL     1      -7.770  22.457  11.423  1.00  0.00    -0.020 C
HETATM   31  C1  UNL     1      -9.086  22.274  12.105  1.00  0.00     0.009 C
HETATM   32  C3  UNL     1      -6.929  23.468  12.210  1.00  0.00     0.009 C
ENDBRANCH  29  30
ENDBRANCH  28  29
BRANCH  28  33
HETATM   33  N1  UNL     1      -7.331  20.773   9.250  1.00  0.00    -0.346 N
HETATM   34  C6  UNL     1      -8.357  19.973   8.696  1.00  0.00     0.248 C
HETATM   35  O1  UNL     1      -9.260  20.472   7.956  1.00  0.00    -0.271 OA
ATOM     36  H1  UNL     1      -6.608  20.366   9.843  1.00  0.00     0.163 HD
BRANCH  34  37
HETATM   37  C7  UNL     1      -8.388  18.532   8.977  1.00  0.00     0.274 C
BRANCH  37  38
HETATM   38  N2  UNL     1      -9.772  18.115   9.109  1.00  0.00    -0.067 N
ATOM     39  H23 UNL     1     -10.424  18.895   9.037  1.00  0.00     0.275 HD
ATOM     40  H22 UNL     1     -10.099  17.585   8.301  1.00  0.00     0.275 HD
ATOM     41  H21 UNL     1      -9.875  17.599   9.982  1.00  0.00     0.275 HD
ENDBRANCH  37  38
BRANCH  37  42
HETATM   42  C8  UNL     1      -7.627  18.301  10.274  1.00  0.00     0.042 C
BRANCH  42  43
HETATM   43  C9  UNL     1      -8.575  18.241  11.451  1.00  0.00     0.004 C
BRANCH  43  44
HETATM   44  C10 UNL     1      -7.960  18.831  12.694  1.00  0.00     0.027 C
BRANCH  44  45
HETATM   45  C11 UNL     1      -6.502  19.096  12.499  1.00  0.00     0.229 C
BRANCH  45  46
HETATM   46  N3  UNL     1      -5.687  18.384  13.491  1.00  0.00    -0.079 N
ATOM     47  H33 UNL     1      -6.034  18.538  14.438  1.00  0.00     0.274 HD
ATOM     48  H32 UNL     1      -5.827  17.375  13.433  1.00  0.00     0.274 HD
ATOM     49  H31 UNL     1      -4.701  18.630  13.411  1.00  0.00     0.274 HD
ENDBRANCH  45  46
ENDBRANCH  44  45
ENDBRANCH  43  44
ENDBRANCH  42  43
ENDBRANCH  37  42
ENDBRANCH  34  37
ENDBRANCH  28  33
ENDBRANCH   1  28
TORSDOF 16
ENDMDL