MODEL 2
REMARK VINA RESULT: -7.824267352      2.038      4.575
REMARK  16 active torsions:
REMARK  status: ('A' for Active; 'I' for Inactive)
REMARK    1  A    between atoms: C2_2  and  C3_3
REMARK    2  A    between atoms: C3_3  and  C5_5
REMARK    3  A    between atoms: C5_5  and  N1_6
REMARK    4  A    between atoms: C5_5  and  C13_16
REMARK       I    between atoms: N1_6  and  C6_8
REMARK    5  A    between atoms: C6_8  and  C7_10
REMARK       I    between atoms: C13_16  and  N2_18
REMARK    6  A    between atoms: N2_18  and  C14_20
REMARK    7  A    between atoms: C14_20  and  C15_21
REMARK    8  A    between atoms: C15_21  and  O3_22
REMARK    9  A    between atoms: C15_21  and  C16_24
REMARK   10  A    between atoms: C16_24  and  C17_25
REMARK   11  A    between atoms: C16_24  and  N3_29
REMARK   12  A    between atoms: C17_25  and  C18_26
REMARK   13  A    between atoms: N3_29  and  C21_31
REMARK   14  A    between atoms: C21_31  and  C23_33
REMARK   15  A    between atoms: C26_36  and  C27_37
REMARK   16  A    between atoms: C27_37  and  C28_38
ROOT
HETATM    1  C15 UNL     1       7.861  29.026   6.376  1.00  0.00     0.201 C
ENDROOT
BRANCH   1   2
HETATM    2  C14 UNL     1       8.412  28.761   5.063  1.00  0.00     0.101 C
BRANCH   2   3
HETATM    3  N2  UNL     1       7.956  27.594   4.407  1.00  0.00    -0.333 N
HETATM    4  C13 UNL     1       8.680  26.548   3.754  1.00  0.00     0.268 C
HETATM    5  O2  UNL     1       9.928  26.621   3.718  1.00  0.00    -0.266 OA
ATOM      6  H2  UNL     1       6.942  27.478   4.399  1.00  0.00     0.168 HD
BRANCH   4   7
HETATM    7  C5  UNL     1       7.899  25.427   3.138  1.00  0.00     0.084 C
BRANCH   7   8
HETATM    8  C3  UNL     1       7.689  25.538   1.655  1.00  0.00     0.037 C
HETATM    9  C4  UNL     1       8.750  24.703   0.922  1.00  0.00     0.016 C
BRANCH   8  10
HETATM   10  C2  UNL     1       7.619  26.909   1.102  1.00  0.00     0.006 C
HETATM   11  C1  UNL     1       8.697  27.458   0.275  1.00  0.00     0.006 C
ENDBRANCH   8  10
ENDBRANCH   7   8
BRANCH   7  12
HETATM   12  N1  UNL     1       6.754  25.004   3.887  1.00  0.00    -0.325 N
HETATM   13  C6  UNL     1       6.808  24.229   5.060  1.00  0.00     0.226 C
HETATM   14  O1  UNL     1       7.930  23.869   5.509  1.00  0.00    -0.273 OA
ATOM     15  H1  UNL     1       5.834  25.283   3.545  1.00  0.00     0.168 HD
BRANCH  13  16
HETATM   16  C7  UNL     1       5.613  23.816   5.791  1.00  0.00     0.078 C
HETATM   17  C8  UNL     1       5.703  22.308   6.026  1.00  0.00     0.014 C
HETATM   18  C9  UNL     1       4.656  21.849   7.005  1.00  0.00     0.001 C
HETATM   19  C10 UNL     1       3.488  22.801   7.025  1.00  0.00     0.000 C
HETATM   20  C11 UNL     1       3.244  23.266   5.611  1.00  0.00     0.001 C
HETATM   21  C12 UNL     1       4.337  24.141   5.076  1.00  0.00     0.014 C
ENDBRANCH  13  16
ENDBRANCH   7  12
ENDBRANCH   4   7
ENDBRANCH   2   3
ENDBRANCH   1   2
BRANCH   1  22
HETATM   22  O3  UNL     1       8.730  28.705   7.414  1.00  0.00    -0.385 OA
ATOM     23  H3  UNL     1       8.828  29.402   8.053  1.00  0.00     0.211 HD
ENDBRANCH   1  22
BRANCH   1  24
HETATM   24  C16 UNL     1       7.239  30.365   6.661  1.00  0.00     0.017 C
BRANCH  24  25
HETATM   25  C17 UNL     1       8.328  31.382   6.426  1.00  0.00     0.059 C
BRANCH  25  26
HETATM   26  C18 UNL     1       8.131  32.427   5.428  1.00  0.00    -0.017 C
HETATM   27  C19 UNL     1       9.347  32.492   4.488  1.00  0.00     0.010 C
HETATM   28  C20 UNL     1       6.933  32.449   4.561  1.00  0.00     0.010 C
ENDBRANCH  25  26
ENDBRANCH  24  25
BRANCH  24  29
HETATM   29  N3  UNL     1       6.397  30.612   7.740  1.00  0.00    -0.388 N
ATOM     30  H3  UNL     1       5.511  30.111   7.810  1.00  0.00     0.159 HD
BRANCH  29  31
HETATM   31  C21 UNL     1       6.749  31.547   8.743  1.00  0.00     0.100 C
HETATM   32  C22 UNL     1       5.598  32.539   8.907  1.00  0.00     0.034 C
BRANCH  31  33
HETATM   33  C23 UNL     1       7.067  31.008  10.116  1.00  0.00     0.108 C
HETATM   34  C24 UNL     1       6.291  29.754  10.363  1.00  0.00     0.028 C
HETATM   35  C25 UNL     1       6.941  28.442  10.222  1.00  0.00     0.017 C
HETATM   36  C26 UNL     1       8.220  28.340  10.996  1.00  0.00     0.088 C
HETATM   37  C29 UNL     1       8.969  29.592  10.930  1.00  0.00     0.224 C
HETATM   38  O6  UNL     1      10.099  29.628  11.462  1.00  0.00    -0.273 OA
HETATM   39  N4  UNL     1       8.465  30.772  10.282  1.00  0.00    -0.349 N
HETATM   40  C30 UNL     1       9.457  31.711   9.827  1.00  0.00     0.153 C
BRANCH  36  41
HETATM   41  C27 UNL     1       7.884  27.954  12.417  1.00  0.00     0.127 C
BRANCH  41  42
HETATM   42  C28 UNL     1       8.538  26.698  12.837  1.00  0.00     0.173 C
HETATM   43  O4  UNL     1       8.666  25.778  11.987  1.00  0.00    -0.648 OA
HETATM   44  O5  UNL     1       9.027  26.468  14.117  1.00  0.00    -0.648 OA
ENDBRANCH  41  42
ENDBRANCH  36  41
ENDBRANCH  31  33
ENDBRANCH  29  31
ENDBRANCH  24  29
ENDBRANCH   1  24
TORSDOF 16
ENDMDL