MODEL 2
REMARK VINA RESULT: -7.065220689      4.294      8.811
REMARK  16 active torsions:
REMARK  status: ('A' for Active; 'I' for Inactive)
REMARK    1  A    between atoms: C2_2  and  C4_4
REMARK    2  A    between atoms: C4_4  and  C5_5
REMARK    3  A    between atoms: C5_5  and  N1_6
REMARK    4  A    between atoms: C5_5  and  C10_14
REMARK       I    between atoms: N1_6  and  C6_8
REMARK    5  A    between atoms: C6_8  and  C7_10
REMARK    6  A    between atoms: C7_10  and  C9_12
REMARK    7  A    between atoms: C10_14  and  O2_15
REMARK    8  A    between atoms: C10_14  and  C11_17
REMARK    9  A    between atoms: C12_18  and  C13_19
REMARK   10  A    between atoms: C17_23  and  N2_24
REMARK   11  A    between atoms: C17_23  and  C29_40
REMARK       I    between atoms: N2_24  and  C18_26
REMARK   12  A    between atoms: C18_26  and  C19_28
REMARK   13  A    between atoms: C19_28  and  C20_29
REMARK   14  A    between atoms: C20_29  and  C21_30
REMARK   15  A    between atoms: C21_30  and  N3_31
REMARK   16  A    between atoms: N3_31  and  C24_34
ROOT
HETATM    1  C13 UNL     1       8.170  28.514   5.045  1.00  0.00     0.047 C
HETATM    2  C14 UNL     1       8.090  28.288   6.513  1.00  0.00     0.011 C
HETATM    3  C15 UNL     1       6.825  29.047   6.869  1.00  0.00     0.004 C
HETATM    4  C16 UNL     1       6.725  30.174   5.864  1.00  0.00     0.043 C
HETATM    5  C17 UNL     1       7.892  30.009   4.922  1.00  0.00     0.128 C
ENDROOT
BRANCH   5   6
HETATM    6  N2  UNL     1       8.987  30.778   5.437  1.00  0.00    -0.341 N
HETATM    7  C18 UNL     1       8.839  32.158   5.695  1.00  0.00     0.218 C
HETATM    8  O3  UNL     1       7.782  32.815   5.506  1.00  0.00    -0.274 OA
ATOM      9  H2  UNL     1       9.882  30.324   5.618  1.00  0.00     0.163 HD
BRANCH   7  10
HETATM   10  C19 UNL     1       9.991  32.974   6.242  1.00  0.00     0.104 C
BRANCH  10  11
HETATM   11  C20 UNL     1       9.846  33.241   7.688  1.00  0.00     0.037 C
BRANCH  11  12
HETATM   12  C21 UNL     1       9.361  32.195   8.581  1.00  0.00     0.238 C
BRANCH  12  13
HETATM   13  N3  UNL     1       8.307  32.392   9.496  1.00  0.00    -0.064 N
HETATM   14  C22 UNL     1       8.348  33.852   9.803  1.00  0.00     0.273 C
HETATM   15  C23 UNL     1       6.959  32.227   8.957  1.00  0.00     0.273 C
BRANCH  13  16
HETATM   16  C24 UNL     1       8.364  31.625  10.692  1.00  0.00     0.258 C
HETATM   17  C25 UNL     1       7.519  30.397  10.753  1.00  0.00     0.042 C
HETATM   18  C26 UNL     1       8.367  29.272  10.190  1.00  0.00     0.010 C
HETATM   19  C27 UNL     1       9.794  29.672  10.397  1.00  0.00     0.080 C
HETATM   20  C28 UNL     1       9.771  31.092  10.849  1.00  0.00     0.158 C
HETATM   21  O4  UNL     1      10.750  31.678  11.268  1.00  0.00    -0.296 OA
ENDBRANCH  13  16
ENDBRANCH  12  13
ENDBRANCH  11  12
ENDBRANCH  10  11
ENDBRANCH   7  10
ENDBRANCH   5   6
BRANCH   5  22
HETATM   22  C29 UNL     1       7.576  30.312   3.520  1.00  0.00     0.203 C
HETATM   23  O5  UNL     1       6.400  30.244   3.125  1.00  0.00    -0.646 OA
HETATM   24  O6  UNL     1       8.564  30.668   2.636  1.00  0.00    -0.646 OA
ENDBRANCH   5  22
BRANCH   1  25
HETATM   25  C12 UNL     1       9.439  28.100   4.435  1.00  0.00    -0.020 C
HETATM   26  C11 UNL     1       9.749  26.865   4.175  1.00  0.00     0.003 C
BRANCH  26  27
HETATM   27  C10 UNL     1       8.928  25.665   4.427  1.00  0.00     0.163 C
BRANCH  27  28
HETATM   28  C5  UNL     1       7.877  25.449   3.349  1.00  0.00     0.117 C
BRANCH  28  29
HETATM   29  C4  UNL     1       8.501  25.075   2.036  1.00  0.00     0.032 C
BRANCH  29  30
HETATM   30  C2  UNL     1       7.887  25.881   0.913  1.00  0.00    -0.021 C
HETATM   31  C1  UNL     1       8.647  25.652  -0.388  1.00  0.00     0.009 C
HETATM   32  C3  UNL     1       7.884  27.377   1.203  1.00  0.00     0.009 C
ENDBRANCH  29  30
ENDBRANCH  28  29
BRANCH  28  33
HETATM   33  N1  UNL     1       6.970  24.393   3.746  1.00  0.00    -0.353 N
HETATM   34  C6  UNL     1       6.119  24.452   4.868  1.00  0.00     0.222 C
HETATM   35  O1  UNL     1       6.126  25.472   5.590  1.00  0.00    -0.273 OA
ATOM     36  H1  UNL     1       6.945  23.549   3.175  1.00  0.00     0.163 HD
BRANCH  34  37
HETATM   37  C7  UNL     1       5.223  23.333   5.205  1.00  0.00     0.084 C
HETATM   38  C8  UNL     1       3.804  23.828   5.330  1.00  0.00     0.020 C
BRANCH  37  39
HETATM   39  C9  UNL     1       5.614  22.649   6.496  1.00  0.00     0.099 C
HETATM   40  S1  UNL     1       4.107  21.904   7.196  1.00  0.00    -0.097 SA
ENDBRANCH  37  39
ENDBRANCH  34  37
ENDBRANCH  28  33
ENDBRANCH  27  28
BRANCH  27  41
HETATM   41  O2  UNL     1       9.757  24.551   4.435  1.00  0.00    -0.390 OA
ATOM     42  H2  UNL     1      10.189  24.520   5.280  1.00  0.00     0.210 HD
ENDBRANCH  27  41
ENDBRANCH  26  27
ENDBRANCH   1  25
TORSDOF 16
ENDMDL