MODEL 2
REMARK VINA RESULT: -7.619192209      3.008      5.739
REMARK  12 active torsions:
REMARK  status: ('A' for Active; 'I' for Inactive)
REMARK    1  A    between atoms: C2_2  and  C3_3
REMARK    2  A    between atoms: C3_3  and  N1_4
REMARK    3  A    between atoms: N1_4  and  C4_6
REMARK    4  A    between atoms: N3_10  and  C6_12
REMARK    5  A    between atoms: C6_12  and  C7_13
REMARK    6  A    between atoms: C7_13  and  C8_14
REMARK    7  A    between atoms: C8_14  and  S1_15
REMARK    8  A    between atoms: S1_15  and  C9_16
REMARK    9  A    between atoms: C11_21  and  N5_22
REMARK   10  A    between atoms: N5_22  and  C12_24
REMARK   11  A    between atoms: C12_24  and  C13_25
REMARK   12  A    between atoms: C13_25  and  C14_26
ROOT
HETATM    1  C4  UNL     1      -6.120   9.959 -14.607  1.00  0.00     0.707 A
HETATM    2  N2  UNL     1      -4.774  10.115 -14.473  1.00  0.00    -0.022 N
ATOM      3  H2  UNL     1      -4.156   9.610 -15.107  1.00  0.00     0.203 HD
HETATM    4  C5  UNL     1      -4.230  10.908 -13.538  1.00  0.00     0.707 A
HETATM    5  N3  UNL     1      -2.970  11.068 -13.396  1.00  0.00    -0.225 N
ATOM      6  H3  UNL     1      -2.663  11.695 -12.651  1.00  0.00     0.177 HD
HETATM    7  N4  UNL     1      -5.102  11.565 -12.711  1.00  0.00    -0.022 N
ATOM      8  H4  UNL     1      -4.737  12.179 -11.984  1.00  0.00     0.203 HD
HETATM    9  C11 UNL     1      -6.432  11.413 -12.841  1.00  0.00     0.707 A
HETATM   10  N6  UNL     1      -6.960  10.613 -13.785  1.00  0.00    -0.022 N
ATOM     11  H6  UNL     1      -7.970  10.504 -13.875  1.00  0.00     0.203 HD
ENDROOT
BRANCH   5  12
HETATM   12  C6  UNL     1      -1.963  10.455 -14.174  1.00  0.00     0.139 C
BRANCH  12  13
HETATM   13  C7  UNL     1      -1.198   9.503 -13.240  1.00  0.00     0.031 C
BRANCH  13  14
HETATM   14  C8  UNL     1      -0.541  10.371 -12.220  1.00  0.00     0.084 C
BRANCH  14  15
HETATM   15  S1  UNL     1       0.227   9.466 -10.863  1.00  0.00    -0.093 SA
BRANCH  15  16
HETATM   16  C9  UNL     1      -0.947   9.271  -9.557  1.00  0.00     0.182 C
HETATM   17  C10 UNL     1      -1.934  10.328  -9.269  1.00  0.00     0.104 C
HETATM   18  O1  UNL     1      -0.941   8.260  -8.891  1.00  0.00    -0.286 OA
ENDBRANCH  15  16
ENDBRANCH  14  15
ENDBRANCH  13  14
ENDBRANCH  12  13
ENDBRANCH   5  12
BRANCH   1  19
HETATM   19  N1  UNL     1      -6.657   9.198 -15.501  1.00  0.00    -0.222 N
ATOM     20  H1  UNL     1      -7.330   8.479 -15.235  1.00  0.00     0.178 HD
BRANCH  19  21
HETATM   21  C3  UNL     1      -6.284   9.385 -16.890  1.00  0.00     0.164 C
BRANCH  21  22
HETATM   22  C2  UNL     1      -7.367   9.002 -17.797  1.00  0.00    -0.017 C
HETATM   23  C1  UNL     1      -7.107   8.634 -19.037  1.00  0.00     0.008 C
ENDBRANCH  21  22
ENDBRANCH  19  21
ENDBRANCH   1  19
BRANCH   9  24
HETATM   24  N5  UNL     1      -7.224  12.046 -12.041  1.00  0.00    -0.225 N
ATOM     25  H5  UNL     1      -7.834  11.527 -11.410  1.00  0.00     0.177 HD
BRANCH  24  26
HETATM   26  C12 UNL     1      -7.245  13.484 -12.044  1.00  0.00     0.138 C
BRANCH  26  27
HETATM   27  C13 UNL     1      -8.207  13.962 -10.974  1.00  0.00     0.025 C
BRANCH  27  28
HETATM   28  C14 UNL     1      -8.579  15.387 -11.271  1.00  0.00    -0.013 C
HETATM   29  C15 UNL     1      -8.895  16.103  -9.978  1.00  0.00     0.005 C
HETATM   30  C16 UNL     1      -8.050  17.361 -10.023  1.00  0.00     0.000 C
HETATM   31  C17 UNL     1      -6.789  16.819 -10.697  1.00  0.00     0.000 C
HETATM   32  C18 UNL     1      -7.382  16.092 -11.885  1.00  0.00     0.005 C
ENDBRANCH  27  28
ENDBRANCH  26  27
ENDBRANCH  24  26
ENDBRANCH   9  24
TORSDOF 12
ENDMDL