MODEL 1
REMARK VINA RESULT: -7.597259647      0.000      0.000
REMARK  12 active torsions:
REMARK  status: ('A' for Active; 'I' for Inactive)
REMARK    1  A    between atoms: C2_2  and  C3_3
REMARK    2  A    between atoms: C3_3  and  C4_4
REMARK    3  A    between atoms: C4_4  and  C5_5
REMARK    4  A    between atoms: C5_5  and  C6_6
REMARK    5  A    between atoms: C6_6  and  N1_7
REMARK    6  A    between atoms: N1_7  and  C7_8
REMARK       I    between atoms: N1_7  and  C10_11
REMARK    7  A    between atoms: C7_8  and  C8_9
REMARK    8  A    between atoms: C10_11  and  C11_13
REMARK    9  A    between atoms: C13_15  and  O2_17
REMARK   10  A    between atoms: C15_19  and  C16_20
REMARK   11  A    between atoms: C16_20  and  O3_21
REMARK   12  A    between atoms: C21_27  and  O4_28
ROOT
HETATM    1  C11 UNL     1      -4.375   9.758 -15.633  1.00  0.00     0.079 C
HETATM    2  C12 UNL     1      -3.671  10.249 -16.856  1.00  0.00     0.061 C
HETATM    3  C13 UNL     1      -4.268   9.485 -17.996  1.00  0.00     0.068 C
HETATM    4  C14 UNL     1      -3.401   9.377 -19.195  1.00  0.00     0.047 C
HETATM    5  C15 UNL     1      -4.598   8.169 -17.345  1.00  0.00     0.044 C
HETATM    6  C17 UNL     1      -3.380   7.375 -16.978  1.00  0.00     0.018 C
HETATM    7  C18 UNL     1      -2.699   7.879 -15.730  1.00  0.00     0.007 C
HETATM    8  C19 UNL     1      -3.650   8.645 -14.882  1.00  0.00     0.009 C
HETATM    9  C20 UNL     1      -4.981   7.880 -14.888  1.00  0.00     0.046 C
HETATM   10  C21 UNL     1      -5.327   8.653 -16.114  1.00  0.00     0.087 C
ENDROOT
BRANCH   1  11
HETATM   11  C10 UNL     1      -4.989  10.731 -14.734  1.00  0.00     0.232 C
HETATM   12  N1  UNL     1      -4.686  10.919 -13.379  1.00  0.00    -0.351 N
HETATM   13  O1  UNL     1      -5.896  11.477 -15.248  1.00  0.00    -0.272 OA
BRANCH  12  14
HETATM   14  C6  UNL     1      -5.466  11.901 -12.628  1.00  0.00     0.125 C
BRANCH  14  15
HETATM   15  C5  UNL     1      -6.716  11.315 -12.030  1.00  0.00     0.020 C
BRANCH  15  16
HETATM   16  C4  UNL     1      -7.859  12.255 -11.875  1.00  0.00     0.002 C
BRANCH  16  17
HETATM   17  C3  UNL     1      -7.377  13.715 -11.840  1.00  0.00    -0.000 C
BRANCH  17  18
HETATM   18  C2  UNL     1      -8.400  14.504 -11.035  1.00  0.00    -0.005 C
HETATM   19  C1  UNL     1      -7.770  15.825 -10.651  1.00  0.00     0.005 C
ENDBRANCH  17  18
ENDBRANCH  16  17
ENDBRANCH  15  16
ENDBRANCH  14  15
ENDBRANCH  12  14
BRANCH  12  20
HETATM   20  C7  UNL     1      -3.648  10.253 -12.638  1.00  0.00     0.125 C
BRANCH  20  21
HETATM   21  C8  UNL     1      -2.554  11.116 -12.122  1.00  0.00     0.015 C
HETATM   22  C9  UNL     1      -2.164  10.539 -10.750  1.00  0.00     0.006 C
ENDBRANCH  20  21
ENDBRANCH  12  20
ENDBRANCH   1  11
BRANCH  10  23
HETATM   23  O4  UNL     1      -6.632   9.018 -16.287  1.00  0.00    -0.388 OA
ATOM     24  H4  UNL     1      -7.270   8.548 -15.763  1.00  0.00     0.210 HD
ENDBRANCH  10  23
BRANCH   3  25
HETATM   25  O2  UNL     1      -5.508  10.080 -18.327  1.00  0.00    -0.389 OA
ATOM     26  H2  UNL     1      -6.183   9.681 -17.791  1.00  0.00     0.210 HD
ENDBRANCH   3  25
BRANCH   5  27
HETATM   27  C16 UNL     1      -5.510   7.370 -18.252  1.00  0.00     0.179 C
BRANCH  27  28
HETATM   28  O3  UNL     1      -5.877   6.180 -17.637  1.00  0.00    -0.400 OA
ATOM     29  H3  UNL     1      -6.530   5.728 -18.158  1.00  0.00     0.209 HD
ENDBRANCH  27  28
ENDBRANCH   5  27
TORSDOF 12
ENDMDL