MODEL 1
REMARK VINA RESULT: -7.587157761      0.000      0.000
REMARK  11 active torsions:
REMARK  status: ('A' for Active; 'I' for Inactive)
REMARK    1  A    between atoms: C2_2  and  C3_3
REMARK    2  A    between atoms: C3_3  and  C4_4
REMARK    3  A    between atoms: C4_4  and  C5_5
REMARK    4  A    between atoms: C6_6  and  C7_7
REMARK    5  A    between atoms: C7_7  and  C8_8
REMARK    6  A    between atoms: C18_19  and  N2_20
REMARK       I    between atoms: N2_20  and  C19_22
REMARK    7  A    between atoms: C19_22  and  C20_24
REMARK    8  A    between atoms: C20_24  and  N3_25
REMARK    9  A    between atoms: C20_24  and  C21_29
REMARK   10  A    between atoms: C21_29  and  C22_30
REMARK   11  A    between atoms: C22_30  and  O2_31
ROOT
HETATM    1  C8  UNL     1      -4.331  10.402 -14.091  1.00  0.00     0.018 C
HETATM    2  C9  UNL     1      -4.501   9.480 -15.238  1.00  0.00     0.027 C
HETATM    3  C10 UNL     1      -4.471   8.035 -15.040  1.00  0.00     0.278 C
HETATM    4  N1  UNL     1      -3.844   7.481 -16.253  1.00  0.00     0.093 N
HETATM    5  C11 UNL     1      -4.752   6.740 -17.070  1.00  0.00     0.310 C
HETATM    6  C12 UNL     1      -3.173   8.546 -16.921  1.00  0.00     0.156 C
HETATM    7  C13 UNL     1      -1.777   8.115 -17.259  1.00  0.00     0.049 C
HETATM    8  C14 UNL     1      -3.900   8.954 -18.210  1.00  0.00     0.049 C
HETATM    9  C15 UNL     1      -3.225   9.747 -16.011  1.00  0.00     0.035 C
HETATM   10  C16 UNL     1      -2.175   9.736 -14.945  1.00  0.00     0.012 C
HETATM   11  C17 UNL     1      -0.970  10.538 -15.347  1.00  0.00     0.012 C
HETATM   12  C18 UNL     1      -2.890  10.328 -13.737  1.00  0.00     0.093 C
ENDROOT
BRANCH  12  13
HETATM   13  N2  UNL     1      -2.545   9.661 -12.525  1.00  0.00    -0.354 N
HETATM   14  C19 UNL     1      -2.107  10.339 -11.337  1.00  0.00     0.248 C
HETATM   15  O1  UNL     1      -2.034  11.589 -11.401  1.00  0.00    -0.271 OA
ATOM     16  H2  UNL     1      -2.612   8.644 -12.500  1.00  0.00     0.162 HD
BRANCH  14  17
HETATM   17  C20 UNL     1      -1.753   9.660 -10.097  1.00  0.00     0.276 C
BRANCH  17  18
HETATM   18  N3  UNL     1      -0.509   8.914 -10.195  1.00  0.00    -0.066 N
ATOM     19  H33 UNL     1      -0.294   8.691 -11.167  1.00  0.00     0.275 HD
ATOM     20  H32 UNL     1       0.292   9.509  -9.981  1.00  0.00     0.275 HD
ATOM     21  H31 UNL     1      -0.503   8.074  -9.618  1.00  0.00     0.275 HD
ENDBRANCH  17  18
BRANCH  17  22
HETATM   22  C21 UNL     1      -1.625  10.597  -8.927  1.00  0.00     0.068 C
BRANCH  22  23
HETATM   23  C22 UNL     1      -0.236  10.858  -8.462  1.00  0.00     0.166 C
BRANCH  23  24
HETATM   24  O2  UNL     1       0.155  10.006  -7.425  1.00  0.00    -0.401 OA
ATOM     25  H2  UNL     1      -0.106  10.327  -6.569  1.00  0.00     0.209 HD
ENDBRANCH  23  24
ENDBRANCH  22  23
ENDBRANCH  17  22
ENDBRANCH  14  17
ENDBRANCH  12  13
BRANCH   1  26
HETATM   26  C7  UNL     1      -5.341  10.459 -13.040  1.00  0.00     0.034 C
BRANCH  26  27
HETATM   27  C6  UNL     1      -6.754  10.561 -13.375  1.00  0.00    -0.030 C
HETATM   28  C5  UNL     1      -7.660  11.259 -12.694  1.00  0.00    -0.031 C
BRANCH  28  29
HETATM   29  C4  UNL     1      -7.427  12.057 -11.483  1.00  0.00     0.027 C
BRANCH  29  30
HETATM   30  C3  UNL     1      -7.408  13.516 -11.869  1.00  0.00     0.003 C
BRANCH  30  31
HETATM   31  C2  UNL     1      -8.394  14.338 -11.088  1.00  0.00    -0.004 C
HETATM   32  C1  UNL     1      -7.888  15.692 -10.716  1.00  0.00     0.005 C
ENDBRANCH  30  31
ENDBRANCH  29  30
ENDBRANCH  28  29
ENDBRANCH  26  27
ENDBRANCH   1  26
TORSDOF 11
ENDMDL