MODEL 2
REMARK VINA RESULT: -6.344996580      3.012      7.004
REMARK  12 active torsions:
REMARK  status: ('A' for Active; 'I' for Inactive)
REMARK    1  A    between atoms: C2_2  and  N1_3
REMARK    2  A    between atoms: N1_3  and  C3_4
REMARK    3  A    between atoms: N1_3  and  C8_9
REMARK    4  A    between atoms: C3_4  and  C4_5
REMARK    5  A    between atoms: C8_9  and  C9_10
REMARK    6  A    between atoms: C8_9  and  C10_13
REMARK    7  A    between atoms: C9_10  and  O1_11
REMARK       I    between atoms: C10_13  and  N2_15
REMARK    8  A    between atoms: N2_15  and  C11_17
REMARK    9  A    between atoms: C11_17  and  C12_18
REMARK   10  A    between atoms: C11_17  and  C18_27
REMARK   11  A    between atoms: C12_18  and  N3_19
REMARK   12  A    between atoms: N3_19  and  C13_22
ROOT
HETATM    1  C10 UNL     1      -1.727  10.439 -11.864  1.00  0.00     0.254 C
HETATM    2  O2  UNL     1      -1.557  11.664 -12.108  1.00  0.00    -0.271 OA
HETATM    3  N2  UNL     1      -2.821   9.758 -12.495  1.00  0.00    -0.352 N
ATOM      4  H2  UNL     1      -2.957   8.767 -12.297  1.00  0.00     0.163 HD
ENDROOT
BRANCH   3   5
HETATM    5  C11 UNL     1      -3.732  10.408 -13.389  1.00  0.00     0.117 C
BRANCH   5   6
HETATM    6  C12 UNL     1      -4.780  11.128 -12.581  1.00  0.00     0.258 C
BRANCH   6   7
HETATM    7  N3  UNL     1      -5.109  12.391 -13.229  1.00  0.00    -0.069 N
ATOM      8  H32 UNL     1      -4.442  13.121 -12.980  1.00  0.00     0.277 HD
ATOM      9  H31 UNL     1      -4.933  12.350 -14.233  1.00  0.00     0.277 HD
BRANCH   7  10
HETATM   10  C13 UNL     1      -6.457  12.798 -12.953  1.00  0.00     0.186 C
HETATM   11  C14 UNL     1      -7.056  12.225 -11.710  1.00  0.00     0.033 C
HETATM   12  C15 UNL     1      -8.183  13.173 -11.391  1.00  0.00     0.002 C
HETATM   13  C16 UNL     1      -7.636  14.521 -11.747  1.00  0.00     0.002 C
HETATM   14  C17 UNL     1      -6.462  14.286 -12.654  1.00  0.00     0.033 C
ENDBRANCH   7  10
ENDBRANCH   6   7
ENDBRANCH   5   6
BRANCH   5  15
HETATM   15  C18 UNL     1      -4.397   9.479 -14.379  1.00  0.00    -0.029 C
HETATM   16  C19 UNL     1      -5.757   9.018 -13.861  1.00  0.00     0.016 C
HETATM   17  C20 UNL     1      -3.572   8.237 -14.623  1.00  0.00     0.016 C
HETATM   18  C21 UNL     1      -4.649  10.122 -15.716  1.00  0.00     0.016 C
ENDBRANCH   5  15
ENDBRANCH   3   5
BRANCH   1  19
HETATM   19  C8  UNL     1      -0.869   9.634 -10.960  1.00  0.00     0.337 C
BRANCH  19  20
HETATM   20  N1  UNL     1       0.521   9.971 -11.003  1.00  0.00     0.104 N
BRANCH  20  21
HETATM   21  C2  UNL     1       1.356   8.870 -11.350  1.00  0.00     0.269 C
HETATM   22  C1  UNL     1       2.085   8.293 -10.142  1.00  0.00     0.037 C
ENDBRANCH  20  21
BRANCH  20  23
HETATM   23  C3  UNL     1       0.972  10.642  -9.851  1.00  0.00     0.282 C
BRANCH  23  24
HETATM   24  C4  UNL     1       1.452  12.046  -9.958  1.00  0.00    -0.025 C
HETATM   25  C5  UNL     1       0.434  13.089  -9.572  1.00  0.00     0.016 C
HETATM   26  C6  UNL     1       2.537  12.162  -8.839  1.00  0.00     0.016 C
HETATM   27  C7  UNL     1       2.144  12.452 -11.202  1.00  0.00     0.016 C
ENDBRANCH  23  24
ENDBRANCH  20  23
ENDBRANCH  19  20
BRANCH  19  28
HETATM   28  C9  UNL     1      -1.464   9.517  -9.585  1.00  0.00     0.210 C
BRANCH  28  29
HETATM   29  O1  UNL     1      -1.332   8.249  -9.015  1.00  0.00    -0.398 OA
ATOM     30  H1  UNL     1      -0.450   7.898  -9.054  1.00  0.00     0.209 HD
ENDBRANCH  28  29
ENDBRANCH  19  28
ENDBRANCH   1  19
TORSDOF 12
ENDMDL