MODEL 5
REMARK VINA RESULT: -8.084173997      2.743      5.330
REMARK  13 active torsions:
REMARK  status: ('A' for Active; 'I' for Inactive)
REMARK    1  A    between atoms: C2_2  and  C3_3
REMARK    2  A    between atoms: C4_4  and  C5_5
REMARK    3  A    between atoms: C6_6  and  C7_7
REMARK    4  A    between atoms: C6_6  and  C22_27
REMARK    5  A    between atoms: C8_8  and  C9_9
REMARK    6  A    between atoms: C9_9  and  C10_10
REMARK    7  A    between atoms: C10_10  and  C12_12
REMARK    8  A    between atoms: C12_12  and  C13_13
REMARK    9  A    between atoms: C13_13  and  C14_14
REMARK   10  A    between atoms: C13_13  and  C16_16
REMARK   11  A    between atoms: C16_16  and  N1_17
REMARK   12  A    between atoms: C19_20  and  O1_21
REMARK   13  A    between atoms: C20_23  and  O2_24
ROOT
HETATM    1  C12 UNL     1      -4.467   7.789 -16.313  1.00  0.00    -0.014 C
ENDROOT
BRANCH   1   2
HETATM    2  C10 UNL     1      -5.145   8.943 -15.780  1.00  0.00     0.008 C
HETATM    3  C11 UNL     1      -4.671  10.327 -16.051  1.00  0.00     0.014 C
BRANCH   2   4
HETATM    4  C9  UNL     1      -5.084   8.872 -14.210  1.00  0.00     0.035 C
BRANCH   4   5
HETATM    5  C8  UNL     1      -6.359   9.080 -13.577  1.00  0.00    -0.025 C
HETATM    6  C7  UNL     1      -7.008  10.023 -13.048  1.00  0.00     0.015 C
BRANCH   6   7
HETATM    7  C6  UNL     1      -6.851  11.426 -12.771  1.00  0.00     0.048 C
HETATM    8  C5  UNL     1      -7.850  11.936 -11.993  1.00  0.00     0.082 C
BRANCH   8   9
HETATM    9  C4  UNL     1      -8.008  13.236 -11.540  1.00  0.00    -0.077 C
HETATM   10  C3  UNL     1      -8.140  14.352 -11.109  1.00  0.00    -0.102 C
BRANCH  10  11
HETATM   11  C2  UNL     1      -8.295  15.697 -10.617  1.00  0.00     0.090 C
HETATM   12  C1  UNL     1      -7.128  16.566 -11.045  1.00  0.00     0.018 C
ENDBRANCH  10  11
ENDBRANCH   8   9
BRANCH   7  13
HETATM   13  C22 UNL     1      -5.836  12.340 -13.168  1.00  0.00     0.209 C
HETATM   14  O3  UNL     1      -5.965  13.356 -13.873  1.00  0.00    -0.644 OA
HETATM   15  O4  UNL     1      -4.498  12.137 -12.749  1.00  0.00    -0.644 OA
ENDBRANCH   7  13
ENDBRANCH   6   7
ENDBRANCH   4   5
ENDBRANCH   2   4
ENDBRANCH   1   2
BRANCH   1  16
HETATM   16  C13 UNL     1      -4.511   7.332 -17.708  1.00  0.00    -0.051 C
BRANCH  16  17
HETATM   17  C14 UNL     1      -3.826   5.989 -17.929  1.00  0.00     0.035 C
HETATM   18  C15 UNL     1      -4.865   5.011 -18.510  1.00  0.00     0.010 C
ENDBRANCH  16  17
BRANCH  16  19
HETATM   19  C16 UNL     1      -5.695   7.578 -18.544  1.00  0.00     0.066 C
BRANCH  19  20
HETATM   20  N1  UNL     1      -6.043   8.855 -19.030  1.00  0.00    -0.290 NA
HETATM   21  C17 UNL     1      -5.541   8.938 -20.403  1.00  0.00     0.097 C
HETATM   22  C18 UNL     1      -6.535   9.417 -21.407  1.00  0.00     0.049 C
HETATM   23  C19 UNL     1      -7.775   8.574 -21.467  1.00  0.00     0.149 C
HETATM   24  C20 UNL     1      -8.203   8.182 -20.045  1.00  0.00     0.160 C
HETATM   25  C21 UNL     1      -7.466   9.120 -19.134  1.00  0.00     0.129 C
BRANCH  23  26
HETATM   26  O1  UNL     1      -7.517   7.437 -22.224  1.00  0.00    -0.393 OA
ATOM     27  H1  UNL     1      -6.837   6.928 -21.798  1.00  0.00     0.210 HD
ENDBRANCH  23  26
BRANCH  24  28
HETATM   28  O2  UNL     1      -9.578   8.498 -19.879  1.00  0.00    -0.392 OA
ATOM     29  H2  UNL     1     -10.095   7.896 -20.401  1.00  0.00     0.210 HD
ENDBRANCH  24  28
ENDBRANCH  19  20
ENDBRANCH  16  19
ENDBRANCH   1  16
TORSDOF 13
ENDMDL