MODEL 4
REMARK VINA RESULT: -6.976401774      1.573      2.107
REMARK  8 active torsions:
REMARK  status: ('A' for Active; 'I' for Inactive)
REMARK    1  A    between atoms: C2_2  and  C3_3
REMARK    2  A    between atoms: C3_3  and  N1_4
REMARK    3  A    between atoms: N1_4  and  C4_7
REMARK    4  A    between atoms: C8_11  and  C9_12
REMARK    5  A    between atoms: C10_13  and  C11_14
REMARK    6  A    between atoms: C13_16  and  C14_17
REMARK    7  A    between atoms: C14_17  and  S1_18
REMARK    8  A    between atoms: C15_22  and  S2_23
ROOT
HETATM    1  C4  UNL     1      -5.310   9.895 -15.036  1.00  0.00     0.207 C
HETATM    2  C5  UNL     1      -6.650   9.320 -14.732  1.00  0.00     0.034 C
HETATM    3  C6  UNL     1      -7.069   9.407 -13.298  1.00  0.00     0.003 C
HETATM    4  C7  UNL     1      -6.772  10.705 -12.627  1.00  0.00     0.010 C
HETATM    5  C8  UNL     1      -6.192  11.699 -13.573  1.00  0.00     0.031 C
HETATM    6  C15 UNL     1      -4.973  11.111 -14.240  1.00  0.00     0.168 C
ENDROOT
BRANCH   5   7
HETATM    7  C9  UNL     1      -5.901  13.002 -12.976  1.00  0.00    -0.024 C
HETATM    8  C10 UNL     1      -6.866  13.790 -12.528  1.00  0.00    -0.025 C
BRANCH   8   9
HETATM    9  C11 UNL     1      -6.638  15.107 -11.919  1.00  0.00     0.013 A
HETATM   10  C12 UNL     1      -7.541  15.428 -10.726  1.00  0.00     0.015 A
HETATM   11  C13 UNL     1      -7.640  16.189 -12.043  1.00  0.00     0.010 A
BRANCH  11  12
HETATM   12  C14 UNL     1      -7.265  17.623 -11.948  1.00  0.00     0.170 C
BRANCH  12  13
HETATM   13  S1  UNL     1      -7.962  18.454 -10.553  1.00  0.00     0.102 S
HETATM   14  O1  UNL     1      -6.848  18.969  -9.675  1.00  0.00    -0.595 OA
HETATM   15  O2  UNL     1      -8.674  19.685 -11.078  1.00  0.00    -0.595 OA
HETATM   16  O3  UNL     1      -9.058  17.522  -9.724  1.00  0.00    -0.595 OA
ENDBRANCH  12  13
ENDBRANCH  11  12
ENDBRANCH   8   9
ENDBRANCH   5   7
BRANCH   6  17
HETATM   17  S2  UNL     1      -3.658  10.739 -13.131  1.00  0.00     0.108 S
HETATM   18  O4  UNL     1      -3.718   9.287 -12.672  1.00  0.00    -0.595 OA
HETATM   19  O5  UNL     1      -3.545  11.672 -11.980  1.00  0.00    -0.595 OA
HETATM   20  O6  UNL     1      -2.214  10.822 -14.035  1.00  0.00    -0.595 OA
ENDBRANCH   6  17
BRANCH   1  21
HETATM   21  N1  UNL     1      -5.327  10.290 -16.452  1.00  0.00    -0.070 N
ATOM     22  H12 UNL     1      -4.550  10.910 -16.677  1.00  0.00     0.277 HD
ATOM     23  H11 UNL     1      -6.099  10.925 -16.655  1.00  0.00     0.277 HD
BRANCH  21  24
HETATM   24  C3  UNL     1      -5.349   9.126 -17.324  1.00  0.00     0.232 C
BRANCH  24  25
HETATM   25  C2  UNL     1      -6.277   9.497 -18.478  1.00  0.00     0.023 C
HETATM   26  C1  UNL     1      -7.543   8.705 -18.324  1.00  0.00     0.007 C
ENDBRANCH  24  25
ENDBRANCH  21  24
ENDBRANCH   1  21
TORSDOF 8
ENDMDL