MODEL 4
REMARK VINA RESULT: -7.008972962      1.313      1.707
REMARK  10 active torsions:
REMARK  status: ('A' for Active; 'I' for Inactive)
REMARK    1  A    between atoms: C2_2  and  C3_3
REMARK    2  A    between atoms: C3_3  and  C4_4
REMARK    3  A    between atoms: C4_4  and  C5_5
REMARK    4  A    between atoms: C5_5  and  C6_6
REMARK    5  A    between atoms: C6_6  and  C7_7
REMARK    6  A    between atoms: C7_7  and  C8_8
REMARK    7  A    between atoms: C8_8  and  C9_9
REMARK    8  A    between atoms: C9_9  and  C10_10
REMARK    9  A    between atoms: C10_10  and  N1_11
REMARK   10  A    between atoms: C19_24  and  N3_25
ROOT
HETATM    1  C10 UNL     1      -4.082   8.927 -16.200  1.00  0.00     0.227 C
HETATM    2  C15 UNL     1      -5.016  10.048 -16.389  1.00  0.00     0.137 C
HETATM    3  C16 UNL     1      -6.104   9.548 -17.287  1.00  0.00     0.170 C
HETATM    4  O2  UNL     1      -7.200  10.117 -17.547  1.00  0.00    -0.292 OA
HETATM    5  C17 UNL     1      -5.673   8.274 -17.818  1.00  0.00     0.104 A
HETATM    6  C18 UNL     1      -4.508   7.887 -17.209  1.00  0.00     0.089 A
HETATM    7  N2  UNL     1      -3.957   6.718 -17.577  1.00  0.00    -0.192 N
ATOM      8  H2  UNL     1      -3.091   6.421 -17.129  1.00  0.00     0.184 HD
HETATM    9  C19 UNL     1      -4.505   5.927 -18.513  1.00  0.00     0.679 A
HETATM   10  N4  UNL     1      -5.638   6.322 -19.094  1.00  0.00    -0.155 N
ATOM     11  H4  UNL     1      -6.059   5.724 -19.806  1.00  0.00     0.187 HD
HETATM   12  C20 UNL     1      -6.241   7.466 -18.781  1.00  0.00     0.275 A
HETATM   13  O3  UNL     1      -7.300   7.793 -19.352  1.00  0.00    -0.267 OA
ENDROOT
BRANCH   1  14
HETATM   14  C9  UNL     1      -3.980   8.372 -14.858  1.00  0.00     0.017 C
BRANCH  14  15
HETATM   15  C8  UNL     1      -4.690   8.909 -13.699  1.00  0.00    -0.028 C
BRANCH  15  16
HETATM   16  C7  UNL     1      -4.196  10.049 -12.912  1.00  0.00     0.027 C
BRANCH  16  17
HETATM   17  C6  UNL     1      -5.209  11.157 -12.680  1.00  0.00     0.004 C
BRANCH  17  18
HETATM   18  C5  UNL     1      -6.595  10.676 -13.034  1.00  0.00     0.000 C
BRANCH  18  19
HETATM   19  C4  UNL     1      -7.651  11.495 -12.328  1.00  0.00     0.000 C
BRANCH  19  20
HETATM   20  C3  UNL     1      -7.119  12.872 -12.015  1.00  0.00    -0.000 C
BRANCH  20  21
HETATM   21  C2  UNL     1      -8.201  13.602 -11.233  1.00  0.00    -0.005 C
HETATM   22  C1  UNL     1      -7.983  15.095 -11.269  1.00  0.00     0.005 C
ENDBRANCH  20  21
ENDBRANCH  19  20
ENDBRANCH  18  19
ENDBRANCH  17  18
ENDBRANCH  16  17
ENDBRANCH  15  16
ENDBRANCH  14  15
ENDBRANCH   1  14
BRANCH   1  23
HETATM   23  N1  UNL     1      -2.734   9.314 -16.671  1.00  0.00     0.112 N
HETATM   24  C11 UNL     1      -2.764  10.458 -17.494  1.00  0.00     0.300 C
HETATM   25  C12 UNL     1      -1.515  11.285 -17.490  1.00  0.00     0.198 C
HETATM   26  O1  UNL     1      -0.412  10.509 -17.108  1.00  0.00    -0.388 OA
HETATM   27  C13 UNL     1      -0.616  10.224 -15.759  1.00  0.00     0.198 C
HETATM   28  C14 UNL     1      -1.754   9.243 -15.655  1.00  0.00     0.300 C
ENDBRANCH   1  23
BRANCH   9  29
HETATM   29  N3  UNL     1      -3.935   4.826 -18.822  1.00  0.00    -0.234 N
ATOM     30  H32 UNL     1      -3.004   4.584 -18.480  1.00  0.00     0.174 HD
ATOM     31  H31 UNL     1      -4.415   4.161 -19.429  1.00  0.00     0.174 HD
ENDBRANCH   9  29
TORSDOF 10
ENDMDL