MODEL 5
REMARK VINA RESULT: -7.672262613      1.487      2.329
REMARK  13 active torsions:
REMARK  status: ('A' for Active; 'I' for Inactive)
REMARK    1  A    between atoms: C2_2  and  O1_3
REMARK    2  A    between atoms: O1_3  and  C3_4
REMARK    3  A    between atoms: C3_4  and  C4_6
REMARK    4  A    between atoms: C4_6  and  C5_7
REMARK    5  A    between atoms: C5_7  and  C6_8
REMARK    6  A    between atoms: C6_8  and  C7_9
REMARK    7  A    between atoms: C7_9  and  C8_10
REMARK    8  A    between atoms: C8_10  and  C9_11
REMARK    9  A    between atoms: C9_11  and  N1_12
REMARK   10  A    between atoms: N1_12  and  C10_14
REMARK   11  A    between atoms: C10_14  and  N2_16
REMARK   12  A    between atoms: N2_16  and  C11_18
REMARK   13  A    between atoms: C19_26  and  O3_27
ROOT
HETATM    1  C10 UNL     1      -6.403  11.076 -13.739  1.00  0.00     0.168 C
HETATM    2  S1  UNL     1      -7.234  10.343 -12.566  1.00  0.00    -0.041 SA
ENDROOT
BRANCH   1   3
HETATM    3  N1  UNL     1      -5.988  12.428 -13.501  1.00  0.00    -0.367 N
ATOM      4  H1  UNL     1      -5.160  12.808 -13.960  1.00  0.00     0.161 HD
BRANCH   3   5
HETATM    5  C9  UNL     1      -6.770  13.241 -12.594  1.00  0.00     0.122 C
BRANCH   5   6
HETATM    6  C8  UNL     1      -6.376  14.708 -12.812  1.00  0.00     0.020 C
BRANCH   6   7
HETATM    7  C7  UNL     1      -7.443  15.612 -12.256  1.00  0.00     0.002 C
BRANCH   7   8
HETATM    8  C6  UNL     1      -7.894  15.093 -10.916  1.00  0.00     0.001 C
BRANCH   8   9
HETATM    9  C5  UNL     1      -8.828  16.057 -10.280  1.00  0.00     0.010 C
BRANCH   9  10
HETATM   10  C4  UNL     1      -8.158  17.105  -9.420  1.00  0.00     0.111 C
BRANCH  10  11
HETATM   11  C3  UNL     1      -8.368  18.483  -9.856  1.00  0.00     0.258 C
HETATM   12  O2  UNL     1      -9.358  19.207  -9.654  1.00  0.00    -0.265 OA
BRANCH  11  13
HETATM   13  O1  UNL     1      -7.331  19.084 -10.600  1.00  0.00    -0.322 OA
BRANCH  13  14
HETATM   14  C2  UNL     1      -6.003  18.604 -10.508  1.00  0.00     0.174 C
HETATM   15  C1  UNL     1      -5.267  19.174 -11.726  1.00  0.00     0.034 C
ENDBRANCH  13  14
ENDBRANCH  11  13
ENDBRANCH  10  11
ENDBRANCH   9  10
ENDBRANCH   8   9
ENDBRANCH   7   8
ENDBRANCH   6   7
ENDBRANCH   5   6
ENDBRANCH   3   5
ENDBRANCH   1   3
BRANCH   1  16
HETATM   16  N2  UNL     1      -6.093  10.457 -14.949  1.00  0.00    -0.355 N
ATOM     17  H2  UNL     1      -6.852  10.402 -15.628  1.00  0.00     0.162 HD
BRANCH  16  18
HETATM   18  C11 UNL     1      -4.839   9.883 -15.363  1.00  0.00     0.059 C
HETATM   19  C12 UNL     1      -4.383  10.542 -16.639  1.00  0.00     0.038 C
HETATM   20  C13 UNL     1      -3.118   9.876 -17.174  1.00  0.00    -0.011 C
HETATM   21  C14 UNL     1      -2.077  10.035 -16.089  1.00  0.00     0.009 C
HETATM   22  C18 UNL     1      -3.430   8.453 -17.498  1.00  0.00     0.012 C
HETATM   23  C15 UNL     1      -2.510   9.291 -14.869  1.00  0.00    -0.011 C
HETATM   24  C16 UNL     1      -2.733   7.843 -15.226  1.00  0.00     0.012 C
HETATM   25  C20 UNL     1      -3.767   9.917 -14.303  1.00  0.00     0.038 C
HETATM   26  C17 UNL     1      -3.863   7.751 -16.228  1.00  0.00     0.017 C
HETATM   27  C19 UNL     1      -5.078   8.373 -15.621  1.00  0.00     0.150 C
BRANCH  27  28
HETATM   28  O3  UNL     1      -5.268   7.812 -14.358  1.00  0.00    -0.393 OA
ATOM     29  H3  UNL     1      -4.569   7.176 -14.261  1.00  0.00     0.210 HD
ENDBRANCH  27  28
ENDBRANCH  16  18
ENDBRANCH   1  16
TORSDOF 13
ENDMDL