MODEL 5
REMARK VINA RESULT: -8.255502258      2.763      5.279
REMARK  10 active torsions:
REMARK  status: ('A' for Active; 'I' for Inactive)
REMARK    1  A    between atoms: N1_2  and  C2_4
REMARK    2  A    between atoms: C2_4  and  C7_11
REMARK    3  A    between atoms: N2_5  and  C3_7
REMARK    4  A    between atoms: C3_7  and  C4_8
REMARK       I    between atoms: N3_16  and  C11_17
REMARK    5  A    between atoms: C11_17  and  C12_19
REMARK    6  A    between atoms: C12_19  and  N4_20
REMARK    7  A    between atoms: C12_19  and  C13_24
REMARK    8  A    between atoms: C13_24  and  C14_25
REMARK    9  A    between atoms: C14_25  and  C15_26
REMARK   10  A    between atoms: C15_26  and  C16_27
ROOT
HETATM    1  C7  UNL     1      -4.414   9.519 -16.650  1.00  0.00     0.178 C
HETATM    2  C8  UNL     1      -2.930   9.414 -16.879  1.00  0.00     0.200 C
HETATM    3  O1  UNL     1      -2.345   8.349 -16.224  1.00  0.00    -0.387 OA
HETATM    4  C9  UNL     1      -2.739   8.206 -14.915  1.00  0.00     0.187 C
HETATM    5  C10 UNL     1      -3.480   9.419 -14.389  1.00  0.00     0.153 C
HETATM    6  N3  UNL     1      -4.619   9.740 -15.223  1.00  0.00    -0.335 N
HETATM    7  C11 UNL     1      -5.855  10.229 -14.714  1.00  0.00     0.251 C
HETATM    8  O2  UNL     1      -6.759  10.456 -15.572  1.00  0.00    -0.271 OA
ENDROOT
BRANCH   1   9
HETATM    9  C2  UNL     1      -5.149   8.330 -17.118  1.00  0.00     0.098 C
HETATM   10  N2  UNL     1      -4.503   7.225 -17.255  1.00  0.00    -0.378 N
ATOM     11  H2  UNL     1      -3.509   7.233 -17.029  1.00  0.00     0.160 HD
BRANCH   9  12
HETATM   12  N1  UNL     1      -6.521   8.368 -17.420  1.00  0.00    -0.383 N
HETATM   13  C1  UNL     1      -7.023   8.967 -18.660  1.00  0.00     0.147 C
ATOM     14  H1  UNL     1      -7.187   7.970 -16.758  1.00  0.00     0.160 HD
ENDBRANCH   9  12
BRANCH  10  15
HETATM   15  C3  UNL     1      -5.068   5.991 -17.700  1.00  0.00     0.124 C
BRANCH  15  16
HETATM   16  C4  UNL     1      -4.476   5.464 -18.980  1.00  0.00    -0.005 C
HETATM   17  C5  UNL     1      -4.749   3.972 -19.083  1.00  0.00     0.011 C
HETATM   18  C6  UNL     1      -5.070   6.103 -20.213  1.00  0.00     0.011 C
ENDBRANCH  15  16
ENDBRANCH  10  15
ENDBRANCH   1   9
BRANCH   7  19
HETATM   19  C12 UNL     1      -6.127  10.475 -13.293  1.00  0.00     0.275 C
BRANCH  19  20
HETATM   20  N4  UNL     1      -7.404   9.822 -12.959  1.00  0.00    -0.067 N
ATOM     21  H43 UNL     1      -8.088   9.882 -13.712  1.00  0.00     0.275 HD
ATOM     22  H42 UNL     1      -7.330   8.805 -12.923  1.00  0.00     0.275 HD
ATOM     23  H41 UNL     1      -7.741  10.224 -12.084  1.00  0.00     0.275 HD
ENDBRANCH  19  20
BRANCH  19  24
HETATM   24  C13 UNL     1      -6.306  11.979 -13.027  1.00  0.00     0.042 C
BRANCH  24  25
HETATM   25  C14 UNL     1      -7.029  12.170 -11.702  1.00  0.00     0.003 C
BRANCH  25  26
HETATM   26  C15 UNL     1      -8.076  13.228 -11.785  1.00  0.00     0.005 C
BRANCH  26  27
HETATM   27  C16 UNL     1      -7.568  14.499 -11.194  1.00  0.00    -0.014 C
HETATM   28  C17 UNL     1      -8.683  15.233 -10.426  1.00  0.00     0.004 C
HETATM   29  C18 UNL     1      -8.002  16.375  -9.703  1.00  0.00     0.000 C
HETATM   30  C19 UNL     1      -7.608  17.383 -10.761  1.00  0.00     0.000 C
HETATM   31  C20 UNL     1      -6.751  16.800 -11.830  1.00  0.00     0.000 C
HETATM   32  C21 UNL     1      -7.111  15.430 -12.286  1.00  0.00     0.004 C
ENDBRANCH  26  27
ENDBRANCH  25  26
ENDBRANCH  24  25
ENDBRANCH  19  24
ENDBRANCH   7  19
TORSDOF 10
ENDMDL