MODEL 1
REMARK VINA RESULT: -6.553038003      0.000      0.000
REMARK  10 active torsions:
REMARK  status: ('A' for Active; 'I' for Inactive)
REMARK    1  A    between atoms: C13_13  and  C14_14
REMARK    2  A    between atoms: C13_13  and  C20_24
REMARK    3  A    between atoms: C15_15  and  C16_16
REMARK    4  A    between atoms: C16_16  and  O1_17
REMARK    5  A    between atoms: C16_16  and  C17_19
REMARK    6  A    between atoms: C17_19  and  C18_20
REMARK    7  A    between atoms: C18_20  and  O2_22
REMARK    8  A    between atoms: C20_24  and  O3_25
REMARK    9  A    between atoms: O3_25  and  C21_26
REMARK   10  A    between atoms: C21_26  and  C22_27
ROOT
HETATM    1  C1  UNL     1      -4.391   7.079 -16.592  1.00  0.00     0.016 C
HETATM    2  C2  UNL     1      -3.437   7.912 -16.968  1.00  0.00    -0.065 C
HETATM    3  C3  UNL     1      -2.008   7.762 -16.713  1.00  0.00    -0.016 C
HETATM    4  C4  UNL     1      -1.298   6.798 -17.612  1.00  0.00     0.020 C
HETATM    5  C5  UNL     1      -1.641   7.430 -15.283  1.00  0.00     0.014 C
HETATM    6  C6  UNL     1      -0.151   7.423 -15.143  1.00  0.00     0.001 C
HETATM    7  C7  UNL     1       0.635   8.421 -15.870  1.00  0.00     0.000 C
HETATM    8  C8  UNL     1      -0.057   9.308 -16.850  1.00  0.00     0.006 C
HETATM    9  C9  UNL     1      -1.524   9.197 -16.865  1.00  0.00     0.007 C
HETATM   10  C10 UNL     1      -2.289   9.747 -17.993  1.00  0.00    -0.026 C
HETATM   11  C11 UNL     1      -1.765   9.511 -19.353  1.00  0.00     0.016 C
HETATM   12  C12 UNL     1      -2.270  11.280 -17.799  1.00  0.00     0.016 C
HETATM   13  C13 UNL     1      -3.652   9.192 -17.741  1.00  0.00     0.029 C
ENDROOT
BRANCH  13  14
HETATM   14  C14 UNL     1      -4.356  10.193 -16.875  1.00  0.00    -0.011 C
HETATM   15  C15 UNL     1      -4.826   9.858 -15.687  1.00  0.00     0.002 C
BRANCH  15  16
HETATM   16  C16 UNL     1      -5.526  10.855 -14.830  1.00  0.00     0.143 C
BRANCH  16  17
HETATM   17  O1  UNL     1      -5.423  12.143 -15.373  1.00  0.00    -0.392 OA
ATOM     18  H1  UNL     1      -6.160  12.681 -15.112  1.00  0.00     0.210 HD
ENDBRANCH  16  17
BRANCH  16  19
HETATM   19  C17 UNL     1      -5.002  10.833 -13.412  1.00  0.00     0.067 C
BRANCH  19  20
HETATM   20  C18 UNL     1      -5.951  11.543 -12.462  1.00  0.00     0.116 C
HETATM   21  C19 UNL     1      -7.336  10.953 -12.610  1.00  0.00     0.039 C
BRANCH  20  22
HETATM   22  O2  UNL     1      -6.040  12.889 -12.826  1.00  0.00    -0.396 OA
ATOM     23  H2  UNL     1      -6.493  13.366 -12.142  1.00  0.00     0.210 HD
ENDBRANCH  20  22
ENDBRANCH  19  20
ENDBRANCH  16  19
ENDBRANCH  15  16
ENDBRANCH  13  14
BRANCH  13  24
HETATM   24  C20 UNL     1      -4.502   8.903 -18.915  1.00  0.00     0.187 C
BRANCH  24  25
HETATM   25  O3  UNL     1      -5.599   9.758 -19.011  1.00  0.00    -0.381 OA
BRANCH  25  26
HETATM   26  C21 UNL     1      -6.537   9.313 -19.918  1.00  0.00     0.267 C
BRANCH  26  27
HETATM   27  C22 UNL     1      -7.679   8.750 -19.189  1.00  0.00     0.254 C
HETATM   28  N1  UNL     1      -8.865   8.297 -19.830  1.00  0.00    -0.060 NA
HETATM   29  O4  UNL     1      -7.637   8.651 -17.935  1.00  0.00    -0.275 OA
ENDBRANCH  26  27
ENDBRANCH  25  26
ENDBRANCH  24  25
ENDBRANCH  13  24
TORSDOF 10
ENDMDL