MODEL 2
REMARK VINA RESULT: -5.785809673      1.149      1.365
REMARK  3 active torsions:
REMARK  status: ('A' for Active; 'I' for Inactive)
REMARK    1  A    between atoms: C2_2  and  N1_3
REMARK    2  A    between atoms: N1_3  and  C3_5
REMARK    3  A    between atoms: N2_6  and  N3_8
ROOT
HETATM    1  C3  UNL     1      18.511  15.120  25.642  1.00  0.00     0.194 C
HETATM    2  N2  UNL     1      19.229  14.129  25.227  1.00  0.00    -0.283 N
ATOM      3  H2  UNL     1      19.965  13.737  25.814  1.00  0.00     0.189 HD
ENDROOT
BRANCH   2   4
HETATM    4  N3  UNL     1      18.978  13.611  23.967  1.00  0.00    -0.248 N
HETATM    5  N4  UNL     1      17.918  13.935  23.376  1.00  0.00    -0.331 N
ATOM      6  H42 UNL     1      17.263  14.571  23.830  1.00  0.00     0.178 HD
ATOM      7  H41 UNL     1      17.734  13.553  22.448  1.00  0.00     0.178 HD
ATOM      8  H3  UNL     1      19.644  12.976  23.526  1.00  0.00     0.207 HD
ENDBRANCH   2   4
BRANCH   1   9
HETATM    9  N1  UNL     1      18.666  15.742  26.909  1.00  0.00    -0.385 N
ATOM     10  H1  UNL     1      19.573  15.779  27.376  1.00  0.00     0.160 HD
BRANCH   9  11
HETATM   11  C2  UNL     1      17.485  16.323  27.513  1.00  0.00     0.116 C
HETATM   12  C1  UNL     1      17.002  17.563  26.817  1.00  0.00     0.026 C
ENDBRANCH   9  11
ENDBRANCH   1   9
TORSDOF 3
ENDMDL