MODEL 2
REMARK VINA RESULT: -5.946081263      1.182      1.335
REMARK  3 active torsions:
REMARK  status: ('A' for Active; 'I' for Inactive)
REMARK    1  A    between atoms: C2_2  and  C3_3
REMARK    2  A    between atoms: C3_3  and  C4_4
REMARK    3  A    between atoms: N1_5  and  N2_7
ROOT
HETATM    1  C4  UNL     1      18.563  15.208  25.362  1.00  0.00     0.162 C
HETATM    2  N1  UNL     1      18.583  13.958  24.858  1.00  0.00    -0.309 N
ATOM      3  H1  UNL     1      17.808  13.540  24.344  1.00  0.00     0.186 HD
ENDROOT
BRANCH   2   4
HETATM    4  N2  UNL     1      19.743  13.325  25.112  1.00  0.00    -0.341 N
HETATM    5  C5  UNL     1      20.725  12.934  24.108  1.00  0.00     0.167 C
ATOM      6  H2  UNL     1      19.951  13.100  26.085  1.00  0.00     0.179 HD
ENDBRANCH   2   4
BRANCH   1   7
HETATM    7  C3  UNL     1      17.971  15.845  26.261  1.00  0.00    -0.111 C
BRANCH   7   8
HETATM    8  C2  UNL     1      17.361  16.502  27.188  1.00  0.00     0.047 C
HETATM    9  C1  UNL     1      16.864  17.763  26.930  1.00  0.00     0.020 C
ENDBRANCH   7   8
ENDBRANCH   1   7
TORSDOF 3
ENDMDL