MODEL 5
REMARK VINA RESULT: -5.365462453      1.115      1.194
REMARK  2 active torsions:
REMARK  status: ('A' for Active; 'I' for Inactive)
REMARK    1  A    between atoms: N2_4  and  C1_6
REMARK    2  A    between atoms: C1_6  and  C2_7
ROOT
HETATM    1  N1  UNL     1      19.624  15.138  24.236  1.00  0.00    -0.349 N
ATOM      2  H11 UNL     1      20.526  14.873  23.842  1.00  0.00     0.176 HD
ATOM      3  H12 UNL     1      19.007  15.746  23.697  1.00  0.00     0.176 HD
HETATM    4  N2  UNL     1      19.213  14.762  25.349  1.00  0.00    -0.343 N
ATOM      5  H2  UNL     1      19.816  14.153  25.901  1.00  0.00     0.179 HD
ENDROOT
BRANCH   4   6
HETATM    6  C1  UNL     1      17.942  15.135  25.903  1.00  0.00     0.143 C
BRANCH   6   7
HETATM    7  C2  UNL     1      18.154  16.284  26.844  1.00  0.00     0.005 A
HETATM    8  C3  UNL     1      17.085  17.374  26.703  1.00  0.00     0.007 A
HETATM    9  C4  UNL     1      17.266  16.591  27.955  1.00  0.00     0.007 A
ENDBRANCH   6   7
ENDBRANCH   4   6
TORSDOF 2
ENDMDL