MODEL 4
REMARK VINA RESULT: -4.386705794      1.060      1.519
REMARK  3 active torsions:
REMARK  status: ('A' for Active; 'I' for Inactive)
REMARK    1  A    between atoms: C2_2  and  C3_3
REMARK    2  A    between atoms: C3_3  and  N1_4
REMARK    3  A    between atoms: N1_4  and  C4_6
ROOT
HETATM    1  N1  UNL     1      19.193  15.082  25.111  1.00  0.00    -0.383 N
ATOM      2  H1  UNL     1      19.878  14.586  25.681  1.00  0.00     0.160 HD
ENDROOT
BRANCH   1   3
HETATM    3  C3  UNL     1      18.176  15.918  25.720  1.00  0.00     0.147 C
BRANCH   3   4
HETATM    4  C2  UNL     1      17.691  15.205  26.925  1.00  0.00    -0.018 C
HETATM    5  C1  UNL     1      18.049  14.003  27.277  1.00  0.00     0.008 C
ENDBRANCH   3   4
ENDBRANCH   1   3
BRANCH   1   6
HETATM    6  C4  UNL     1      19.205  14.979  23.704  1.00  0.00     0.171 C
HETATM    7  N2  UNL     1      19.927  14.048  23.127  1.00  0.00    -0.391 N
HETATM    8  C5  UNL     1      20.690  13.152  23.955  1.00  0.00     0.147 C
ATOM      9  H2  UNL     1      19.946  13.960  22.111  1.00  0.00     0.159 HD
ENDBRANCH   1   6
TORSDOF 3
ENDMDL