MODEL 5
REMARK VINA RESULT: -4.477308800      1.752      2.293
REMARK  2 active torsions:
REMARK  status: ('A' for Active; 'I' for Inactive)
REMARK    1  A    between atoms: C2_2  and  N1_3
REMARK    2  A    between atoms: N2_5  and  N3_7
ROOT
HETATM    1  N1  UNL     1      17.586  15.640  27.054  1.00  0.00    -0.317 N
HETATM    2  C3  UNL     1      18.850  16.165  27.492  1.00  0.00     0.172 C
HETATM    3  N2  UNL     1      17.567  14.443  26.636  1.00  0.00    -0.231 N
ATOM      4  H2  UNL     1      16.682  14.053  26.313  1.00  0.00     0.209 HD
ENDROOT
BRANCH   3   5
HETATM    5  N3  UNL     1      18.696  13.641  26.598  1.00  0.00    -0.235 N
HETATM    6  N4  UNL     1      19.436  13.474  25.595  1.00  0.00    -0.330 N
ATOM      7  H42 UNL     1      19.170  13.977  24.749  1.00  0.00     0.178 HD
ATOM      8  H41 UNL     1      20.268  12.882  25.567  1.00  0.00     0.178 HD
ATOM      9  H3  UNL     1      18.947  13.145  27.453  1.00  0.00     0.209 HD
ENDBRANCH   3   5
BRANCH   1  10
HETATM   10  C2  UNL     1      16.381  16.448  27.082  1.00  0.00     0.139 C
HETATM   11  C1  UNL     1      16.630  17.895  26.712  1.00  0.00     0.028 C
ENDBRANCH   1  10
TORSDOF 2
ENDMDL