MODEL 2
REMARK VINA RESULT: -6.047726449      0.955      1.051
REMARK  3 active torsions:
REMARK  status: ('A' for Active; 'I' for Inactive)
REMARK    1  A    between atoms: C2_2  and  C3_3
REMARK    2  A    between atoms: C3_3  and  N1_4
REMARK    3  A    between atoms: N2_6  and  N3_8
ROOT
HETATM    1  N1  UNL     1      18.794  15.352  26.339  1.00  0.00    -0.319 N
ATOM      2  H1  UNL     1      19.269  16.012  25.723  1.00  0.00     0.181 HD
HETATM    3  N2  UNL     1      18.860  14.113  26.117  1.00  0.00    -0.252 N
ATOM      4  H2  UNL     1      18.389  13.444  26.726  1.00  0.00     0.207 HD
ENDROOT
BRANCH   1   5
HETATM    5  C3  UNL     1      18.046  15.823  27.464  1.00  0.00     0.167 C
BRANCH   5   6
HETATM    6  C2  UNL     1      16.811  16.540  27.089  1.00  0.00    -0.016 C
HETATM    7  C1  UNL     1      16.887  17.826  26.776  1.00  0.00     0.008 C
ENDBRANCH   5   6
ENDBRANCH   1   5
BRANCH   3   8
HETATM    8  N3  UNL     1      19.601  13.682  25.007  1.00  0.00    -0.327 N
HETATM    9  C4  UNL     1      19.452  14.380  23.739  1.00  0.00     0.169 C
ATOM     10  H3  UNL     1      20.238  12.889  25.088  1.00  0.00     0.181 HD
ENDBRANCH   3   8
TORSDOF 3
ENDMDL