MODEL 2
REMARK VINA RESULT: -4.824869407      2.296      3.326
REMARK  2 active torsions:
REMARK  status: ('A' for Active; 'I' for Inactive)
REMARK    1  A    between atoms: N1_2  and  N2_4
REMARK    2  A    between atoms: C2_6  and  N3_7
ROOT
HETATM    1  N2  UNL     1      19.245  13.671  25.752  1.00  0.00    -0.300 N
ATOM      2  H2  UNL     1      20.039  13.036  25.842  1.00  0.00     0.187 HD
HETATM    3  C2  UNL     1      19.053  14.308  24.646  1.00  0.00     0.212 C
ENDROOT
BRANCH   3   4
HETATM    4  N3  UNL     1      19.910  14.169  23.522  1.00  0.00    -0.301 N
HETATM    5  N4  UNL     1      21.138  13.916  23.635  1.00  0.00    -0.344 N
ATOM      6  H42 UNL     1      21.516  13.810  24.577  1.00  0.00     0.176 HD
ATOM      7  H41 UNL     1      21.754  13.817  22.828  1.00  0.00     0.176 HD
ATOM      8  H3  UNL     1      19.516  14.279  22.587  1.00  0.00     0.187 HD
ENDBRANCH   3   4
BRANCH   1   9
HETATM    9  N1  UNL     1      18.371  13.846  26.825  1.00  0.00    -0.340 N
HETATM   10  C1  UNL     1      17.550  15.030  26.957  1.00  0.00     0.167 C
ATOM     11  H1  UNL     1      18.310  13.118  27.537  1.00  0.00     0.179 HD
ENDBRANCH   1   9
TORSDOF 2
ENDMDL