MODEL 4
REMARK VINA RESULT: -4.060703813      1.797      2.619
REMARK  4 active torsions:
REMARK  status: ('A' for Active; 'I' for Inactive)
REMARK    1  A    between atoms: N1_2  and  C2_4
REMARK    2  A    between atoms: C2_4  and  N2_5
REMARK    3  A    between atoms: N2_5  and  C3_7
REMARK    4  A    between atoms: C3_7  and  N3_8
ROOT
HETATM    1  N2  UNL     1      18.882  15.105  25.887  1.00  0.00    -0.304 N
ATOM      2  H2  UNL     1      19.676  15.735  26.000  1.00  0.00     0.177 HD
ENDROOT
BRANCH   1   3
HETATM    3  C2  UNL     1      18.003  14.838  27.005  1.00  0.00     0.184 C
BRANCH   3   4
HETATM    4  N1  UNL     1      16.915  15.734  26.963  1.00  0.00    -0.390 N
HETATM    5  C1  UNL     1      17.168  17.093  27.267  1.00  0.00     0.147 C
ATOM      6  H1  UNL     1      15.977  15.414  26.722  1.00  0.00     0.159 HD
ENDBRANCH   3   4
ENDBRANCH   1   3
BRANCH   1   7
HETATM    7  C3  UNL     1      18.664  14.557  24.776  1.00  0.00     0.045 C
BRANCH   7   8
HETATM    8  N3  UNL     1      18.306  13.934  23.708  1.00  0.00    -0.352 N
ATOM      9  H32 UNL     1      17.609  13.495  24.309  1.00  0.00     0.167 HD
ATOM     10  H31 UNL     1      18.117  13.506  22.802  1.00  0.00     0.167 HD
ENDBRANCH   7   8
ENDBRANCH   1   7
TORSDOF 4
ENDMDL