MODEL 5
REMARK VINA RESULT: -4.799688305      1.735      1.883
REMARK  3 active torsions:
REMARK  status: ('A' for Active; 'I' for Inactive)
REMARK    1  A    between atoms: N1_2  and  C2_4
REMARK    2  A    between atoms: N2_5  and  N3_7
REMARK    3  A    between atoms: N3_7  and  C3_9
ROOT
HETATM    1  C2  UNL     1      18.449  15.207  25.758  1.00  0.00     0.192 C
HETATM    2  N2  UNL     1      19.121  14.179  25.433  1.00  0.00    -0.296 N
ATOM      3  H2  UNL     1      19.648  13.728  26.181  1.00  0.00     0.187 HD
ENDROOT
BRANCH   2   4
HETATM    4  N3  UNL     1      19.218  13.605  24.190  1.00  0.00    -0.296 N
ATOM      5  H3  UNL     1      18.441  13.454  23.546  1.00  0.00     0.187 HD
BRANCH   4   6
HETATM    6  C3  UNL     1      20.591  13.249  23.939  1.00  0.00     0.190 C
HETATM    7  N4  UNL     1      20.934  12.117  23.503  1.00  0.00    -0.394 N
ATOM      8  H42 UNL     1      20.195  11.436  23.324  1.00  0.00     0.156 HD
ATOM      9  H41 UNL     1      21.906  11.865  23.325  1.00  0.00     0.156 HD
ENDBRANCH   4   6
ENDBRANCH   2   4
BRANCH   1  10
HETATM   10  N1  UNL     1      18.492  15.629  27.113  1.00  0.00    -0.389 N
HETATM   11  C1  UNL     1      17.641  16.756  27.497  1.00  0.00     0.147 C
ATOM     12  H1  UNL     1      19.094  15.163  27.792  1.00  0.00     0.159 HD
ENDBRANCH   1  10
TORSDOF 3
ENDMDL