MODEL 4
REMARK VINA RESULT: -3.866048867      1.015      1.164
REMARK  3 active torsions:
REMARK  status: ('A' for Active; 'I' for Inactive)
REMARK    1  A    between atoms: C2_2  and  N1_3
REMARK    2  A    between atoms: N1_3  and  N2_4
REMARK    3  A    between atoms: N1_3  and  N3_7
ROOT
HETATM    1  N1  UNL     1      17.747  15.247  26.959  1.00  0.00    -0.152 NA
ENDROOT
BRANCH   1   2
HETATM    2  C2  UNL     1      16.647  16.160  27.132  1.00  0.00     0.129 C
HETATM    3  C1  UNL     1      17.016  17.596  26.868  1.00  0.00     0.024 C
ENDBRANCH   1   2
BRANCH   1   4
HETATM    4  N2  UNL     1      18.996  15.861  27.109  1.00  0.00    -0.349 NA
ATOM      5  H22 UNL     1      18.894  16.870  26.994  1.00  0.00     0.172 HD
ATOM      6  H21 UNL     1      19.469  15.596  27.973  1.00  0.00     0.172 HD
ENDBRANCH   1   4
BRANCH   1   7
HETATM    7  N3  UNL     1      17.712  14.561  25.751  1.00  0.00    -0.150 NA
HETATM    8  C3  UNL     1      18.782  14.958  24.868  1.00  0.00     0.154 C
ENDBRANCH   1   7
TORSDOF 3
ENDMDL