MODEL 2
REMARK VINA RESULT: -5.888055675      4.018      6.258
REMARK  7 active torsions:
REMARK  status: ('A' for Active; 'I' for Inactive)
REMARK    1  A    between atoms: C2_2  and  C3_3
REMARK    2  A    between atoms: C3_3  and  N1_4
REMARK    3  A    between atoms: N1_4  and  N2_6
REMARK    4  A    between atoms: N2_6  and  C4_7
REMARK    5  A    between atoms: C4_7  and  C5_8
REMARK    6  A    between atoms: C5_8  and  C6_9
REMARK    7  A    between atoms: C6_9  and  O1_10
ROOT
HETATM    1  N2  UNL     1      20.012  31.182  34.858  1.00  0.00    -0.146 NA
ENDROOT
BRANCH   1   2
HETATM    2  N1  UNL     1      21.336  30.930  34.545  1.00  0.00    -0.336 N
ATOM      3  H1  UNL     1      22.099  31.443  34.987  1.00  0.00     0.176 HD
BRANCH   2   4
HETATM    4  C3  UNL     1      21.577  29.921  33.576  1.00  0.00     0.161 C
BRANCH   4   5
HETATM    5  C2  UNL     1      23.036  29.851  33.319  1.00  0.00    -0.017 C
HETATM    6  C1  UNL     1      23.454  29.639  32.090  1.00  0.00     0.008 C
ENDBRANCH   4   5
ENDBRANCH   2   4
ENDBRANCH   1   2
BRANCH   1   7
HETATM    7  C4  UNL     1      19.244  29.993  34.743  1.00  0.00     0.136 C
BRANCH   7   8
HETATM    8  C5  UNL     1      17.750  30.214  34.754  1.00  0.00     0.044 C
BRANCH   8   9
HETATM    9  C6  UNL     1      17.384  30.910  36.044  1.00  0.00     0.165 C
BRANCH   9  10
HETATM   10  O1  UNL     1      18.001  30.222  37.118  1.00  0.00    -0.401 OA
ATOM     11  H1  UNL     1      17.321  29.846  37.665  1.00  0.00     0.209 HD
ENDBRANCH   9  10
ENDBRANCH   8   9
ENDBRANCH   7   8
ENDBRANCH   1   7
TORSDOF 7
ENDMDL