MODEL 4
REMARK VINA RESULT: -5.369303050      3.392      5.557
REMARK  6 active torsions:
REMARK  status: ('A' for Active; 'I' for Inactive)
REMARK    1  A    between atoms: C2_2  and  N1_3
REMARK    2  A    between atoms: N1_3  and  N2_5
REMARK    3  A    between atoms: N2_5  and  C3_6
REMARK    4  A    between atoms: C3_6  and  C4_7
REMARK    5  A    between atoms: C4_7  and  N3_8
REMARK    6  A    between atoms: N3_8  and  C5_11
ROOT
HETATM    1  C3  UNL     1      19.338  30.154  34.530  1.00  0.00     0.162 C
ENDROOT
BRANCH   1   2
HETATM    2  N2  UNL     1      20.349  31.164  34.803  1.00  0.00    -0.140 NA
BRANCH   2   3
HETATM    3  N1  UNL     1      21.635  30.787  34.399  1.00  0.00    -0.316 N
ATOM      4  H1  UNL     1      22.443  31.233  34.834  1.00  0.00     0.181 HD
BRANCH   3   5
HETATM    5  C2  UNL     1      21.845  29.802  33.400  1.00  0.00     0.092 C
HETATM    6  C1  UNL     1      23.014  29.692  32.829  1.00  0.00     0.031 C
ENDBRANCH   3   5
ENDBRANCH   2   3
ENDBRANCH   1   2
BRANCH   1   7
HETATM    7  C4  UNL     1      18.072  30.494  35.263  1.00  0.00     0.250 C
BRANCH   7   8
HETATM    8  N3  UNL     1      18.125  30.210  36.648  1.00  0.00    -0.074 N
ATOM      9  H32 UNL     1      18.205  29.208  36.821  1.00  0.00     0.277 HD
ATOM     10  H31 UNL     1      19.010  30.511  37.058  1.00  0.00     0.277 HD
BRANCH   8  11
HETATM   11  C5  UNL     1      16.997  30.780  37.347  1.00  0.00     0.228 C
HETATM   12  C6  UNL     1      16.202  31.709  36.437  1.00  0.00     0.034 C
ENDBRANCH   8  11
ENDBRANCH   7   8
ENDBRANCH   1   7
TORSDOF 6
ENDMDL