MODEL 1
REMARK VINA RESULT: -5.677128920      0.000      0.000
REMARK  6 active torsions:
REMARK  status: ('A' for Active; 'I' for Inactive)
REMARK    1  A    between atoms: C2_2  and  O1_3
REMARK    2  A    between atoms: O1_3  and  N1_4
REMARK    3  A    between atoms: N1_4  and  C3_5
REMARK    4  A    between atoms: C3_5  and  C4_6
REMARK    5  A    between atoms: C4_6  and  N2_7
REMARK    6  A    between atoms: N2_7  and  C5_9
ROOT
HETATM    1  C4  UNL     1      19.135  30.256  34.730  1.00  0.00     0.182 C
ENDROOT
BRANCH   1   2
HETATM    2  C3  UNL     1      20.583  30.759  34.665  1.00  0.00     0.210 C
BRANCH   2   3
HETATM    3  N1  UNL     1      21.390  30.160  33.798  1.00  0.00    -0.297 NA
BRANCH   3   4
HETATM    4  O1  UNL     1      22.131  29.610  33.000  1.00  0.00    -0.210 OA
BRANCH   4   5
HETATM    5  C2  UNL     1      23.469  29.990  32.878  1.00  0.00     0.213 C
HETATM    6  C1  UNL     1      24.332  28.894  32.362  1.00  0.00     0.037 C
ENDBRANCH   4   5
ENDBRANCH   3   4
ENDBRANCH   2   3
ENDBRANCH   1   2
BRANCH   1   7
HETATM    7  N2  UNL     1      18.694  30.176  36.114  1.00  0.00    -0.381 N
ATOM      8  H2  UNL     1      19.302  29.739  36.806  1.00  0.00     0.160 HD
BRANCH   7   9
HETATM    9  C5  UNL     1      17.432  30.694  36.525  1.00  0.00     0.169 C
HETATM   10  N3  UNL     1      17.142  30.886  37.758  1.00  0.00    -0.396 N
ATOM     11  H32 UNL     1      17.850  30.655  38.456  1.00  0.00     0.156 HD
ATOM     12  H31 UNL     1      16.240  31.257  38.052  1.00  0.00     0.156 HD
ENDBRANCH   7   9
ENDBRANCH   1   7
TORSDOF 6
ENDMDL