MODEL 3
REMARK VINA RESULT: -5.383020641      4.241      6.422
REMARK  6 active torsions:
REMARK  status: ('A' for Active; 'I' for Inactive)
REMARK    1  A    between atoms: C2_2  and  N1_3
REMARK    2  A    between atoms: N1_3  and  N2_4
REMARK    3  A    between atoms: N2_4  and  C3_5
REMARK    4  A    between atoms: C3_5  and  C4_6
REMARK    5  A    between atoms: C4_6  and  N3_7
REMARK    6  A    between atoms: N3_7  and  C5_9
ROOT
HETATM    1  C3  UNL     1      24.562  29.066  32.762  1.00  0.00     0.149 C
ENDROOT
BRANCH   1   2
HETATM    2  N2  UNL     1      23.576  29.497  31.763  1.00  0.00    -0.147 NA
BRANCH   2   3
HETATM    3  N1  UNL     1      22.322  29.666  32.285  1.00  0.00    -0.149 NA
BRANCH   3   4
HETATM    4  C2  UNL     1      22.286  29.852  33.719  1.00  0.00     0.126 C
HETATM    5  C1  UNL     1      20.832  30.202  34.063  1.00  0.00     0.023 C
ENDBRANCH   3   4
ENDBRANCH   2   3
ENDBRANCH   1   2
BRANCH   1   6
HETATM    6  C4  UNL     1      25.716  28.412  32.071  1.00  0.00     0.139 C
BRANCH   6   7
HETATM    7  N3  UNL     1      25.862  27.004  32.346  1.00  0.00    -0.367 N
ATOM      8  H3  UNL     1      26.548  26.459  31.824  1.00  0.00     0.161 HD
BRANCH   7   9
HETATM    9  C5  UNL     1      25.069  26.369  33.326  1.00  0.00     0.348 C
HETATM   10  O1  UNL     1      25.557  25.474  34.087  1.00  0.00    -0.284 OA
ENDBRANCH   7   9
ENDBRANCH   6   7
ENDBRANCH   1   6
TORSDOF 6
ENDMDL