MODEL 4
REMARK VINA RESULT: -5.377285389      1.930      6.178
REMARK  6 active torsions:
REMARK  status: ('A' for Active; 'I' for Inactive)
REMARK    1  A    between atoms: C2_2  and  C3_3
REMARK    2  A    between atoms: C3_3  and  N1_4
REMARK    3  A    between atoms: N1_4  and  N2_5
REMARK    4  A    between atoms: N2_5  and  C4_7
REMARK    5  A    between atoms: C4_7  and  C5_8
REMARK    6  A    between atoms: C5_8  and  N3_9
ROOT
HETATM    1  N2  UNL     1      22.872  30.212  33.316  1.00  0.00    -0.338 N
ATOM      2  H2  UNL     1      23.297  30.926  33.907  1.00  0.00     0.175 HD
ENDROOT
BRANCH   1   3
HETATM    3  N1  UNL     1      21.637  29.691  33.655  1.00  0.00    -0.146 NA
BRANCH   3   4
HETATM    4  C3  UNL     1      20.782  30.591  34.355  1.00  0.00     0.134 C
BRANCH   4   5
HETATM    5  C2  UNL     1      19.758  29.838  35.182  1.00  0.00     0.013 C
HETATM    6  C1  UNL     1      18.482  30.641  35.052  1.00  0.00     0.006 C
ENDBRANCH   4   5
ENDBRANCH   3   4
ENDBRANCH   1   3
BRANCH   1   7
HETATM    7  C4  UNL     1      23.545  29.771  32.172  1.00  0.00     0.162 C
BRANCH   7   8
HETATM    8  C5  UNL     1      24.883  29.117  32.590  1.00  0.00     0.252 C
BRANCH   8   9
HETATM    9  N3  UNL     1      25.007  27.823  31.996  1.00  0.00    -0.077 N
HETATM   10  C6  UNL     1      25.396  26.821  32.934  1.00  0.00     0.267 C
ATOM     11  H32 UNL     1      24.148  27.559  31.514  1.00  0.00     0.276 HD
ATOM     12  H31 UNL     1      25.644  27.846  31.199  1.00  0.00     0.276 HD
ENDBRANCH   8   9
ENDBRANCH   7   8
ENDBRANCH   1   7
TORSDOF 6
ENDMDL