MODEL 5
REMARK VINA RESULT: -5.841804064      2.688      6.493
REMARK  7 active torsions:
REMARK  status: ('A' for Active; 'I' for Inactive)
REMARK    1  A    between atoms: C2_2  and  C3_3
REMARK    2  A    between atoms: C2_2  and  N2_10
REMARK    3  A    between atoms: C3_3  and  C4_4
REMARK    4  A    between atoms: C4_4  and  C5_5
REMARK    5  A    between atoms: C5_5  and  N1_6
REMARK    6  A    between atoms: N1_6  and  C6_8
REMARK    7  A    between atoms: N2_10  and  O2_12
ROOT
HETATM    1  C3  UNL     1      20.682  30.826  34.562  1.00  0.00     0.059 C
ENDROOT
BRANCH   1   2
HETATM    2  C2  UNL     1      19.385  30.137  34.961  1.00  0.00     0.022 C
HETATM    3  C1  UNL     1      18.422  29.882  34.100  1.00  0.00     0.040 C
BRANCH   2   4
HETATM    4  N2  UNL     1      19.289  29.786  36.334  1.00  0.00    -0.274 N
ATOM      5  H2  UNL     1      20.076  29.341  36.806  1.00  0.00     0.193 HD
BRANCH   4   6
HETATM    6  O2  UNL     1      18.151  30.046  37.008  1.00  0.00    -0.290 OA
ATOM      7  H2  UNL     1      17.834  29.420  37.650  1.00  0.00     0.244 HD
ENDBRANCH   4   6
ENDBRANCH   2   4
ENDBRANCH   1   2
BRANCH   1   8
HETATM    8  C4  UNL     1      21.406  29.864  33.716  1.00  0.00     0.026 C
BRANCH   8   9
HETATM    9  C5  UNL     1      22.831  29.996  33.421  1.00  0.00     0.122 C
BRANCH   9  10
HETATM   10  N1  UNL     1      23.393  29.287  32.324  1.00  0.00    -0.368 N
ATOM     11  H1  UNL     1      22.891  29.385  31.441  1.00  0.00     0.161 HD
BRANCH  10  12
HETATM   12  C6  UNL     1      24.532  28.472  32.276  1.00  0.00     0.348 C
HETATM   13  O1  UNL     1      25.512  28.697  31.533  1.00  0.00    -0.284 OA
ENDBRANCH  10  12
ENDBRANCH   9  10
ENDBRANCH   8   9
ENDBRANCH   1   8
TORSDOF 7
ENDMDL