MODEL 4
REMARK VINA RESULT: -9.839981104      2.225     11.196
REMARK  11 active torsions:
REMARK  status: ('A' for Active; 'I' for Inactive)
REMARK    1  A    between atoms: C2_2  and  C3_3
REMARK    2  A    between atoms: C5_5  and  C6_6
REMARK       I    between atoms: C6_6  and  N1_8
REMARK    3  A    between atoms: N1_8  and  C7_10
REMARK    4  A    between atoms: C7_10  and  C8_11
REMARK    5  A    between atoms: C8_11  and  C9_12
REMARK    6  A    between atoms: C9_12  and  N2_13
REMARK       I    between atoms: N2_13  and  C10_15
REMARK       I    between atoms: C10_15  and  N3_17
REMARK    7  A    between atoms: N3_17  and  C11_19
REMARK    8  A    between atoms: C14_22  and  C15_23
REMARK    9  A    between atoms: C15_23  and  N4_24
REMARK   10  A    between atoms: C17_26  and  C18_27
REMARK   11  A    between atoms: C18_27  and  C19_28
REMARK       I    between atoms: C19_28  and  N5_30
ROOT
HETATM    1  C11 UNL     1      -9.188  17.624  26.954  1.00  0.00     0.086 C
HETATM    2  C12 UNL     1     -10.153  17.397  28.068  1.00  0.00     0.026 C
HETATM    3  C13 UNL     1     -10.798  16.051  28.120  1.00  0.00     0.008 C
HETATM    4  C14 UNL     1     -11.212  15.623  26.760  1.00  0.00     0.006 C
HETATM    5  C26 UNL     1      -9.969  15.596  25.868  1.00  0.00     0.008 C
HETATM    6  C27 UNL     1      -9.625  17.049  25.623  1.00  0.00     0.026 C
ENDROOT
BRANCH   1   7
HETATM    7  N3  UNL     1      -7.891  17.105  27.335  1.00  0.00    -0.339 N
HETATM    8  C10 UNL     1      -6.695  17.920  27.259  1.00  0.00     0.316 C
HETATM    9  N2  UNL     1      -5.446  17.385  27.629  1.00  0.00    -0.343 N
HETATM   10  O2  UNL     1      -6.903  19.088  26.846  1.00  0.00    -0.247 OA
ATOM     11  H2  UNL     1      -5.376  16.416  27.943  1.00  0.00     0.164 HD
ATOM     12  H3  UNL     1      -7.819  16.142  27.665  1.00  0.00     0.164 HD
BRANCH   9  13
HETATM   13  C9  UNL     1      -4.238  18.227  27.561  1.00  0.00     0.126 C
BRANCH  13  14
HETATM   14  C8  UNL     1      -3.566  17.986  26.275  1.00  0.00     0.039 C
BRANCH  14  15
HETATM   15  C7  UNL     1      -3.919  16.875  25.402  1.00  0.00     0.124 C
BRANCH  15  16
HETATM   16  N1  UNL     1      -4.776  17.110  24.295  1.00  0.00    -0.356 N
HETATM   17  C6  UNL     1      -6.017  16.552  24.081  1.00  0.00     0.269 C
HETATM   18  O1  UNL     1      -6.503  15.748  24.960  1.00  0.00    -0.266 OA
ATOM     19  H1  UNL     1      -4.438  17.759  23.585  1.00  0.00     0.162 HD
BRANCH  17  20
HETATM   20  C5  UNL     1      -6.870  16.774  22.933  1.00  0.00     0.119 A
HETATM   21  C4  UNL     1      -7.877  15.862  22.512  1.00  0.00     0.063 A
HETATM   22  C3  UNL     1      -8.525  16.363  21.421  1.00  0.00     0.028 A
HETATM   23  N9  UNL     1      -7.947  17.536  21.172  1.00  0.00    -0.302 N
HETATM   24  N8  UNL     1      -6.962  17.779  22.073  1.00  0.00    -0.291 N
ATOM     25  H9  UNL     1      -8.208  18.163  20.411  1.00  0.00     0.186 HD
HETATM   26  C28 UNL     1      -6.189  19.022  22.030  1.00  0.00     0.178 C
BRANCH  22  27
HETATM   27  C2  UNL     1      -9.659  15.720  20.658  1.00  0.00     0.054 C
HETATM   28  C1  UNL     1      -9.272  15.373  19.257  1.00  0.00     0.011 C
ENDBRANCH  22  27
ENDBRANCH  17  20
ENDBRANCH  15  16
ENDBRANCH  14  15
ENDBRANCH  13  14
ENDBRANCH   9  13
ENDBRANCH   1   7
BRANCH   4  29
HETATM   29  C15 UNL     1     -11.990  14.361  26.662  1.00  0.00     0.154 C
BRANCH  29  30
HETATM   30  N4  UNL     1     -12.676  14.104  27.895  1.00  0.00    -0.287 N
HETATM   31  C16 UNL     1     -12.171  13.644  29.026  1.00  0.00     0.138 A
HETATM   32  C17 UNL     1     -13.170  13.542  29.961  1.00  0.00     0.053 A
HETATM   33  N6  UNL     1     -14.297  13.968  29.320  1.00  0.00    -0.289 N
HETATM   34  N7  UNL     1     -13.968  14.297  28.088  1.00  0.00    -0.241 N
ATOM     35  H6  UNL     1     -15.232  14.023  29.724  1.00  0.00     0.188 HD
ATOM     36  H7  UNL     1     -14.617  14.650  27.385  1.00  0.00     0.208 HD
BRANCH  32  37
HETATM   37  C18 UNL     1     -13.025  13.072  31.337  1.00  0.00     0.163 C
BRANCH  37  38
HETATM   38  C19 UNL     1     -13.460  14.048  32.338  1.00  0.00     0.227 C
HETATM   39  O3  UNL     1     -14.572  14.610  32.224  1.00  0.00    -0.273 OA
HETATM   40  N5  UNL     1     -12.632  14.360  33.434  1.00  0.00    -0.334 N
HETATM   41  C20 UNL     1     -11.566  15.045  33.290  1.00  0.00    -0.011 C
ATOM     42  H5  UNL     1     -12.892  14.030  34.364  1.00  0.00     0.168 HD
HETATM   43  C21 UNL     1     -11.024  15.604  32.047  1.00  0.00     0.052 C
HETATM   44  C25 UNL     1     -10.751  15.304  34.539  1.00  0.00     0.052 C
HETATM   45  C22 UNL     1      -9.727  14.874  31.752  1.00  0.00     0.006 C
HETATM   46  C23 UNL     1      -9.179  14.159  32.966  1.00  0.00     0.001 C
HETATM   47  C24 UNL     1      -9.306  14.978  34.236  1.00  0.00     0.006 C
ENDBRANCH  37  38
ENDBRANCH  32  37
ENDBRANCH  29  30
ENDBRANCH   4  29
TORSDOF 11
ENDMDL