MODEL 2
REMARK VINA RESULT: -7.917377146      3.235     10.224
REMARK  15 active torsions:
REMARK  status: ('A' for Active; 'I' for Inactive)
REMARK    1  A    between atoms: O1_2  and  C2_3
REMARK    2  A    between atoms: C2_3  and  C5_6
REMARK    3  A    between atoms: C5_6  and  N1_7
REMARK    4  A    between atoms: N1_7  and  C6_9
REMARK    5  A    between atoms: C6_9  and  S2_11
REMARK    6  A    between atoms: S2_11  and  C7_12
REMARK    7  A    between atoms: C7_12  and  C8_13
REMARK       I    between atoms: C8_13  and  N2_15
REMARK    8  A    between atoms: N2_15  and  C9_17
REMARK    9  A    between atoms: C9_17  and  C10_18
REMARK   10  A    between atoms: C9_17  and  C18_26
REMARK   11  A    between atoms: C10_18  and  C11_19
REMARK   12  A    between atoms: C11_19  and  C14_22
REMARK       I    between atoms: C18_26  and  N3_28
REMARK   13  A    between atoms: N3_28  and  C19_30
REMARK   14  A    between atoms: C19_30  and  C21_32
REMARK   15  A    between atoms: C21_32  and  C22_34
REMARK       I    between atoms: C22_34  and  N4_36
ROOT
HETATM    1  C9  UNL     1      -7.551  16.676  25.472  1.00  0.00     0.177 C
ENDROOT
BRANCH   1   2
HETATM    2  N2  UNL     1      -8.419  15.536  25.342  1.00  0.00    -0.347 N
HETATM    3  C8  UNL     1      -9.699  15.442  25.867  1.00  0.00     0.228 C
HETATM    4  O2  UNL     1     -10.181  16.455  26.484  1.00  0.00    -0.273 OA
ATOM      5  H2  UNL     1      -8.064  14.733  24.822  1.00  0.00     0.163 HD
BRANCH   3   6
HETATM    6  C7  UNL     1     -10.559  14.267  25.786  1.00  0.00     0.184 C
BRANCH   6   7
HETATM    7  S2  UNL     1     -12.247  14.455  26.281  1.00  0.00    -0.091 SA
BRANCH   7   8
HETATM    8  C6  UNL     1     -12.586  14.613  27.996  1.00  0.00     0.135 C
HETATM    9  S1  UNL     1     -13.971  13.949  28.585  1.00  0.00    -0.053 SA
BRANCH   8  10
HETATM   10  N1  UNL     1     -11.762  15.368  28.832  1.00  0.00    -0.373 N
ATOM     11  H1  UNL     1     -11.622  16.349  28.587  1.00  0.00     0.161 HD
BRANCH  10  12
HETATM   12  C5  UNL     1     -11.102  14.888  29.993  1.00  0.00     0.158 C
BRANCH  12  13
HETATM   13  C2  UNL     1      -9.661  15.136  30.143  1.00  0.00     0.069 C
HETATM   14  C3  UNL     1      -9.410  16.669  29.949  1.00  0.00     0.047 C
HETATM   15  C4  UNL     1      -8.745  14.484  29.196  1.00  0.00     0.047 C
BRANCH  13  16
HETATM   16  O1  UNL     1      -9.327  14.892  31.490  1.00  0.00    -0.384 OA
HETATM   17  C1  UNL     1      -9.922  15.784  32.356  1.00  0.00     0.202 C
ENDBRANCH  13  16
ENDBRANCH  12  13
ENDBRANCH  10  12
ENDBRANCH   8  10
ENDBRANCH   7   8
ENDBRANCH   6   7
ENDBRANCH   3   6
ENDBRANCH   1   2
BRANCH   1  18
HETATM   18  C10 UNL     1      -6.248  16.547  26.120  1.00  0.00     0.044 C
BRANCH  18  19
HETATM   19  C11 UNL     1      -5.902  17.366  27.305  1.00  0.00    -0.039 C
HETATM   20  C12 UNL     1      -7.044  18.358  27.554  1.00  0.00     0.015 C
HETATM   21  C13 UNL     1      -5.722  16.585  28.551  1.00  0.00     0.015 C
BRANCH  19  22
HETATM   22  C14 UNL     1      -4.652  18.152  26.920  1.00  0.00    -0.044 C
HETATM   23  C15 UNL     1      -3.794  17.459  25.940  1.00  0.00     0.015 C
HETATM   24  C16 UNL     1      -3.843  18.409  28.192  1.00  0.00     0.015 C
HETATM   25  C17 UNL     1      -5.097  19.490  26.380  1.00  0.00     0.015 C
ENDBRANCH  19  22
ENDBRANCH  18  19
ENDBRANCH   1  18
BRANCH   1  26
HETATM   26  C18 UNL     1      -7.427  17.272  24.077  1.00  0.00     0.241 C
HETATM   27  O3  UNL     1      -8.479  17.335  23.409  1.00  0.00    -0.271 OA
HETATM   28  N3  UNL     1      -6.203  17.729  23.559  1.00  0.00    -0.348 N
ATOM     29  H3  UNL     1      -5.357  17.658  24.124  1.00  0.00     0.163 HD
BRANCH  28  30
HETATM   30  C19 UNL     1      -6.131  18.298  22.236  1.00  0.00     0.160 C
HETATM   31  C20 UNL     1      -5.571  19.665  22.301  1.00  0.00     0.041 C
BRANCH  30  32
HETATM   32  C21 UNL     1      -5.517  17.399  21.213  1.00  0.00     0.238 C
HETATM   33  O4  UNL     1      -4.409  16.840  21.464  1.00  0.00    -0.285 OA
BRANCH  32  34
HETATM   34  C22 UNL     1      -6.138  17.137  19.933  1.00  0.00     0.291 C
HETATM   35  O5  UNL     1      -5.791  17.762  18.877  1.00  0.00    -0.264 OA
HETATM   36  N4  UNL     1      -7.164  16.169  19.801  1.00  0.00    -0.345 N
HETATM   37  C23 UNL     1      -7.801  15.340  20.778  1.00  0.00     0.126 C
HETATM   38  C26 UNL     1      -7.756  15.823  18.500  1.00  0.00     0.126 C
HETATM   39  C24 UNL     1      -9.078  14.848  20.137  1.00  0.00     0.021 C
HETATM   40  C25 UNL     1      -9.215  15.656  18.856  1.00  0.00     0.021 C
ENDBRANCH  32  34
ENDBRANCH  30  32
ENDBRANCH  28  30
ENDBRANCH   1  26
TORSDOF 15
ENDMDL