MODEL 2
REMARK VINA RESULT: -8.388562482      4.525      7.865
REMARK  12 active torsions:
REMARK  status: ('A' for Active; 'I' for Inactive)
REMARK    1  A    between atoms: O1_2  and  C2_3
REMARK    2  A    between atoms: C5_6  and  N1_7
REMARK    3  A    between atoms: N1_7  and  C6_8
REMARK    4  A    between atoms: C9_11  and  O2_12
REMARK    5  A    between atoms: O2_12  and  C10_13
REMARK    6  A    between atoms: C10_13  and  C11_14
REMARK    7  A    between atoms: C11_14  and  N2_15
REMARK    8  A    between atoms: C17_21  and  C18_22
REMARK    9  A    between atoms: C23_33  and  O4_34
REMARK   10  A    between atoms: O4_34  and  C24_35
REMARK   11  A    between atoms: C24_35  and  C25_36
REMARK   12  A    between atoms: C25_36  and  N6_37
ROOT
HETATM    1  C2  UNL     1      -8.381  17.220  26.839  1.00  0.00     0.102 A
HETATM    2  C3  UNL     1      -7.200  17.503  26.144  1.00  0.00     0.058 A
HETATM    3  C4  UNL     1      -5.988  17.657  26.806  1.00  0.00     0.052 A
HETATM    4  C5  UNL     1      -4.809  17.945  26.097  1.00  0.00     0.193 A
HETATM    5  N4  UNL     1      -3.652  18.084  26.849  1.00  0.00    -0.327 N
ATOM      6  H4  UNL     1      -2.767  18.293  26.386  1.00  0.00     0.169 HD
HETATM    7  C20 UNL     1      -3.692  17.946  28.159  1.00  0.00     0.183 A
HETATM    8  N5  UNL     1      -4.797  17.674  28.845  1.00  0.00    -0.351 N
ATOM      9  H5  UNL     1      -4.771  17.578  29.861  1.00  0.00     0.166 HD
HETATM   10  C21 UNL     1      -5.949  17.528  28.172  1.00  0.00     0.051 A
HETATM   11  C22 UNL     1      -7.129  17.247  28.846  1.00  0.00     0.070 A
HETATM   12  C23 UNL     1      -8.347  17.088  28.208  1.00  0.00     0.104 A
ENDROOT
BRANCH   4  13
HETATM   13  N1  UNL     1      -4.813  18.040  24.924  1.00  0.00    -0.387 NA
BRANCH  13  14
HETATM   14  C6  UNL     1      -4.746  18.063  23.605  1.00  0.00     0.110 A
HETATM   15  C7  UNL     1      -5.758  18.675  22.824  1.00  0.00     0.047 A
HETATM   16  C8  UNL     1      -5.668  18.666  21.476  1.00  0.00     0.041 A
HETATM   17  C9  UNL     1      -4.618  18.077  20.794  1.00  0.00     0.084 A
HETATM   18  C17 UNL     1      -3.632  17.480  21.545  1.00  0.00     0.065 A
HETATM   19  C19 UNL     1      -3.664  17.457  22.909  1.00  0.00     0.064 A
BRANCH  17  20
HETATM   20  O2  UNL     1      -4.523  18.061  19.431  1.00  0.00    -0.345 OA
BRANCH  20  21
HETATM   21  C10 UNL     1      -5.573  17.558  18.601  1.00  0.00     0.220 C
BRANCH  21  22
HETATM   22  C11 UNL     1      -5.969  16.168  18.926  1.00  0.00     0.084 C
BRANCH  22  23
HETATM   23  N2  UNL     1      -7.195  15.974  19.565  1.00  0.00    -0.391 N
HETATM   24  C12 UNL     1      -8.367  15.854  18.758  1.00  0.00     0.122 C
HETATM   25  C13 UNL     1      -9.481  15.122  19.491  1.00  0.00     0.020 C
HETATM   26  C14 UNL     1      -9.726  15.837  20.790  1.00  0.00     0.003 C
HETATM   27  C15 UNL     1      -8.438  15.900  21.569  1.00  0.00     0.020 C
HETATM   28  C16 UNL     1      -7.294  15.256  20.763  1.00  0.00     0.122 C
ENDBRANCH  22  23
ENDBRANCH  21  22
ENDBRANCH  20  21
ENDBRANCH  17  20
BRANCH  18  29
HETATM   29  C18 UNL     1      -2.498  16.838  20.858  1.00  0.00     0.267 C
HETATM   30  N3  UNL     1      -2.612  15.533  20.337  1.00  0.00    -0.057 NA
HETATM   31  O3  UNL     1      -1.436  17.471  20.747  1.00  0.00    -0.271 OA
ENDBRANCH  18  29
ENDBRANCH  13  14
ENDBRANCH   4  13
BRANCH   1  32
HETATM   32  O1  UNL     1      -9.562  17.077  26.136  1.00  0.00    -0.353 OA
HETATM   33  C1  UNL     1      -9.635  17.152  24.737  1.00  0.00     0.210 C
ENDBRANCH   1  32
BRANCH  12  34
HETATM   34  O4  UNL     1      -9.507  16.807  28.889  1.00  0.00    -0.343 OA
BRANCH  34  35
HETATM   35  C24 UNL     1      -9.610  15.822  29.894  1.00  0.00     0.220 C
BRANCH  35  36
HETATM   36  C25 UNL     1      -9.857  14.454  29.368  1.00  0.00     0.094 C
BRANCH  36  37
HETATM   37  N6  UNL     1     -10.761  14.327  28.294  1.00  0.00    -0.349 N
HETATM   38  C26 UNL     1     -10.200  13.969  27.066  1.00  0.00     0.095 C
HETATM   39  C27 UNL     1     -11.136  13.897  25.899  1.00  0.00     0.277 C
HETATM   40  N7  UNL     1     -12.117  14.977  25.944  1.00  0.00    -0.066 N
HETATM   41  C28 UNL     1     -12.892  14.734  27.152  1.00  0.00     0.277 C
ATOM     42  H72 UNL     1     -11.707  15.909  25.896  1.00  0.00     0.277 HD
ATOM     43  H71 UNL     1     -12.683  15.055  25.098  1.00  0.00     0.277 HD
HETATM   44  C29 UNL     1     -11.995  14.974  28.341  1.00  0.00     0.095 C
ENDBRANCH  36  37
ENDBRANCH  35  36
ENDBRANCH  34  35
ENDBRANCH  12  34
TORSDOF 12
ENDMDL