MODEL 3
REMARK VINA RESULT: -8.189265874      3.513      9.847
REMARK  13 active torsions:
REMARK  status: ('A' for Active; 'I' for Inactive)
REMARK    1  A    between atoms: C2_2  and  C3_3
REMARK    2  A    between atoms: C3_3  and  C4_4
REMARK    3  A    between atoms: C4_4  and  C5_5
REMARK    4  A    between atoms: C5_5  and  O1_6
REMARK    5  A    between atoms: O1_6  and  C6_7
REMARK       I    between atoms: C6_7  and  N1_9
REMARK       I    between atoms: N2_12  and  C9_13
REMARK    6  A    between atoms: C9_13  and  C10_15
REMARK    7  A    between atoms: C10_15  and  C11_16
REMARK    8  A    between atoms: C10_15  and  N3_21
REMARK    9  A    between atoms: C11_16  and  C12_17
REMARK   10  A    between atoms: C12_17  and  C13_18
REMARK       I    between atoms: N3_21  and  C14_23
REMARK   11  A    between atoms: C14_23  and  C15_25
REMARK   12  A    between atoms: C16_28  and  C17_29
REMARK   13  A    between atoms: C21_33  and  S1_34
ROOT
HETATM    1  C10 UNL     1      -9.121  16.263  26.223  1.00  0.00     0.177 C
ENDROOT
BRANCH   1   2
HETATM    2  C9  UNL     1      -7.807  16.908  26.092  1.00  0.00     0.242 C
HETATM    3  N2  UNL     1      -7.165  17.123  24.881  1.00  0.00    -0.347 N
HETATM    4  C8  UNL     1      -7.714  16.752  23.619  1.00  0.00     0.146 C
HETATM    5  C24 UNL     1      -5.844  17.767  24.863  1.00  0.00     0.146 C
HETATM    6  C7  UNL     1      -7.223  17.774  22.567  1.00  0.00     0.148 C
HETATM    7  N1  UNL     1      -5.779  17.582  22.503  1.00  0.00    -0.325 N
HETATM    8  C6  UNL     1      -5.111  17.753  21.287  1.00  0.00     0.362 C
HETATM    9  C25 UNL     1      -5.077  17.214  23.705  1.00  0.00     0.148 C
HETATM   10  O2  UNL     1      -3.856  17.571  21.272  1.00  0.00    -0.238 OA
HETATM   11  O3  UNL     1      -7.194  17.309  27.146  1.00  0.00    -0.271 OA
BRANCH   8  12
HETATM   12  O1  UNL     1      -5.736  18.103  20.123  1.00  0.00    -0.304 OA
BRANCH  12  13
HETATM   13  C5  UNL     1      -5.669  17.383  18.931  1.00  0.00     0.180 C
BRANCH  13  14
HETATM   14  C4  UNL     1      -6.629  16.239  18.815  1.00  0.00     0.027 C
BRANCH  14  15
HETATM   15  C3  UNL     1      -8.016  16.693  19.118  1.00  0.00     0.002 C
BRANCH  15  16
HETATM   16  C2  UNL     1      -8.993  15.574  19.229  1.00  0.00    -0.004 C
HETATM   17  C1  UNL     1      -9.713  15.668  20.572  1.00  0.00     0.005 C
ENDBRANCH  15  16
ENDBRANCH  14  15
ENDBRANCH  13  14
ENDBRANCH  12  13
ENDBRANCH   8  12
ENDBRANCH   1   2
BRANCH   1  18
HETATM   18  C11 UNL     1      -9.314  15.064  25.347  1.00  0.00     0.045 C
BRANCH  18  19
HETATM   19  C12 UNL     1     -10.744  14.781  25.009  1.00  0.00     0.116 C
BRANCH  19  20
HETATM   20  C13 UNL     1     -11.309  13.633  25.716  1.00  0.00     0.172 C
HETATM   21  O4  UNL     1     -10.818  13.179  26.760  1.00  0.00    -0.648 OA
HETATM   22  O5  UNL     1     -12.446  12.996  25.226  1.00  0.00    -0.648 OA
ENDBRANCH  19  20
ENDBRANCH  18  19
ENDBRANCH   1  18
BRANCH   1  23
HETATM   23  N3  UNL     1      -9.208  15.785  27.638  1.00  0.00    -0.342 N
HETATM   24  C14 UNL     1     -10.347  16.066  28.385  1.00  0.00     0.274 C
HETATM   25  O6  UNL     1     -11.274  16.739  27.796  1.00  0.00    -0.266 OA
ATOM     26  H3  UNL     1      -8.438  15.257  28.052  1.00  0.00     0.163 HD
BRANCH  24  27
HETATM   27  C15 UNL     1     -10.631  15.700  29.744  1.00  0.00     0.169 A
HETATM   28  N4  UNL     1     -11.751  14.983  30.057  1.00  0.00    -0.348 N
HETATM   29  C16 UNL     1     -12.057  14.618  31.314  1.00  0.00     0.051 A
ATOM     30  H4  UNL     1     -12.383  14.713  29.303  1.00  0.00     0.166 HD
HETATM   31  C21 UNL     1     -11.233  14.962  32.357  1.00  0.00     0.096 A
HETATM   32  N5  UNL     1     -10.133  15.666  32.059  1.00  0.00    -0.314 N
HETATM   33  C23 UNL     1      -9.826  16.030  30.808  1.00  0.00     0.278 A
ATOM     34  H5  UNL     1      -9.504  15.935  32.815  1.00  0.00     0.170 HD
HETATM   35  O7  UNL     1      -8.750  16.702  30.632  1.00  0.00    -0.265 OA
BRANCH  29  36
HETATM   36  C17 UNL     1     -13.313  13.854  31.532  1.00  0.00    -0.006 C
HETATM   37  C18 UNL     1     -13.183  12.707  32.497  1.00  0.00     0.021 C
HETATM   38  C19 UNL     1     -14.451  14.777  31.940  1.00  0.00     0.021 C
HETATM   39  C20 UNL     1     -13.734  13.275  30.187  1.00  0.00     0.021 C
ENDBRANCH  29  36
BRANCH  31  40
HETATM   40  S1  UNL     1     -11.636  14.523  34.037  1.00  0.00    -0.115 SA
HETATM   41  C22 UNL     1     -10.331  15.108  35.179  1.00  0.00     0.097 C
ENDBRANCH  31  40
ENDBRANCH  24  27
ENDBRANCH   1  23
TORSDOF 13
ENDMDL