MODEL 5
REMARK VINA RESULT: -8.109505522      1.337      2.175
REMARK  15 active torsions:
REMARK  status: ('A' for Active; 'I' for Inactive)
REMARK    1  A    between atoms: C2_2  and  C3_3
REMARK    2  A    between atoms: C3_3  and  N1_4
REMARK    3  A    between atoms: N1_4  and  C4_6
REMARK    4  A    between atoms: C8_14  and  N4_15
REMARK    5  A    between atoms: N4_15  and  C9_17
REMARK    6  A    between atoms: C13_21  and  N5_22
REMARK    7  A    between atoms: N6_25  and  C16_26
REMARK    8  A    between atoms: C16_26  and  O1_27
REMARK    9  A    between atoms: C16_26  and  C17_29
REMARK   10  A    between atoms: C17_29  and  N7_30
REMARK   11  A    between atoms: N7_30  and  C18_32
REMARK   12  A    between atoms: C18_32  and  C19_33
REMARK   13  A    between atoms: C19_33  and  C20_34
REMARK   14  A    between atoms: C20_34  and  O2_35
REMARK   15  A    between atoms: C25_40  and  O3_41
ROOT
HETATM    1  C9  UNL     1      -8.395  14.934  26.511  1.00  0.00     0.088 A
HETATM    2  C10 UNL     1      -9.749  14.658  26.761  1.00  0.00    -0.030 A
HETATM    3  C11 UNL     1     -10.585  14.204  25.610  1.00  0.00     0.050 C
HETATM    4  C12 UNL     1     -10.274  14.802  28.027  1.00  0.00     0.038 A
HETATM    5  C13 UNL     1      -9.499  15.222  29.100  1.00  0.00     0.033 A
HETATM    6  C24 UNL     1      -8.183  15.488  28.854  1.00  0.00     0.068 A
HETATM    7  C25 UNL     1      -7.653  15.345  27.586  1.00  0.00     0.098 A
ENDROOT
BRANCH   1   8
HETATM    8  N4  UNL     1      -7.903  14.803  25.251  1.00  0.00    -0.188 N
ATOM      9  H4  UNL     1      -7.846  13.822  24.977  1.00  0.00     0.184 HD
BRANCH   8  10
HETATM   10  C8  UNL     1      -7.501  15.554  24.334  1.00  0.00     0.683 A
HETATM   11  N3  UNL     1      -6.732  16.635  24.532  1.00  0.00    -0.191 N
HETATM   12  C7  UNL     1      -6.340  17.386  23.477  1.00  0.00     0.066 A
ATOM     13  H3  UNL     1      -6.444  16.890  25.476  1.00  0.00     0.184 HD
HETATM   14  C6  UNL     1      -5.559  18.490  23.672  1.00  0.00     0.048 A
HETATM   15  C29 UNL     1      -6.733  17.037  22.189  1.00  0.00     0.058 A
HETATM   16  C5  UNL     1      -5.163  19.250  22.613  1.00  0.00     0.092 A
HETATM   17  N2  UNL     1      -5.561  18.888  21.359  1.00  0.00    -0.352 N
HETATM   18  C4  UNL     1      -6.327  17.814  21.121  1.00  0.00     0.115 A
ATOM     19  H2  UNL     1      -5.262  19.459  20.568  1.00  0.00     0.166 HD
HETATM   20  C27 UNL     1      -7.527  15.924  21.966  1.00  0.00     0.039 A
HETATM   21  N8  UNL     1      -7.870  15.238  23.070  1.00  0.00    -0.195 N
HETATM   22  C28 UNL     1      -7.982  15.491  20.620  1.00  0.00     0.070 C
ATOM     23  H8  UNL     1      -8.455  14.412  22.946  1.00  0.00     0.184 HD
BRANCH  18  24
HETATM   24  N1  UNL     1      -6.675  17.503  19.971  1.00  0.00    -0.376 N
ATOM     25  H1  UNL     1      -7.647  17.225  19.832  1.00  0.00     0.161 HD
BRANCH  24  26
HETATM   26  C3  UNL     1      -5.820  17.506  18.826  1.00  0.00     0.121 C
BRANCH  26  27
HETATM   27  C2  UNL     1      -5.076  16.184  18.703  1.00  0.00     0.015 C
HETATM   28  C1  UNL     1      -5.238  15.600  17.333  1.00  0.00     0.006 C
ENDBRANCH  26  27
ENDBRANCH  24  26
ENDBRANCH  18  24
ENDBRANCH   8  10
ENDBRANCH   1   8
BRANCH   7  29
HETATM   29  O3  UNL     1      -6.315  15.631  27.402  1.00  0.00    -0.354 OA
HETATM   30  C26 UNL     1      -5.719  16.675  28.134  1.00  0.00     0.210 C
ENDBRANCH   7  29
BRANCH   5  31
HETATM   31  N5  UNL     1     -10.085  15.388  30.362  1.00  0.00    -0.378 N
HETATM   32  C14 UNL     1      -9.490  16.186  31.433  1.00  0.00     0.143 C
HETATM   33  C15 UNL     1      -9.442  15.242  32.624  1.00  0.00     0.145 C
HETATM   34  N6  UNL     1     -10.851  15.046  33.072  1.00  0.00    -0.358 N
HETATM   35  C22 UNL     1     -11.862  15.216  32.053  1.00  0.00     0.145 C
HETATM   36  C23 UNL     1     -11.345  14.762  30.673  1.00  0.00     0.143 C
BRANCH  34  37
HETATM   37  C16 UNL     1     -11.041  14.649  34.380  1.00  0.00     0.153 C
BRANCH  37  38
HETATM   38  O1  UNL     1     -11.326  15.632  35.220  1.00  0.00    -0.345 OA
ATOM     39  H1  UNL     1     -12.230  15.922  35.199  1.00  0.00     0.219 HD
ENDBRANCH  37  38
BRANCH  37  40
HETATM   40  C17 UNL     1     -10.969  13.317  34.965  1.00  0.00     0.139 C
BRANCH  40  41
HETATM   41  N7  UNL     1     -11.366  12.181  34.259  1.00  0.00    -0.395 N
ATOM     42  H7  UNL     1     -10.718  11.730  33.613  1.00  0.00     0.159 HD
BRANCH  41  43
HETATM   43  C18 UNL     1     -12.667  11.654  34.436  1.00  0.00     0.121 C
BRANCH  43  44
HETATM   44  C19 UNL     1     -12.777  10.374  33.596  1.00  0.00     0.046 C
BRANCH  44  45
HETATM   45  C20 UNL     1     -13.481  10.724  32.312  1.00  0.00     0.168 C
BRANCH  45  46
HETATM   46  O2  UNL     1     -13.981  12.028  32.458  1.00  0.00    -0.396 OA
HETATM   47  C21 UNL     1     -14.369  12.544  31.229  1.00  0.00     0.201 C
ENDBRANCH  45  46
ENDBRANCH  44  45
ENDBRANCH  43  44
ENDBRANCH  41  43
ENDBRANCH  40  41
ENDBRANCH  37  40
ENDBRANCH  34  37
ENDBRANCH   5  31
TORSDOF 15
ENDMDL