MODEL 3
REMARK VINA RESULT: -8.979779152      2.470      4.936
REMARK  12 active torsions:
REMARK  status: ('A' for Active; 'I' for Inactive)
REMARK    1  A    between atoms: C2_2  and  C3_3
REMARK    2  A    between atoms: C3_3  and  N1_4
REMARK    3  A    between atoms: N1_4  and  C4_6
REMARK    4  A    between atoms: N3_10  and  C6_12
REMARK    5  A    between atoms: C6_12  and  C7_13
REMARK    6  A    between atoms: C7_13  and  N4_14
REMARK    7  A    between atoms: N5_17  and  C10_18
REMARK    8  A    between atoms: C10_18  and  C11_19
REMARK    9  A    between atoms: N7_32  and  C22_33
REMARK   10  A    between atoms: C22_33  and  C23_34
REMARK   11  A    between atoms: C23_34  and  N8_35
REMARK       I    between atoms: N8_35  and  C24_37
REMARK   12  A    between atoms: C24_37  and  C25_39
ROOT
HETATM    1  C4  UNL     1      -8.164  15.404  27.375  1.00  0.00     0.681 A
HETATM    2  N2  UNL     1      -8.296  15.650  26.065  1.00  0.00    -0.175 N
ATOM      3  H2  UNL     1      -7.564  16.200  25.614  1.00  0.00     0.186 HD
HETATM    4  C5  UNL     1      -9.313  15.232  25.302  1.00  0.00     0.147 A
HETATM    5  N3  UNL     1      -9.485  15.426  24.066  1.00  0.00    -0.372 N
ATOM      6  H3  UNL     1     -10.334  15.018  23.676  1.00  0.00     0.161 HD
HETATM    7  C20 UNL     1     -10.304  14.478  25.952  1.00  0.00     0.123 A
HETATM    8  N6  UNL     1     -11.438  13.889  25.537  1.00  0.00    -0.346 N
ATOM      9  H6  UNL     1     -11.787  13.915  24.579  1.00  0.00     0.167 HD
HETATM   10  C21 UNL     1     -12.052  13.257  26.560  1.00  0.00     0.185 A
HETATM   11  N7  UNL     1     -11.288  13.455  27.638  1.00  0.00    -0.325 N
HETATM   12  C29 UNL     1     -10.209  14.199  27.298  1.00  0.00     0.155 A
HETATM   13  N9  UNL     1      -9.149  14.667  27.974  1.00  0.00    -0.174 N
ATOM     14  H9  UNL     1      -9.074  14.465  28.971  1.00  0.00     0.186 HD
ENDROOT
BRANCH   5  15
HETATM   15  C6  UNL     1      -8.662  16.134  23.132  1.00  0.00     0.140 C
BRANCH  15  16
HETATM   16  C7  UNL     1      -9.352  16.155  21.800  1.00  0.00     0.137 C
BRANCH  16  17
HETATM   17  N4  UNL     1      -8.454  16.018  20.687  1.00  0.00    -0.405 N
HETATM   18  C8  UNL     1      -8.240  17.274  19.991  1.00  0.00     0.137 C
HETATM   19  C9  UNL     1      -6.925  17.809  20.590  1.00  0.00     0.146 C
HETATM   20  N5  UNL     1      -5.840  16.988  20.207  1.00  0.00    -0.370 N
HETATM   21  C18 UNL     1      -6.077  15.613  20.112  1.00  0.00     0.082 C
HETATM   22  C19 UNL     1      -7.300  15.235  20.908  1.00  0.00     0.161 C
BRANCH  20  23
HETATM   23  C10 UNL     1      -4.545  17.511  20.202  1.00  0.00     0.068 C
BRANCH  23  24
HETATM   24  C11 UNL     1      -3.726  17.170  21.428  1.00  0.00     0.024 C
HETATM   25  C12 UNL     1      -2.343  16.699  21.011  1.00  0.00     0.010 C
HETATM   26  C13 UNL     1      -1.706  15.935  22.164  1.00  0.00     0.001 C
HETATM   27  C14 UNL     1      -1.528  16.797  23.387  1.00  0.00     0.000 C
HETATM   28  C15 UNL     1      -2.840  16.885  24.110  1.00  0.00     0.000 C
HETATM   29  C16 UNL     1      -3.651  18.106  23.758  1.00  0.00     0.001 C
HETATM   30  C17 UNL     1      -3.632  18.415  22.293  1.00  0.00     0.010 C
ENDBRANCH  23  24
ENDBRANCH  20  23
ENDBRANCH  16  17
ENDBRANCH  15  16
ENDBRANCH   5  15
BRANCH   1  31
HETATM   31  N1  UNL     1      -7.162  15.822  28.074  1.00  0.00    -0.226 N
ATOM     32  H1  UNL     1      -6.859  15.212  28.833  1.00  0.00     0.177 HD
BRANCH  31  33
HETATM   33  C3  UNL     1      -6.431  17.024  27.916  1.00  0.00     0.137 C
BRANCH  33  34
HETATM   34  C2  UNL     1      -4.926  16.758  28.088  1.00  0.00     0.016 C
HETATM   35  C1  UNL     1      -4.109  17.974  27.795  1.00  0.00     0.006 C
ENDBRANCH  33  34
ENDBRANCH  31  33
ENDBRANCH   1  31
BRANCH  11  36
HETATM   36  C22 UNL     1     -11.552  12.973  28.964  1.00  0.00     0.151 C
BRANCH  36  37
HETATM   37  C23 UNL     1     -12.376  13.961  29.753  1.00  0.00     0.143 C
BRANCH  37  38
HETATM   38  N8  UNL     1     -11.868  14.212  31.068  1.00  0.00    -0.354 N
HETATM   39  C24 UNL     1     -11.012  15.319  31.278  1.00  0.00     0.275 C
HETATM   40  O1  UNL     1     -10.695  16.079  30.332  1.00  0.00    -0.265 OA
ATOM     41  H8  UNL     1     -12.119  13.600  31.844  1.00  0.00     0.162 HD
BRANCH  39  42
HETATM   42  C25 UNL     1     -10.497  15.568  32.618  1.00  0.00     0.142 A
HETATM   43  C26 UNL     1      -9.196  15.865  32.951  1.00  0.00     0.045 A
HETATM   44  C27 UNL     1      -9.173  16.020  34.307  1.00  0.00     0.027 A
HETATM   45  C28 UNL     1     -10.456  15.812  34.752  1.00  0.00     0.143 A
HETATM   46  O2  UNL     1     -11.202  15.549  33.723  1.00  0.00    -0.317 OA
ENDBRANCH  39  42
ENDBRANCH  37  38
ENDBRANCH  36  37
ENDBRANCH  11  36
TORSDOF 12
ENDMDL