MODEL 5
REMARK VINA RESULT: -8.387436277      0.609      1.990
REMARK  12 active torsions:
REMARK  status: ('A' for Active; 'I' for Inactive)
REMARK    1  A    between atoms: C2_2  and  N1_3
REMARK    2  A    between atoms: N1_3  and  C3_5
REMARK    3  A    between atoms: C4_8  and  C5_9
REMARK    4  A    between atoms: N3_12  and  C8_13
REMARK    5  A    between atoms: C8_13  and  C9_14
REMARK    6  A    between atoms: C9_14  and  C10_15
REMARK    7  A    between atoms: C10_15  and  C11_16
REMARK    8  A    between atoms: C11_16  and  C12_17
REMARK    9  A    between atoms: C12_17  and  N4_18
REMARK       I    between atoms: N4_18  and  C13_20
REMARK   10  A    between atoms: C13_20  and  C14_22
REMARK   11  A    between atoms: N5_25  and  C17_26
REMARK   12  A    between atoms: C18_27  and  C19_28
ROOT
HETATM    1  N4  UNL     1      -9.217  15.749  27.037  1.00  0.00    -0.340 N
ATOM      2  H4  UNL     1      -8.880  15.793  26.075  1.00  0.00     0.167 HD
HETATM    3  C13 UNL     1      -8.298  16.238  27.979  1.00  0.00     0.225 C
HETATM    4  O1  UNL     1      -8.608  16.246  29.193  1.00  0.00    -0.273 OA
ENDROOT
BRANCH   1   5
HETATM    5  C12 UNL     1     -10.497  15.214  27.155  1.00  0.00     0.064 C
BRANCH   5   6
HETATM    6  C11 UNL     1     -10.671  13.798  26.567  1.00  0.00     0.045 C
BRANCH   6   7
HETATM    7  C10 UNL     1     -11.954  13.920  25.785  1.00  0.00     0.010 C
BRANCH   7   8
HETATM    8  C9  UNL     1     -13.065  13.010  26.082  1.00  0.00     0.044 C
BRANCH   8   9
HETATM    9  C8  UNL     1     -14.169  13.495  26.950  1.00  0.00     0.058 C
BRANCH   9  10
HETATM   10  N3  UNL     1     -14.028  13.105  28.294  1.00  0.00    -0.393 N
HETATM   11  C7  UNL     1     -13.644  11.804  28.657  1.00  0.00     0.122 C
HETATM   12  C6  UNL     1     -12.567  11.994  29.775  1.00  0.00     0.032 C
HETATM   13  C5  UNL     1     -12.229  13.413  29.691  1.00  0.00     0.055 C
HETATM   14  C26 UNL     1     -13.579  14.022  29.262  1.00  0.00     0.132 C
BRANCH  13  15
HETATM   15  C4  UNL     1     -11.852  14.038  31.027  1.00  0.00     0.023 A
HETATM   16  N2  UNL     1     -10.748  14.756  31.098  1.00  0.00    -0.340 N
HETATM   17  C3  UNL     1     -10.431  15.294  32.269  1.00  0.00     0.144 A
ATOM     18  H2  UNL     1     -10.157  14.893  30.278  1.00  0.00     0.168 HD
HETATM   19  S1  UNL     1     -11.689  14.793  33.299  1.00  0.00    -0.064 SA
HETATM   20  C27 UNL     1     -12.592  13.897  32.166  1.00  0.00     0.078 A
BRANCH  17  21
HETATM   21  N1  UNL     1      -9.378  16.038  32.512  1.00  0.00    -0.371 N
ATOM     22  H1  UNL     1      -8.698  16.205  31.771  1.00  0.00     0.161 HD
BRANCH  21  23
HETATM   23  C2  UNL     1      -9.172  16.615  33.800  1.00  0.00     0.117 C
HETATM   24  C1  UNL     1      -8.217  15.734  34.590  1.00  0.00     0.026 C
ENDBRANCH  21  23
ENDBRANCH  17  21
ENDBRANCH  13  15
ENDBRANCH   9  10
ENDBRANCH   8   9
ENDBRANCH   7   8
ENDBRANCH   6   7
ENDBRANCH   5   6
ENDBRANCH   1   5
BRANCH   3  25
HETATM   25  C14 UNL     1      -6.943  16.749  27.519  1.00  0.00     0.081 C
HETATM   26  C15 UNL     1      -7.046  18.176  27.204  1.00  0.00     0.034 C
HETATM   27  C16 UNL     1      -6.122  18.667  26.115  1.00  0.00     0.125 C
HETATM   28  N5  UNL     1      -5.808  17.702  25.100  1.00  0.00    -0.366 N
HETATM   29  C24 UNL     1      -5.378  16.399  25.594  1.00  0.00     0.125 C
HETATM   30  C25 UNL     1      -6.467  15.839  26.452  1.00  0.00     0.034 C
BRANCH  28  31
HETATM   31  C17 UNL     1      -5.845  17.898  23.705  1.00  0.00     0.120 A
HETATM   32  C18 UNL     1      -4.772  18.297  22.943  1.00  0.00     0.054 A
HETATM   33  C21 UNL     1      -4.884  18.453  21.558  1.00  0.00     0.259 A
HETATM   34  O2  UNL     1      -3.884  18.815  20.912  1.00  0.00    -0.267 OA
HETATM   35  N6  UNL     1      -6.036  18.220  20.947  1.00  0.00    -0.275 N
HETATM   36  C22 UNL     1      -7.070  17.836  21.684  1.00  0.00     0.330 A
ATOM     37  H6  UNL     1      -6.125  18.333  19.937  1.00  0.00     0.173 HD
HETATM   38  O3  UNL     1      -8.171  17.615  21.083  1.00  0.00    -0.246 OA
HETATM   39  N7  UNL     1      -6.988  17.675  23.039  1.00  0.00    -0.289 N
HETATM   40  C23 UNL     1      -8.174  17.263  23.713  1.00  0.00     0.163 C
BRANCH  32  41
HETATM   41  C19 UNL     1      -3.467  18.596  23.588  1.00  0.00     0.044 C
HETATM   42  C20 UNL     1      -2.587  17.352  23.504  1.00  0.00     0.010 C
ENDBRANCH  32  41
ENDBRANCH  28  31
ENDBRANCH   3  25
TORSDOF 12
ENDMDL