MODEL 3
REMARK VINA RESULT: -8.956446723      0.569      1.173
REMARK  11 active torsions:
REMARK  status: ('A' for Active; 'I' for Inactive)
REMARK    1  A    between atoms: N1_3  and  C3_5
REMARK    2  A    between atoms: C3_5  and  C4_6
REMARK    3  A    between atoms: C4_6  and  N2_7
REMARK       I    between atoms: C5_9  and  N3_10
REMARK       I    between atoms: C5_9  and  N5_20
REMARK    4  A    between atoms: N3_10  and  C6_12
REMARK    5  A    between atoms: C6_12  and  C7_13
REMARK    6  A    between atoms: C7_13  and  C8_14
REMARK    7  A    between atoms: C8_14  and  N4_15
REMARK    8  A    between atoms: N4_15  and  C9_16
REMARK    9  A    between atoms: N4_15  and  C11_18
REMARK   10  A    between atoms: C14_22  and  O1_23
REMARK   11  A    between atoms: C20_29  and  N6_30
REMARK       I    between atoms: N6_30  and  C21_32
REMARK       I    between atoms: C21_32  and  N7_34
ROOT
HETATM    1  N2  UNL     1      -9.869  15.581  29.084  1.00  0.00    -0.224 N
ATOM      2  H2  UNL     1      -9.151  16.183  29.489  1.00  0.00     0.177 HD
HETATM    3  C5  UNL     1      -9.850  15.346  27.815  1.00  0.00     0.683 C
HETATM    4  N3  UNL     1     -10.841  14.519  27.257  1.00  0.00    -0.226 N
ATOM      5  H3  UNL     1     -10.635  13.522  27.187  1.00  0.00     0.177 HD
HETATM    6  N5  UNL     1      -8.839  15.895  26.995  1.00  0.00    -0.119 N
HETATM    7  C13 UNL     1      -7.852  16.712  27.662  1.00  0.00     0.156 C
HETATM    8  C14 UNL     1      -6.901  17.472  27.162  1.00  0.00     0.100 C
HETATM    9  C16 UNL     1      -6.521  17.752  25.771  1.00  0.00     0.065 A
HETATM   10  C17 UNL     1      -7.034  17.292  24.643  1.00  0.00     0.011 A
HETATM   11  C18 UNL     1      -6.316  17.863  23.513  1.00  0.00     0.033 A
HETATM   12  C19 UNL     1      -6.515  17.717  22.188  1.00  0.00     0.046 A
HETATM   13  C20 UNL     1      -7.529  16.933  21.519  1.00  0.00     0.037 A
HETATM   14  C23 UNL     1      -8.468  16.142  22.063  1.00  0.00     0.030 A
HETATM   15  C24 UNL     1      -8.749  15.834  23.447  1.00  0.00     0.020 A
HETATM   16  C25 UNL     1      -8.145  16.319  24.524  1.00  0.00     0.045 A
HETATM   17  C26 UNL     1      -8.846  15.608  25.603  1.00  0.00     0.277 C
HETATM   18  O3  UNL     1      -9.528  14.627  25.244  1.00  0.00    -0.266 OA
HETATM   19  C27 UNL     1      -5.289  18.733  24.054  1.00  0.00     0.233 A
HETATM   20  O4  UNL     1      -4.461  19.403  23.368  1.00  0.00    -0.283 OA
HETATM   21  C28 UNL     1      -5.415  18.665  25.498  1.00  0.00     0.236 A
HETATM   22  O5  UNL     1      -4.697  19.285  26.333  1.00  0.00    -0.283 OA
ENDROOT
BRANCH   1  23
HETATM   23  C4  UNL     1     -10.882  15.016  29.944  1.00  0.00     0.157 C
BRANCH  23  24
HETATM   24  C3  UNL     1     -10.783  15.540  31.329  1.00  0.00     0.139 C
BRANCH  24  25
HETATM   25  N1  UNL     1      -9.462  15.877  31.756  1.00  0.00    -0.401 N
HETATM   26  C2  UNL     1      -9.192  16.106  32.978  1.00  0.00     0.051 C
HETATM   27  C1  UNL     1     -10.146  16.064  34.093  1.00  0.00     0.054 C
ATOM     28  H1  UNL     1      -8.715  15.934  31.063  1.00  0.00     0.158 HD
ENDBRANCH  24  25
ENDBRANCH  23  24
ENDBRANCH   1  23
BRANCH   4  29
HETATM   29  C6  UNL     1     -12.134  14.970  26.771  1.00  0.00     0.140 C
BRANCH  29  30
HETATM   30  C7  UNL     1     -13.183  13.883  26.969  1.00  0.00     0.050 C
BRANCH  30  31
HETATM   31  C8  UNL     1     -13.953  14.170  28.207  1.00  0.00     0.274 C
BRANCH  31  32
HETATM   32  N4  UNL     1     -14.129  12.991  29.048  1.00  0.00     0.087 N
BRANCH  32  33
HETATM   33  C9  UNL     1     -14.051  13.275  30.429  1.00  0.00     0.268 C
HETATM   34  C10 UNL     1     -14.858  14.495  30.785  1.00  0.00     0.037 C
ENDBRANCH  32  33
BRANCH  32  35
HETATM   35  C11 UNL     1     -13.259  11.996  28.527  1.00  0.00     0.268 C
HETATM   36  C12 UNL     1     -12.496  11.193  29.542  1.00  0.00     0.037 C
ENDBRANCH  32  35
ENDBRANCH  31  32
ENDBRANCH  30  31
ENDBRANCH  29  30
ENDBRANCH   4  29
BRANCH   8  37
HETATM   37  O1  UNL     1      -6.137  18.115  28.139  1.00  0.00    -0.354 OA
HETATM   38  C15 UNL     1      -5.340  17.274  28.954  1.00  0.00     0.210 C
ENDBRANCH   8  37
BRANCH  13  39
HETATM   39  N6  UNL     1      -7.563  17.002  20.096  1.00  0.00    -0.309 N
HETATM   40  C21 UNL     1      -6.651  16.269  19.282  1.00  0.00     0.320 C
HETATM   41  O2  UNL     1      -5.800  15.546  19.850  1.00  0.00    -0.247 OA
HETATM   42  N7  UNL     1      -6.673  16.327  17.878  1.00  0.00    -0.347 N
HETATM   43  C22 UNL     1      -5.744  15.565  17.089  1.00  0.00     0.151 C
ATOM     44  H7  UNL     1      -7.359  16.920  17.411  1.00  0.00     0.163 HD
ATOM     45  H6  UNL     1      -8.262  17.595  19.647  1.00  0.00     0.170 HD
ENDBRANCH  13  39
TORSDOF 11
ENDMDL