MODEL 3
REMARK VINA RESULT: -8.963280228      1.572      4.681
REMARK  12 active torsions:
REMARK  status: ('A' for Active; 'I' for Inactive)
REMARK    1  A    between atoms: C7_8  and  C8_9
REMARK    2  A    between atoms: C11_12  and  N2_13
REMARK    3  A    between atoms: N2_13  and  C12_14
REMARK       I    between atoms: N2_13  and  C27_42
REMARK    4  A    between atoms: C12_14  and  C13_15
REMARK    5  A    between atoms: C13_15  and  N3_16
REMARK    6  A    between atoms: N3_16  and  C14_18
REMARK    7  A    between atoms: C16_20  and  N4_21
REMARK    8  A    between atoms: N7_32  and  C22_34
REMARK    9  A    between atoms: C22_34  and  C23_35
REMARK   10  A    between atoms: C23_35  and  C24_36
REMARK   11  A    between atoms: C24_36  and  N8_37
REMARK   12  A    between atoms: C27_42  and  C28_44
ROOT
HETATM    1  C1  UNL     1      -7.703  14.777  25.669  1.00  0.00     0.050 C
HETATM    2  C2  UNL     1      -7.414  15.552  24.451  1.00  0.00    -0.033 A
HETATM    3  C3  UNL     1      -7.901  15.111  23.248  1.00  0.00     0.031 A
HETATM    4  C4  UNL     1      -7.674  15.859  22.118  1.00  0.00     0.045 A
HETATM    5  C5  UNL     1      -8.158  15.457  20.816  1.00  0.00     0.099 C
HETATM    6  N1  UNL     1      -8.533  15.139  19.755  1.00  0.00    -0.191 NA
HETATM    7  C6  UNL     1      -6.966  17.026  22.235  1.00  0.00     0.032 A
HETATM    8  C7  UNL     1      -6.447  17.521  23.441  1.00  0.00    -0.025 A
HETATM    9  C11 UNL     1      -6.684  16.757  24.570  1.00  0.00     0.054 A
ENDROOT
BRANCH   8  10
HETATM   10  C8  UNL     1      -5.658  18.739  23.493  1.00  0.00     0.013 C
HETATM   11  C9  UNL     1      -6.031  19.486  22.178  1.00  0.00     0.015 C
HETATM   12  C10 UNL     1      -4.174  18.506  23.180  1.00  0.00     0.015 C
ENDBRANCH   8  10
BRANCH   9  13
HETATM   13  N2  UNL     1      -6.317  17.161  25.874  1.00  0.00    -0.290 N
HETATM   14  C27 UNL     1      -5.041  16.793  26.401  1.00  0.00     0.232 C
HETATM   15  O1  UNL     1      -4.296  16.209  25.523  1.00  0.00    -0.272 OA
BRANCH  13  16
HETATM   16  C12 UNL     1      -7.035  18.024  26.715  1.00  0.00     0.117 C
BRANCH  16  17
HETATM   17  C13 UNL     1      -8.447  17.946  27.049  1.00  0.00     0.107 C
BRANCH  17  18
HETATM   18  N3  UNL     1      -8.950  17.671  28.305  1.00  0.00    -0.350 N
ATOM     19  H3  UNL     1      -9.045  18.502  28.889  1.00  0.00     0.166 HD
BRANCH  18  20
HETATM   20  C14 UNL     1      -9.319  16.607  28.890  1.00  0.00     0.124 A
HETATM   21  C15 UNL     1      -9.195  16.454  30.278  1.00  0.00     0.098 A
HETATM   22  C16 UNL     1      -9.579  15.324  30.936  1.00  0.00     0.122 A
HETATM   23  N6  UNL     1     -10.090  14.328  30.228  1.00  0.00    -0.177 N
HETATM   24  C21 UNL     1     -10.227  14.438  28.877  1.00  0.00     0.681 A
ATOM     25  H6  UNL     1     -10.384  13.471  30.698  1.00  0.00     0.185 HD
HETATM   26  N7  UNL     1     -10.726  13.435  28.253  1.00  0.00    -0.226 N
HETATM   27  N9  UNL     1      -9.841  15.576  28.223  1.00  0.00    -0.177 N
ATOM     28  H7  UNL     1     -11.001  12.599  28.770  1.00  0.00     0.177 HD
ATOM     29  H9  UNL     1      -9.952  15.637  27.211  1.00  0.00     0.186 HD
BRANCH  22  30
HETATM   30  N4  UNL     1      -9.427  15.238  32.351  1.00  0.00    -0.364 N
HETATM   31  C17 UNL     1      -9.312  16.478  33.135  1.00  0.00     0.152 C
HETATM   32  C18 UNL     1      -9.581  16.134  34.591  1.00  0.00     0.252 C
HETATM   33  N5  UNL     1     -10.770  15.301  34.668  1.00  0.00    -0.072 N
HETATM   34  C19 UNL     1     -10.568  14.007  34.064  1.00  0.00     0.252 C
ATOM     35  H52 UNL     1     -11.097  15.213  35.630  1.00  0.00     0.277 HD
ATOM     36  H51 UNL     1     -11.579  15.774  34.266  1.00  0.00     0.277 HD
HETATM   37  C20 UNL     1      -9.368  14.031  33.108  1.00  0.00     0.152 C
ENDBRANCH  22  30
BRANCH  26  38
HETATM   38  C22 UNL     1     -10.899  13.485  26.825  1.00  0.00     0.140 C
BRANCH  38  39
HETATM   39  C23 UNL     1     -12.259  12.932  26.412  1.00  0.00     0.050 C
BRANCH  39  40
HETATM   40  C24 UNL     1     -13.297  13.935  26.833  1.00  0.00     0.273 C
BRANCH  40  41
HETATM   41  N8  UNL     1     -14.231  13.371  27.793  1.00  0.00     0.080 N
HETATM   42  C25 UNL     1     -13.972  11.948  27.994  1.00  0.00     0.309 C
HETATM   43  C26 UNL     1     -14.118  14.070  29.063  1.00  0.00     0.309 C
ENDBRANCH  40  41
ENDBRANCH  39  40
ENDBRANCH  38  39
ENDBRANCH  26  38
ENDBRANCH  18  20
ENDBRANCH  17  18
ENDBRANCH  16  17
ENDBRANCH  13  16
BRANCH  14  44
HETATM   44  C28 UNL     1      -4.448  16.942  27.695  1.00  0.00     0.070 C
HETATM   45  C29 UNL     1      -5.561  16.748  28.757  1.00  0.00     0.019 C
HETATM   46  C30 UNL     1      -3.917  18.315  28.032  1.00  0.00     0.019 C
ENDBRANCH  14  44
ENDBRANCH   9  13
TORSDOF 12
ENDMDL