MODEL 5
REMARK VINA RESULT: -8.048791389      3.941      8.217
REMARK  15 active torsions:
REMARK  status: ('A' for Active; 'I' for Inactive)
REMARK    1  A    between atoms: C2_2  and  C3_3
REMARK    2  A    between atoms: C3_3  and  N1_4
REMARK    3  A    between atoms: C7_12  and  N4_13
REMARK    4  A    between atoms: N4_13  and  C8_15
REMARK    5  A    between atoms: C14_21  and  N5_22
REMARK    6  A    between atoms: N5_22  and  C15_24
REMARK    7  A    between atoms: C15_24  and  N6_26
REMARK    8  A    between atoms: N6_26  and  C16_28
REMARK    9  A    between atoms: C16_28  and  C17_29
REMARK   10  A    between atoms: C17_29  and  C18_30
REMARK   11  A    between atoms: C18_30  and  C19_31
REMARK   12  A    between atoms: C19_31  and  N7_32
REMARK   13  A    between atoms: C22_35  and  C23_36
REMARK   14  A    between atoms: C23_36  and  O2_38
REMARK   15  A    between atoms: O2_38  and  C24_39
ROOT
HETATM    1  C8  UNL     1      -5.790  17.557  25.307  1.00  0.00     0.110 C
HETATM    2  C9  UNL     1      -4.622  17.697  26.278  1.00  0.00     0.011 C
HETATM    3  C10 UNL     1      -4.932  18.811  27.216  1.00  0.00     0.007 C
HETATM    4  C11 UNL     1      -6.067  18.264  28.059  1.00  0.00     0.007 C
HETATM    5  C12 UNL     1      -6.335  16.878  27.514  1.00  0.00     0.011 C
HETATM    6  C13 UNL     1      -4.897  16.475  27.147  1.00  0.00     0.013 C
HETATM    7  C14 UNL     1      -6.955  17.024  26.172  1.00  0.00     0.111 C
ENDROOT
BRANCH   7   8
HETATM    8  N5  UNL     1      -8.054  17.947  26.133  1.00  0.00    -0.360 N
ATOM      9  H5  UNL     1      -7.876  18.945  26.016  1.00  0.00     0.162 HD
BRANCH   8  10
HETATM   10  C15 UNL     1      -9.379  17.477  26.257  1.00  0.00     0.168 C
HETATM   11  S1  UNL     1     -10.075  17.385  27.726  1.00  0.00    -0.041 SA
BRANCH  10  12
HETATM   12  N6  UNL     1     -10.124  17.068  25.098  1.00  0.00    -0.367 N
ATOM     13  H6  UNL     1     -10.878  17.655  24.741  1.00  0.00     0.161 HD
BRANCH  12  14
HETATM   14  C16 UNL     1      -9.804  15.833  24.444  1.00  0.00     0.122 C
BRANCH  14  15
HETATM   15  C17 UNL     1     -10.017  14.668  25.376  1.00  0.00     0.021 C
BRANCH  15  16
HETATM   16  C18 UNL     1     -11.516  14.495  25.605  1.00  0.00     0.032 C
BRANCH  16  17
HETATM   17  C19 UNL     1     -11.741  13.137  26.227  1.00  0.00     0.272 C
BRANCH  17  18
HETATM   18  N7  UNL     1     -12.340  13.230  27.523  1.00  0.00     0.088 N
HETATM   19  C20 UNL     1     -11.408  13.217  28.607  1.00  0.00     0.273 C
HETATM   20  C21 UNL     1     -12.215  12.914  29.870  1.00  0.00     0.045 C
HETATM   21  C22 UNL     1     -13.212  14.017  30.057  1.00  0.00     0.089 C
HETATM   22  C26 UNL     1     -14.114  14.227  28.874  1.00  0.00     0.045 C
HETATM   23  C27 UNL     1     -13.321  14.254  27.571  1.00  0.00     0.273 C
BRANCH  21  24
HETATM   24  C23 UNL     1     -14.097  13.622  31.200  1.00  0.00     0.263 C
HETATM   25  O1  UNL     1     -14.893  12.640  31.127  1.00  0.00    -0.265 OA
BRANCH  24  26
HETATM   26  O2  UNL     1     -14.079  14.324  32.398  1.00  0.00    -0.322 OA
BRANCH  26  27
HETATM   27  C24 UNL     1     -12.910  14.567  33.146  1.00  0.00     0.174 C
HETATM   28  C25 UNL     1     -12.251  13.338  33.684  1.00  0.00     0.034 C
ENDBRANCH  26  27
ENDBRANCH  24  26
ENDBRANCH  21  24
ENDBRANCH  17  18
ENDBRANCH  16  17
ENDBRANCH  15  16
ENDBRANCH  14  15
ENDBRANCH  12  14
ENDBRANCH  10  12
ENDBRANCH   8  10
ENDBRANCH   7   8
BRANCH   1  29
HETATM   29  N4  UNL     1      -5.512  16.691  24.240  1.00  0.00    -0.368 N
ATOM     30  H4  UNL     1      -5.302  15.726  24.493  1.00  0.00     0.161 HD
BRANCH  29  31
HETATM   31  C7  UNL     1      -5.490  16.953  23.012  1.00  0.00     0.118 A
HETATM   32  C6  UNL     1      -4.363  17.311  22.334  1.00  0.00     0.136 A
HETATM   33  N3  UNL     1      -4.393  17.580  20.988  1.00  0.00    -0.358 N
HETATM   34  C5  UNL     1      -5.541  17.495  20.309  1.00  0.00     0.095 A
ATOM     35  H3  UNL     1      -3.535  17.845  20.505  1.00  0.00     0.165 HD
HETATM   36  C4  UNL     1      -5.886  17.698  18.983  1.00  0.00     0.140 A
HETATM   37  C28 UNL     1      -6.699  17.136  20.959  1.00  0.00     0.152 A
HETATM   38  N2  UNL     1      -7.208  17.466  18.862  1.00  0.00    -0.305 N
HETATM   39  N1  UNL     1      -7.708  17.129  20.037  1.00  0.00    -0.272 N
ATOM     40  H2  UNL     1      -7.741  17.539  17.995  1.00  0.00     0.186 HD
HETATM   41  N8  UNL     1      -6.643  16.881  22.268  1.00  0.00    -0.325 N
ATOM     42  H8  UNL     1      -7.506  16.616  22.744  1.00  0.00     0.169 HD
BRANCH  39  43
HETATM   43  C3  UNL     1      -9.069  16.792  20.399  1.00  0.00     0.177 C
BRANCH  43  44
HETATM   44  C2  UNL     1      -9.431  15.401  20.128  1.00  0.00    -0.015 C
HETATM   45  C1  UNL     1      -9.745  15.011  18.906  1.00  0.00     0.008 C
ENDBRANCH  43  44
ENDBRANCH  39  43
ENDBRANCH  29  31
ENDBRANCH   1  29
TORSDOF 15
ENDMDL