MODEL 3
REMARK VINA RESULT: -8.075105962      5.156     11.487
REMARK  10 active torsions:
REMARK  status: ('A' for Active; 'I' for Inactive)
REMARK       I    between atoms: C3_3  and  N1_5
REMARK    1  A    between atoms: C4_7  and  C5_8
REMARK    2  A    between atoms: C5_8  and  C6_9
REMARK    3  A    between atoms: C5_8  and  C23_38
REMARK    4  A    between atoms: C6_9  and  C7_10
REMARK    5  A    between atoms: C8_11  and  C9_12
REMARK    6  A    between atoms: C12_15  and  C13_16
REMARK    7  A    between atoms: C13_16  and  N2_17
REMARK    8  A    between atoms: C20_29  and  N6_30
REMARK    9  A    between atoms: C23_38  and  C24_39
REMARK   10  A    between atoms: C24_39  and  O4_40
ROOT
HETATM    1  C1  UNL     1      29.042   7.706  25.800  1.00  0.00     0.022 C
HETATM    2  C2  UNL     1      30.072   7.996  26.325  1.00  0.00    -0.016 C
HETATM    3  C3  UNL     1      31.312   8.350  26.941  1.00  0.00     0.299 C
HETATM    4  O1  UNL     1      31.463   9.518  27.378  1.00  0.00    -0.258 OA
HETATM    5  N1  UNL     1      32.388   7.438  27.086  1.00  0.00    -0.330 N
ATOM      6  H1  UNL     1      33.335   7.804  26.994  1.00  0.00     0.168 HD
HETATM    7  C4  UNL     1      32.255   6.200  27.322  1.00  0.00     0.070 C
ENDROOT
BRANCH   7   8
HETATM    8  C5  UNL     1      33.486   5.343  27.452  1.00  0.00     0.029 C
BRANCH   8   9
HETATM    9  C6  UNL     1      33.312   4.090  26.721  1.00  0.00     0.037 C
BRANCH   9  10
HETATM   10  C7  UNL     1      32.029   3.773  26.100  1.00  0.00    -0.025 C
HETATM   11  C8  UNL     1      31.784   3.438  24.866  1.00  0.00     0.007 C
BRANCH  11  12
HETATM   12  C9  UNL     1      30.466   3.140  24.343  1.00  0.00    -0.036 A
HETATM   13  C10 UNL     1      29.314   3.403  25.106  1.00  0.00     0.012 A
HETATM   14  C11 UNL     1      28.046   3.138  24.657  1.00  0.00     0.009 A
HETATM   15  C12 UNL     1      27.919   2.587  23.390  1.00  0.00    -0.040 A
HETATM   16  C21 UNL     1      29.015   2.324  22.634  1.00  0.00     0.009 A
HETATM   17  C22 UNL     1      30.298   2.599  23.105  1.00  0.00     0.012 A
BRANCH  15  18
HETATM   18  C13 UNL     1      26.538   2.273  22.857  1.00  0.00     0.170 C
BRANCH  18  19
HETATM   19  N2  UNL     1      26.141   3.328  21.969  1.00  0.00    -0.322 N
HETATM   20  C14 UNL     1      26.607   4.617  22.083  1.00  0.00     0.186 A
HETATM   21  N3  UNL     1      26.173   5.344  21.065  1.00  0.00    -0.334 N
HETATM   22  C15 UNL     1      25.435   4.568  20.290  1.00  0.00     0.175 A
ATOM     23  H3  UNL     1      26.373   6.332  20.907  1.00  0.00     0.168 HD
HETATM   24  C16 UNL     1      25.409   3.289  20.857  1.00  0.00     0.157 A
HETATM   25  N8  UNL     1      24.789   4.900  19.163  1.00  0.00    -0.215 N
HETATM   26  N4  UNL     1      24.675   2.370  20.211  1.00  0.00    -0.341 N
HETATM   27  C17 UNL     1      24.515   1.051  20.776  1.00  0.00     0.157 C
HETATM   28  C18 UNL     1      24.011   2.696  19.060  1.00  0.00     0.142 A
HETATM   29  C19 UNL     1      24.065   3.967  18.528  1.00  0.00     0.147 A
HETATM   30  N5  UNL     1      23.517   4.534  17.435  1.00  0.00    -0.305 N
HETATM   31  C20 UNL     1      23.897   5.821  17.384  1.00  0.00     0.267 A
ATOM     32  H5  UNL     1      22.914   4.063  16.760  1.00  0.00     0.170 HD
HETATM   33  N7  UNL     1      24.678   6.027  18.456  1.00  0.00    -0.256 N
ATOM     34  H7  UNL     1      25.122   6.913  18.695  1.00  0.00     0.191 HD
BRANCH  31  35
HETATM   35  N6  UNL     1      23.555   6.667  16.466  1.00  0.00    -0.078 N
HETATM   36  O2  UNL     1      23.501   6.275  15.152  1.00  0.00    -0.529 OA
HETATM   37  O3  UNL     1      23.248   7.956  16.800  1.00  0.00    -0.529 OA
ENDBRANCH  31  35
ENDBRANCH  18  19
ENDBRANCH  15  18
ENDBRANCH  11  12
ENDBRANCH   9  10
ENDBRANCH   8   9
BRANCH   8  38
HETATM   38  C23 UNL     1      34.724   6.135  27.302  1.00  0.00     0.036 C
BRANCH  38  39
HETATM   39  C24 UNL     1      35.885   5.328  26.852  1.00  0.00     0.165 C
BRANCH  39  40
HETATM   40  O4  UNL     1      37.037   6.015  26.556  1.00  0.00    -0.401 OA
ATOM     41  H4  UNL     1      37.777   5.499  26.259  1.00  0.00     0.209 HD
ENDBRANCH  39  40
ENDBRANCH  38  39
ENDBRANCH   8  38
ENDBRANCH   7   8
TORSDOF 10
ENDMDL