MODEL 4
REMARK VINA RESULT: -6.449556683      3.757      6.662
REMARK  11 active torsions:
REMARK  status: ('A' for Active; 'I' for Inactive)
REMARK    1  A    between atoms: C3_3  and  C4_4
REMARK    2  A    between atoms: C5_5  and  C6_6
REMARK    3  A    between atoms: C6_6  and  N1_7
REMARK    4  A    between atoms: N1_7  and  C9_10
REMARK    5  A    between atoms: C9_10  and  C10_11
REMARK    6  A    between atoms: C10_11  and  C11_12
REMARK    7  A    between atoms: C10_11  and  N2_16
REMARK    8  A    between atoms: C11_12  and  C12_13
REMARK       I    between atoms: N2_16  and  C15_18
REMARK    9  A    between atoms: C15_18  and  C16_20
REMARK   10  A    between atoms: C18_25  and  C19_26
REMARK   11  A    between atoms: C22_31  and  O3_32
ROOT
HETATM    1  C1  UNL     1      24.379   5.329  16.769  1.00  0.00     0.113 C
HETATM    2  C2  UNL     1      24.405   5.335  18.231  1.00  0.00    -0.097 C
HETATM    3  C3  UNL     1      24.411   5.325  19.441  1.00  0.00    -0.015 C
ENDROOT
BRANCH   3   4
HETATM    4  C4  UNL     1      24.411   5.290  20.857  1.00  0.00    -0.013 C
HETATM    5  C5  UNL     1      24.410   5.282  22.066  1.00  0.00    -0.065 C
BRANCH   5   6
HETATM    6  C6  UNL     1      24.415   5.299  23.519  1.00  0.00     0.330 C
BRANCH   6   7
HETATM    7  N1  UNL     1      25.841   5.094  23.962  1.00  0.00    -0.063 N
HETATM    8  C7  UNL     1      25.884   5.305  25.373  1.00  0.00     0.273 C
HETATM    9  C8  UNL     1      26.549   6.164  23.266  1.00  0.00     0.273 C
BRANCH   7  10
HETATM   10  C9  UNL     1      26.177   3.827  23.460  1.00  0.00     0.262 C
BRANCH  10  11
HETATM   11  C10 UNL     1      27.554   3.602  22.866  1.00  0.00     0.111 C
BRANCH  11  12
HETATM   12  C11 UNL     1      27.438   2.804  21.625  1.00  0.00     0.030 C
BRANCH  12  13
HETATM   13  C12 UNL     1      26.194   2.006  21.403  1.00  0.00    -0.021 C
HETATM   14  C13 UNL     1      26.557   0.552  21.846  1.00  0.00     0.009 C
HETATM   15  C14 UNL     1      25.892   1.903  19.918  1.00  0.00     0.009 C
ENDBRANCH  12  13
ENDBRANCH  11  12
BRANCH  11  16
HETATM   16  N2  UNL     1      28.346   2.959  23.885  1.00  0.00    -0.353 N
HETATM   17  C15 UNL     1      29.251   3.766  24.639  1.00  0.00     0.250 C
HETATM   18  O1  UNL     1      29.347   5.014  24.411  1.00  0.00    -0.271 OA
ATOM     19  H2  UNL     1      28.262   1.958  24.062  1.00  0.00     0.163 HD
BRANCH  17  20
HETATM   20  C16 UNL     1      30.110   3.206  25.707  1.00  0.00     0.269 C
HETATM   21  N3  UNL     1      30.564   4.282  26.539  1.00  0.00    -0.338 N
HETATM   22  C17 UNL     1      31.876   4.719  26.728  1.00  0.00     0.241 C
ATOM     23  H3  UNL     1      29.843   4.788  27.052  1.00  0.00     0.163 HD
HETATM   24  O2  UNL     1      31.983   5.967  27.030  1.00  0.00    -0.271 OA
HETATM   25  C18 UNL     1      33.100   3.952  26.627  1.00  0.00     0.179 C
HETATM   26  N4  UNL     1      33.146   2.643  27.195  1.00  0.00    -0.359 N
HETATM   27  C22 UNL     1      32.217   1.633  27.354  1.00  0.00     0.135 C
ATOM     28  H4  UNL     1      34.065   2.401  27.564  1.00  0.00     0.162 HD
HETATM   29  C23 UNL     1      31.010   1.524  28.212  1.00  0.00     0.155 C
HETATM   30  C24 UNL     1      30.914   2.529  29.312  1.00  0.00     0.041 C
HETATM   31  N5  UNL     1      29.792   1.350  27.447  1.00  0.00    -0.347 N
HETATM   32  C25 UNL     1      29.252   2.314  26.552  1.00  0.00     0.250 C
ATOM     33  H5  UNL     1      29.285   0.472  27.559  1.00  0.00     0.163 HD
HETATM   34  O4  UNL     1      27.989   2.439  26.451  1.00  0.00    -0.271 OA
BRANCH  25  35
HETATM   35  C19 UNL     1      34.281   4.765  27.185  1.00  0.00     0.009 C
HETATM   36  C20 UNL     1      35.490   4.612  26.281  1.00  0.00     0.012 C
HETATM   37  C21 UNL     1      34.699   4.341  28.548  1.00  0.00     0.012 C
ENDBRANCH  25  35
BRANCH  27  38
HETATM   38  O3  UNL     1      32.383   0.554  26.647  1.00  0.00    -0.348 OA
ATOM     39  H3  UNL     1      32.993   0.598  25.921  1.00  0.00     0.219 HD
ENDBRANCH  27  38
ENDBRANCH  17  20
ENDBRANCH  11  16
ENDBRANCH  10  11
ENDBRANCH   7  10
ENDBRANCH   6   7
ENDBRANCH   5   6
ENDBRANCH   3   4
TORSDOF 11
ENDMDL