MODEL 1
REMARK VINA RESULT: -8.895566727      0.000      0.000
REMARK  11 active torsions:
REMARK  status: ('A' for Active; 'I' for Inactive)
REMARK    1  A    between atoms: C4_5  and  N2_6
REMARK    2  A    between atoms: N2_6  and  C5_8
REMARK    3  A    between atoms: C5_8  and  C6_9
REMARK    4  A    between atoms: N3_12  and  C9_13
REMARK    5  A    between atoms: C9_13  and  O1_14
REMARK    6  A    between atoms: O1_14  and  C10_15
REMARK    7  A    between atoms: C10_15  and  N4_16
REMARK    8  A    between atoms: C13_19  and  C14_20
REMARK    9  A    between atoms: C14_20  and  N5_21
REMARK   10  A    between atoms: C16_25  and  N7_26
REMARK   11  A    between atoms: N9_32  and  O2_33
ROOT
HETATM    1  C9  UNL     1      25.806   3.191  22.311  1.00  0.00     0.299 C
ENDROOT
BRANCH   1   2
HETATM    2  N3  UNL     1      27.249   2.915  22.391  1.00  0.00    -0.345 N
HETATM    3  C8  UNL     1      28.124   3.877  22.139  1.00  0.00     0.093 A
HETATM    4  C7  UNL     1      29.485   3.667  22.211  1.00  0.00     0.026 A
HETATM    5  C6  UNL     1      29.932   2.389  22.564  1.00  0.00    -0.038 A
HETATM    6  C19 UNL     1      29.009   1.407  22.822  1.00  0.00     0.026 A
HETATM    7  C18 UNL     1      27.679   1.689  22.730  1.00  0.00     0.093 A
BRANCH   5   8
HETATM    8  C5  UNL     1      31.377   2.102  22.668  1.00  0.00     0.158 C
BRANCH   8   9
HETATM    9  N2  UNL     1      31.865   2.698  23.925  1.00  0.00    -0.385 N
ATOM     10  H2  UNL     1      32.578   3.426  23.896  1.00  0.00     0.160 HD
BRANCH   9  11
HETATM   11  C4  UNL     1      31.354   2.269  25.169  1.00  0.00     0.042 A
HETATM   12  C3  UNL     1      31.499   0.966  25.582  1.00  0.00     0.047 A
HETATM   13  C2  UNL     1      31.021   0.555  26.800  1.00  0.00     0.093 A
HETATM   14  N1  UNL     1      30.393   1.398  27.642  1.00  0.00    -0.360 N
HETATM   15  C1  UNL     1      29.905   0.921  28.918  1.00  0.00     0.155 C
HETATM   16  C25 UNL     1      30.254   2.660  27.240  1.00  0.00     0.046 A
HETATM   17  C20 UNL     1      30.718   3.146  26.010  1.00  0.00     0.017 A
HETATM   18  C24 UNL     1      29.614   3.546  28.077  1.00  0.00     0.030 A
HETATM   19  C21 UNL     1      30.511   4.475  25.704  1.00  0.00     0.016 A
HETATM   20  C22 UNL     1      29.861   5.352  26.567  1.00  0.00     0.001 A
HETATM   21  C23 UNL     1      29.413   4.868  27.763  1.00  0.00     0.002 A
ENDBRANCH   9  11
ENDBRANCH   8   9
ENDBRANCH   5   8
ENDBRANCH   1   2
BRANCH   1  22
HETATM   22  O1  UNL     1      25.116   2.593  21.428  1.00  0.00    -0.351 OA
BRANCH  22  23
HETATM   23  C10 UNL     1      24.933   2.370  20.181  1.00  0.00     0.320 C
BRANCH  23  24
HETATM   24  N4  UNL     1      24.426   3.458  19.321  1.00  0.00    -0.254 N
HETATM   25  C11 UNL     1      25.078   4.658  19.428  1.00  0.00     0.116 A
HETATM   26  C12 UNL     1      24.688   5.707  18.642  1.00  0.00     0.029 A
HETATM   27  C13 UNL     1      23.642   5.538  17.752  1.00  0.00    -0.018 A
HETATM   28  C17 UNL     1      23.005   4.328  17.663  1.00  0.00     0.152 A
HETATM   29  N9  UNL     1      23.443   3.321  18.474  1.00  0.00    -0.171 N
BRANCH  27  30
HETATM   30  C14 UNL     1      23.184   6.645  16.882  1.00  0.00     0.190 C
BRANCH  30  31
HETATM   31  N5  UNL     1      24.248   7.092  16.011  1.00  0.00    -0.269 N
HETATM   32  C15 UNL     1      24.773   8.328  15.967  1.00  0.00     0.218 A
HETATM   33  N6  UNL     1      25.751   8.363  15.024  1.00  0.00    -0.185 N
HETATM   34  C16 UNL     1      25.814   7.119  14.489  1.00  0.00     0.691 A
ATOM     35  H6  UNL     1      26.324   9.167  14.770  1.00  0.00     0.185 HD
HETATM   36  N8  UNL     1      24.891   6.392  15.117  1.00  0.00    -0.129 N
ATOM     37  H8  UNL     1      24.709   5.407  14.923  1.00  0.00     0.206 HD
BRANCH  34  38
HETATM   38  N7  UNL     1      26.598   6.706  13.567  1.00  0.00    -0.233 N
ATOM     39  H72 UNL     1      27.321   7.255  13.103  1.00  0.00     0.174 HD
ATOM     40  H71 UNL     1      26.630   5.776  13.149  1.00  0.00     0.174 HD
ENDBRANCH  34  38
ENDBRANCH  30  31
ENDBRANCH  27  30
BRANCH  29  41
HETATM   41  O2  UNL     1      22.832   2.070  18.358  1.00  0.00    -0.268 OA
ATOM     42  H2  UNL     1      22.460   1.673  19.137  1.00  0.00     0.247 HD
ENDBRANCH  29  41
ENDBRANCH  23  24
ENDBRANCH  22  23
ENDBRANCH   1  22
TORSDOF 11
ENDMDL