MODEL 3
REMARK VINA RESULT: -7.215641519      3.101      5.856
REMARK  14 active torsions:
REMARK  status: ('A' for Active; 'I' for Inactive)
REMARK    1  A    between atoms: C2_2  and  S1_3
REMARK    2  A    between atoms: S1_3  and  C4_5
REMARK    3  A    between atoms: S1_3  and  C5_8
REMARK    4  A    between atoms: C4_5  and  O1_6
REMARK    5  A    between atoms: N1_11  and  C8_12
REMARK    6  A    between atoms: C8_12  and  C9_13
REMARK    7  A    between atoms: C9_13  and  N2_14
REMARK    8  A    between atoms: N3_17  and  C12_18
REMARK    9  A    between atoms: C12_18  and  C13_19
REMARK   10  A    between atoms: C13_19  and  C14_20
REMARK   11  A    between atoms: C14_20  and  C15_21
REMARK   12  A    between atoms: C15_21  and  N4_22
REMARK   13  A    between atoms: C17_24  and  N5_25
REMARK   14  A    between atoms: N5_25  and  C18_27
ROOT
HETATM    1  N2  UNL     1      24.092   7.757  24.203  1.00  0.00    -0.350 N
HETATM    2  C10 UNL     1      23.386   8.749  24.724  1.00  0.00     0.109 A
HETATM    3  C11 UNL     1      22.258   8.953  23.960  1.00  0.00     0.110 A
HETATM    4  N3  UNL     1      22.285   8.063  22.957  1.00  0.00    -0.341 N
HETATM    5  C22 UNL     1      23.396   7.341  23.106  1.00  0.00     0.185 A
ENDROOT
BRANCH   4   6
HETATM    6  C12 UNL     1      21.320   7.862  21.870  1.00  0.00     0.223 C
BRANCH   6   7
HETATM    7  C13 UNL     1      22.133   7.641  20.651  1.00  0.00    -0.085 C
BRANCH   7   8
HETATM    8  C14 UNL     1      22.790   7.437  19.664  1.00  0.00    -0.083 C
BRANCH   8   9
HETATM    9  C15 UNL     1      23.566   7.174  18.456  1.00  0.00     0.242 C
BRANCH   9  10
HETATM   10  N4  UNL     1      23.804   5.769  18.233  1.00  0.00    -0.275 N
HETATM   11  C16 UNL     1      23.915   4.850  19.206  1.00  0.00     0.160 A
HETATM   12  C17 UNL     1      24.151   3.516  18.938  1.00  0.00     0.134 A
HETATM   13  N6  UNL     1      24.269   3.154  17.647  1.00  0.00    -0.175 N
HETATM   14  C21 UNL     1      24.159   4.064  16.672  1.00  0.00     0.692 A
ATOM     15  H6  UNL     1      24.444   2.177  17.410  1.00  0.00     0.186 HD
HETATM   16  N7  UNL     1      24.273   3.709  15.439  1.00  0.00    -0.233 N
HETATM   17  N8  UNL     1      23.930   5.342  16.990  1.00  0.00    -0.130 N
ATOM     18  H72 UNL     1      24.447   2.733  15.196  1.00  0.00     0.174 HD
ATOM     19  H71 UNL     1      24.189   4.403  14.695  1.00  0.00     0.174 HD
ATOM     20  H8  UNL     1      23.849   6.021  16.234  1.00  0.00     0.206 HD
BRANCH  12  21
HETATM   21  N5  UNL     1      24.267   2.601  19.826  1.00  0.00    -0.371 N
ATOM     22  H5  UNL     1      23.436   2.038  20.010  1.00  0.00     0.161 HD
BRANCH  21  23
HETATM   23  C18 UNL     1      25.431   2.280  20.588  1.00  0.00     0.075 C
HETATM   24  C19 UNL     1      25.474   0.856  21.092  1.00  0.00     0.031 C
HETATM   25  C20 UNL     1      25.626   3.264  21.731  1.00  0.00     0.031 C
ENDBRANCH  21  23
ENDBRANCH  12  21
ENDBRANCH   9  10
ENDBRANCH   8   9
ENDBRANCH   7   8
ENDBRANCH   6   7
ENDBRANCH   4   6
BRANCH   1  26
HETATM   26  C9  UNL     1      25.349   7.168  24.639  1.00  0.00     0.149 C
BRANCH  26  27
HETATM   27  C8  UNL     1      26.487   7.483  23.722  1.00  0.00     0.148 C
BRANCH  27  28
HETATM   28  N1  UNL     1      27.513   6.487  23.655  1.00  0.00    -0.365 N
HETATM   29  C7  UNL     1      28.226   6.244  22.527  1.00  0.00     0.091 A
HETATM   30  C6  UNL     1      29.212   5.285  22.471  1.00  0.00     0.034 A
HETATM   31  C5  UNL     1      29.524   4.509  23.592  1.00  0.00    -0.013 A
HETATM   32  C24 UNL     1      28.794   4.762  24.732  1.00  0.00     0.034 A
HETATM   33  C23 UNL     1      27.800   5.750  24.740  1.00  0.00     0.091 A
BRANCH  31  34
HETATM   34  S1  UNL     1      30.795   3.300  23.459  1.00  0.00    -0.208 SA
HETATM   35  C3  UNL     1      31.750   3.309  25.007  1.00  0.00     0.075 C
BRANCH  34  36
HETATM   36  C2  UNL     1      30.117   1.645  23.251  1.00  0.00     0.056 C
HETATM   37  C1  UNL     1      28.691   1.682  22.777  1.00  0.00     0.015 C
ENDBRANCH  34  36
BRANCH  34  38
HETATM   38  C4  UNL     1      31.920   3.618  22.101  1.00  0.00     0.223 C
BRANCH  38  39
HETATM   39  O1  UNL     1      31.542   2.827  21.028  1.00  0.00    -0.392 OA
ATOM     40  H1  UNL     1      32.290   2.732  20.449  1.00  0.00     0.210 HD
ENDBRANCH  38  39
ENDBRANCH  34  38
ENDBRANCH  31  34
ENDBRANCH  27  28
ENDBRANCH  26  27
ENDBRANCH   1  26
TORSDOF 14
ENDMDL