MODEL 1
REMARK VINA RESULT: -7.797592223      0.000      0.000
REMARK  11 active torsions:
REMARK  status: ('A' for Active; 'I' for Inactive)
REMARK    1  A    between atoms: N1_2  and  C2_4
REMARK    2  A    between atoms: C3_7  and  C4_8
REMARK    3  A    between atoms: C4_8  and  N3_9
REMARK    4  A    between atoms: N4_12  and  C7_13
REMARK    5  A    between atoms: C7_13  and  C8_14
REMARK    6  A    between atoms: C8_14  and  N5_15
REMARK    7  A    between atoms: N5_15  and  C9_16
REMARK    8  A    between atoms: C9_16  and  C10_17
REMARK       I    between atoms: C10_17  and  N6_19
REMARK    9  A    between atoms: N6_19  and  C11_21
REMARK   10  A    between atoms: C14_24  and  C16_26
REMARK   11  A    between atoms: C16_26  and  O2_27
ROOT
HETATM    1  C7  UNL     1      27.064   3.324  22.862  1.00  0.00     0.265 C
ENDROOT
BRANCH   1   2
HETATM    2  N4  UNL     1      26.201   3.235  21.715  1.00  0.00    -0.061 N
HETATM    3  C6  UNL     1      26.478   2.073  20.888  1.00  0.00     0.265 C
HETATM    4  C5  UNL     1      25.911   2.382  19.513  1.00  0.00     0.266 C
HETATM    5  N3  UNL     1      24.769   3.305  19.658  1.00  0.00    -0.057 N
HETATM    6  C22 UNL     1      25.260   4.607  19.993  1.00  0.00     0.266 C
HETATM    7  C24 UNL     1      24.033   2.817  20.823  1.00  0.00     0.266 C
HETATM    8  C21 UNL     1      26.459   4.407  20.898  1.00  0.00     0.265 C
HETATM    9  C23 UNL     1      24.811   3.213  22.058  1.00  0.00     0.265 C
BRANCH   5  10
HETATM   10  C4  UNL     1      23.906   3.233  18.528  1.00  0.00     0.294 C
BRANCH  10  11
HETATM   11  C3  UNL     1      23.935   4.507  17.692  1.00  0.00     0.044 A
HETATM   12  N2  UNL     1      24.744   4.701  16.693  1.00  0.00    -0.338 N
HETATM   13  C2  UNL     1      24.688   5.854  16.023  1.00  0.00     0.144 A
ATOM     14  H2  UNL     1      25.414   3.981  16.424  1.00  0.00     0.168 HD
HETATM   15  S1  UNL     1      23.441   6.699  16.835  1.00  0.00    -0.064 SA
HETATM   16  C25 UNL     1      23.055   5.516  18.003  1.00  0.00     0.080 A
BRANCH  13  17
HETATM   17  N1  UNL     1      25.414   6.245  14.996  1.00  0.00    -0.375 N
HETATM   18  C1  UNL     1      25.303   7.637  14.627  1.00  0.00     0.148 C
ATOM     19  H1  UNL     1      26.021   5.600  14.489  1.00  0.00     0.161 HD
ENDBRANCH  13  17
ENDBRANCH  10  11
ENDBRANCH   5  10
ENDBRANCH   1   2
BRANCH   1  20
HETATM   20  C8  UNL     1      28.197   2.325  22.857  1.00  0.00     0.266 C
BRANCH  20  21
HETATM   21  N5  UNL     1      29.486   2.938  22.941  1.00  0.00    -0.051 N
HETATM   22  C17 UNL     1      29.945   3.577  21.741  1.00  0.00     0.265 C
HETATM   23  C18 UNL     1      31.408   3.727  22.045  1.00  0.00    -0.002 C
HETATM   24  C19 UNL     1      31.759   2.728  22.855  1.00  0.00    -0.002 C
HETATM   25  C20 UNL     1      30.538   1.912  23.092  1.00  0.00     0.265 C
BRANCH  21  26
HETATM   26  C9  UNL     1      29.578   3.736  24.120  1.00  0.00     0.340 C
BRANCH  26  27
HETATM   27  C10 UNL     1      29.656   3.037  25.388  1.00  0.00     0.244 C
HETATM   28  O1  UNL     1      28.695   2.352  25.798  1.00  0.00    -0.272 OA
HETATM   29  N6  UNL     1      30.821   3.114  26.189  1.00  0.00    -0.350 N
ATOM     30  H6  UNL     1      31.596   3.676  25.838  1.00  0.00     0.163 HD
BRANCH  29  31
HETATM   31  C11 UNL     1      30.997   2.464  27.455  1.00  0.00     0.039 A
HETATM   32  C12 UNL     1      30.061   2.859  28.582  1.00  0.00     0.039 C
HETATM   33  C13 UNL     1      32.438   2.055  27.834  1.00  0.00     0.045 A
HETATM   34  C14 UNL     1      31.417   1.022  27.512  1.00  0.00     0.005 A
HETATM   35  C15 UNL     1      31.002   0.187  28.724  1.00  0.00     0.020 C
BRANCH  34  36
HETATM   36  C16 UNL     1      31.457   0.231  26.250  1.00  0.00     0.175 C
BRANCH  36  37
HETATM   37  O2  UNL     1      30.809  -1.000  26.500  1.00  0.00    -0.400 OA
ATOM     38  H2  UNL     1      31.425  -1.693  26.293  1.00  0.00     0.209 HD
ENDBRANCH  36  37
ENDBRANCH  34  36
ENDBRANCH  29  31
ENDBRANCH  26  27
ENDBRANCH  21  26
ENDBRANCH  20  21
ENDBRANCH   1  20
TORSDOF 11
ENDMDL