MODEL 3
REMARK VINA RESULT: -7.038137803      2.828      4.307
REMARK  11 active torsions:
REMARK  status: ('A' for Active; 'I' for Inactive)
REMARK    1  A    between atoms: C7_8  and  C8_9
REMARK    2  A    between atoms: C8_9  and  C9_10
REMARK    3  A    between atoms: C9_10  and  C10_11
REMARK    4  A    between atoms: N1_14  and  C13_15
REMARK    5  A    between atoms: C13_15  and  C14_16
REMARK    6  A    between atoms: C14_16  and  C15_17
REMARK    7  A    between atoms: C15_17  and  N2_18
REMARK    8  A    between atoms: C20_23  and  C21_24
REMARK    9  A    between atoms: C22_25  and  C23_26
REMARK   10  A    between atoms: C23_26  and  O2_27
REMARK   11  A    between atoms: C24_29  and  N3_30
ROOT
HETATM    1  C1  UNL     1      28.502   6.605  22.927  1.00  0.00     0.077 C
HETATM    2  C2  UNL     1      27.905   5.294  22.830  1.00  0.00     0.264 C
HETATM    3  C3  UNL     1      26.463   5.207  22.380  1.00  0.00     0.189 C
HETATM    4  O1  UNL     1      25.620   6.072  22.992  1.00  0.00    -0.381 OA
HETATM    5  C4  UNL     1      25.722   6.198  24.344  1.00  0.00     0.170 C
HETATM    6  C5  UNL     1      25.642   4.821  24.909  1.00  0.00     0.052 C
HETATM    7  C6  UNL     1      26.642   3.934  24.254  1.00  0.00     0.103 C
HETATM    8  C7  UNL     1      26.339   3.741  22.755  1.00  0.00     0.084 C
HETATM    9  C8  UNL     1      27.506   3.236  21.951  1.00  0.00     0.209 A
HETATM   10  C24 UNL     1      28.613   2.460  22.353  1.00  0.00     0.276 A
HETATM   11  C25 UNL     1      29.565   3.642  22.252  1.00  0.00     0.363 A
HETATM   12  N4  UNL     1      30.243   4.072  23.451  1.00  0.00    -0.311 N
ATOM     13  H4  UNL     1      31.250   4.206  23.536  1.00  0.00     0.166 HD
HETATM   14  C26 UNL     1      29.262   4.292  24.540  1.00  0.00     0.322 C
HETATM   15  O3  UNL     1      29.514   4.340  25.725  1.00  0.00    -0.247 OA
HETATM   16  N5  UNL     1      27.947   4.442  24.051  1.00  0.00    -0.291 N
HETATM   17  N6  UNL     1      28.449   4.396  21.803  1.00  0.00     0.158 N
ENDROOT
BRANCH   9  18
HETATM   18  C9  UNL     1      26.905   2.932  20.565  1.00  0.00     0.084 C
BRANCH  18  19
HETATM   19  C10 UNL     1      25.719   2.104  20.533  1.00  0.00    -0.043 A
HETATM   20  C11 UNL     1      25.765   0.815  21.085  1.00  0.00     0.025 A
HETATM   21  C12 UNL     1      24.677  -0.010  21.139  1.00  0.00     0.091 A
HETATM   22  N1  UNL     1      23.493   0.417  20.641  1.00  0.00    -0.366 N
HETATM   23  C19 UNL     1      23.443   1.650  20.109  1.00  0.00     0.102 A
HETATM   24  C20 UNL     1      24.510   2.522  20.029  1.00  0.00    -0.014 A
BRANCH  22  25
HETATM   25  C13 UNL     1      22.308  -0.374  20.667  1.00  0.00     0.129 C
BRANCH  25  26
HETATM   26  C14 UNL     1      21.359  -0.188  19.527  1.00  0.00     0.048 C
BRANCH  26  27
HETATM   27  C15 UNL     1      19.976  -0.592  20.059  1.00  0.00     0.237 C
BRANCH  27  28
HETATM   28  N2  UNL     1      18.953  -0.535  19.065  1.00  0.00    -0.079 N
HETATM   29  C16 UNL     1      19.437  -0.204  17.740  1.00  0.00     0.271 C
HETATM   30  C17 UNL     1      18.383  -1.888  18.966  1.00  0.00     0.271 C
HETATM   31  C18 UNL     1      17.856   0.331  19.426  1.00  0.00     0.271 C
ENDBRANCH  27  28
ENDBRANCH  26  27
ENDBRANCH  25  26
ENDBRANCH  22  25
BRANCH  24  32
HETATM   32  C21 UNL     1      24.346   3.840  19.377  1.00  0.00     0.011 C
HETATM   33  C22 UNL     1      24.307   4.028  18.084  1.00  0.00    -0.000 C
BRANCH  33  34
HETATM   34  C23 UNL     1      24.134   5.430  17.561  1.00  0.00     0.191 C
BRANCH  34  35
HETATM   35  O2  UNL     1      24.712   6.347  18.452  1.00  0.00    -0.397 OA
ATOM     36  H2  UNL     1      24.370   7.218  18.287  1.00  0.00     0.209 HD
ENDBRANCH  34  35
ENDBRANCH  33  34
ENDBRANCH  24  32
ENDBRANCH  18  19
ENDBRANCH   9  18
BRANCH  10  37
HETATM   37  N3  UNL     1      28.687   1.666  23.558  1.00  0.00    -0.069 N
ATOM     38  H33 UNL     1      27.867   1.906  24.115  1.00  0.00     0.275 HD
ATOM     39  H32 UNL     1      28.502   0.701  23.283  1.00  0.00     0.275 HD
ATOM     40  H31 UNL     1      29.478   1.638  24.201  1.00  0.00     0.275 HD
ENDBRANCH  10  37
TORSDOF 11
ENDMDL