MODEL 1
REMARK VINA RESULT: -8.703621897      0.000      0.000
REMARK  11 active torsions:
REMARK  status: ('A' for Active; 'I' for Inactive)
REMARK    1  A    between atoms: N2_5  and  C4_6
REMARK    2  A    between atoms: C4_6  and  C5_7
REMARK    3  A    between atoms: C8_10  and  C9_11
REMARK    4  A    between atoms: C9_11  and  N3_12
REMARK    5  A    between atoms: N5_23  and  C17_24
REMARK    6  A    between atoms: C17_24  and  C18_25
REMARK    7  A    between atoms: C19_26  and  C20_27
REMARK    8  A    between atoms: C20_27  and  C21_28
REMARK    9  A    between atoms: C21_28  and  C22_29
REMARK   10  A    between atoms: C22_29  and  N6_30
REMARK   11  A    between atoms: C24_34  and  N8_35
ROOT
HETATM    1  N3  UNL     1      26.449   2.455  21.378  1.00  0.00    -0.298 N
HETATM    2  C10 UNL     1      25.895   2.761  22.558  1.00  0.00     0.113 A
HETATM    3  C11 UNL     1      26.636   3.143  23.673  1.00  0.00     0.050 A
HETATM    4  C12 UNL     1      28.022   3.217  23.579  1.00  0.00     0.063 A
HETATM    5  C13 UNL     1      28.558   2.895  22.352  1.00  0.00     0.053 A
HETATM    6  N4  UNL     1      27.757   2.527  21.300  1.00  0.00    -0.300 N
ATOM      7  H4  UNL     1      28.201   2.299  20.410  1.00  0.00     0.187 HD
HETATM    8  C14 UNL     1      30.028   2.930  22.168  1.00  0.00     0.070 C
HETATM    9  C15 UNL     1      30.771   3.795  23.118  1.00  0.00     0.109 C
HETATM   10  C16 UNL     1      30.252   3.713  24.499  1.00  0.00     0.225 C
HETATM   11  O1  UNL     1      31.027   3.715  25.458  1.00  0.00    -0.273 OA
HETATM   12  N5  UNL     1      28.830   3.633  24.692  1.00  0.00    -0.305 N
ENDROOT
BRANCH  12  13
HETATM   13  C17 UNL     1      28.232   3.956  25.942  1.00  0.00     0.226 C
BRANCH  13  14
HETATM   14  C18 UNL     1      28.117   2.826  26.855  1.00  0.00    -0.086 C
HETATM   15  C19 UNL     1      28.001   1.890  27.606  1.00  0.00    -0.105 C
BRANCH  15  16
HETATM   16  C20 UNL     1      27.835   0.749  28.510  1.00  0.00     0.095 C
BRANCH  16  17
HETATM   17  C21 UNL     1      29.078   0.458  29.292  1.00  0.00     0.034 C
BRANCH  17  18
HETATM   18  C22 UNL     1      29.976  -0.573  28.688  1.00  0.00     0.151 C
BRANCH  18  19
HETATM   19  N6  UNL     1      30.774  -0.047  27.587  1.00  0.00    -0.273 N
HETATM   20  C23 UNL     1      31.656   0.960  27.614  1.00  0.00     0.218 A
HETATM   21  N7  UNL     1      32.167   1.113  26.365  1.00  0.00    -0.185 N
HETATM   22  C24 UNL     1      31.598   0.197  25.566  1.00  0.00     0.691 A
ATOM     23  H7  UNL     1      32.862   1.804  26.083  1.00  0.00     0.185 HD
HETATM   24  N9  UNL     1      30.750  -0.501  26.335  1.00  0.00    -0.129 N
ATOM     25  H9  UNL     1      30.168  -1.271  26.007  1.00  0.00     0.206 HD
BRANCH  22  26
HETATM   26  N8  UNL     1      31.838   0.042  24.306  1.00  0.00    -0.233 N
ATOM     27  H82 UNL     1      31.171  -0.159  23.562  1.00  0.00     0.174 HD
ATOM     28  H81 UNL     1      32.754   0.098  23.863  1.00  0.00     0.174 HD
ENDBRANCH  22  26
ENDBRANCH  18  19
ENDBRANCH  17  18
ENDBRANCH  16  17
ENDBRANCH  15  16
ENDBRANCH  13  14
ENDBRANCH  12  13
BRANCH   1  29
HETATM   29  C9  UNL     1      25.667   2.057  20.220  1.00  0.00     0.205 C
BRANCH  29  30
HETATM   30  C8  UNL     1      25.113   3.262  19.517  1.00  0.00     0.029 A
HETATM   31  C7  UNL     1      25.175   4.560  19.979  1.00  0.00     0.029 A
HETATM   32  C6  UNL     1      24.566   5.404  19.077  1.00  0.00     0.028 A
HETATM   33  C5  UNL     1      24.125   4.595  18.045  1.00  0.00     0.028 A
HETATM   34  N10 UNL     1      24.473   3.323  18.350  1.00  0.00    -0.360 N
ATOM     35  H10 UNL     1      24.272   2.515  17.761  1.00  0.00     0.165 HD
BRANCH  33  36
HETATM   36  C4  UNL     1      23.399   5.075  16.830  1.00  0.00     0.186 C
BRANCH  36  37
HETATM   37  N2  UNL     1      24.134   6.093  16.138  1.00  0.00    -0.346 N
HETATM   38  C3  UNL     1      24.279   7.400  16.405  1.00  0.00     0.109 A
HETATM   39  C2  UNL     1      25.083   7.979  15.454  1.00  0.00     0.108 A
HETATM   40  N1  UNL     1      25.433   7.003  14.590  1.00  0.00    -0.356 N
HETATM   41  C1  UNL     1      26.280   7.157  13.421  1.00  0.00     0.156 C
HETATM   42  C25 UNL     1      24.852   5.874  15.020  1.00  0.00     0.185 A
ENDBRANCH  36  37
ENDBRANCH  33  36
ENDBRANCH  29  30
ENDBRANCH   1  29
TORSDOF 11
ENDMDL