MODEL 1
REMARK VINA RESULT: -7.197561092      0.000      0.000
REMARK  11 active torsions:
REMARK  status: ('A' for Active; 'I' for Inactive)
REMARK    1  A    between atoms: C2_2  and  N1_3
REMARK    2  A    between atoms: C5_6  and  C6_7
REMARK    3  A    between atoms: C6_7  and  C7_8
REMARK    4  A    between atoms: C7_8  and  C8_9
REMARK    5  A    between atoms: C8_9  and  C9_10
REMARK    6  A    between atoms: C9_10  and  N2_11
REMARK    7  A    between atoms: N2_11  and  C11_13
REMARK    8  A    between atoms: C11_13  and  C12_14
REMARK    9  A    between atoms: C17_20  and  C18_21
REMARK       I    between atoms: C18_21  and  N4_23
REMARK   10  A    between atoms: N4_23  and  C19_25
REMARK       I    between atoms: N5_27  and  C21_29
REMARK   11  A    between atoms: C24_39  and  O3_40
ROOT
HETATM    1  C18 UNL     1      24.908   6.344  23.449  1.00  0.00     0.286 C
HETATM    2  O1  UNL     1      23.811   6.090  24.068  1.00  0.00    -0.264 OA
HETATM    3  N4  UNL     1      24.979   6.310  22.049  1.00  0.00    -0.340 N
ATOM      4  H4  UNL     1      25.875   6.511  21.606  1.00  0.00     0.163 HD
ENDROOT
BRANCH   1   5
HETATM    5  C17 UNL     1      26.023   6.648  24.306  1.00  0.00     0.178 A
HETATM    6  N1  UNL     1      26.329   7.900  24.627  1.00  0.00    -0.339 N
HETATM    7  C3  UNL     1      27.458   8.114  25.378  1.00  0.00     0.094 A
HETATM    8  C4  UNL     1      28.227   7.075  25.778  1.00  0.00     0.042 A
HETATM    9  C5  UNL     1      27.899   5.758  25.439  1.00  0.00     0.014 A
HETATM   10  N3  UNL     1      26.802   5.580  24.709  1.00  0.00    -0.337 N
HETATM   11  C16 UNL     1      26.360   4.239  24.297  1.00  0.00     0.158 C
BRANCH   6  12
HETATM   12  C2  UNL     1      25.540   9.083  24.331  1.00  0.00     0.125 C
HETATM   13  C1  UNL     1      26.194  10.230  25.141  1.00  0.00     0.027 C
ENDBRANCH   6  12
BRANCH   9  14
HETATM   14  C6  UNL     1      28.755   4.643  25.917  1.00  0.00     0.057 C
BRANCH  14  15
HETATM   15  C7  UNL     1      30.118   5.093  26.311  1.00  0.00     0.008 C
BRANCH  15  16
HETATM   16  C8  UNL     1      31.118   4.001  26.078  1.00  0.00     0.020 C
BRANCH  16  17
HETATM   17  C9  UNL     1      30.448   2.681  25.879  1.00  0.00     0.121 C
BRANCH  17  18
HETATM   18  N2  UNL     1      30.836   2.056  24.620  1.00  0.00    -0.397 N
HETATM   19  C10 UNL     1      31.352   0.763  24.718  1.00  0.00     0.148 C
BRANCH  18  20
HETATM   20  C11 UNL     1      31.327   2.980  23.710  1.00  0.00     0.066 C
BRANCH  20  21
HETATM   21  C12 UNL     1      30.508   3.231  22.482  1.00  0.00    -0.019 C
HETATM   22  C13 UNL     1      29.261   2.320  22.562  1.00  0.00     0.020 C
HETATM   23  C14 UNL     1      31.313   2.959  21.261  1.00  0.00     0.020 C
HETATM   24  C15 UNL     1      29.918   4.637  22.514  1.00  0.00     0.020 C
ENDBRANCH  20  21
ENDBRANCH  18  20
ENDBRANCH  17  18
ENDBRANCH  16  17
ENDBRANCH  15  16
ENDBRANCH  14  15
ENDBRANCH   9  14
ENDBRANCH   1   5
BRANCH   3  25
HETATM   25  C19 UNL     1      23.839   6.003  21.195  1.00  0.00     0.179 C
HETATM   26  C20 UNL     1      24.265   5.020  20.167  1.00  0.00     0.025 C
HETATM   27  N5  UNL     1      24.016   3.769  20.347  1.00  0.00    -0.336 N
HETATM   28  C22 UNL     1      24.970   5.440  18.937  1.00  0.00     0.157 C
HETATM   29  C21 UNL     1      24.428   2.843  19.359  1.00  0.00     0.186 C
ATOM     30  H5  UNL     1      23.530   3.452  21.185  1.00  0.00     0.168 HD
HETATM   31  N6  UNL     1      25.632   2.378  19.473  1.00  0.00    -0.374 N
HETATM   32  N7  UNL     1      23.638   2.395  18.277  1.00  0.00    -0.064 NA
ATOM     33  H62 UNL     1      26.202   2.702  20.254  1.00  0.00     0.158 HD
ATOM     34  H61 UNL     1      25.929   1.711  18.761  1.00  0.00     0.158 HD
HETATM   35  C23 UNL     1      24.277   6.630  18.392  1.00  0.00     0.225 C
HETATM   36  O2  UNL     1      24.214   6.791  17.132  1.00  0.00    -0.273 OA
HETATM   37  N8  UNL     1      23.708   7.550  19.298  1.00  0.00    -0.332 N
HETATM   38  C24 UNL     1      23.195   7.226  20.604  1.00  0.00     0.248 C
ATOM     39  H8  UNL     1      23.655   8.525  19.003  1.00  0.00     0.165 HD
BRANCH  38  40
HETATM   40  O3  UNL     1      21.803   7.055  20.460  1.00  0.00    -0.374 OA
ATOM     41  H3  UNL     1      21.600   6.447  19.759  1.00  0.00     0.212 HD
ENDBRANCH  38  40
ENDBRANCH   3  25
TORSDOF 11
ENDMDL