MODEL 3
REMARK VINA RESULT: -6.835614935      3.002      8.577
REMARK  9 active torsions:
REMARK  status: ('A' for Active; 'I' for Inactive)
REMARK    1  A    between atoms: C2_2  and  C3_3
REMARK    2  A    between atoms: C3_3  and  C4_4
REMARK    3  A    between atoms: C10_17  and  O3_18
REMARK    4  A    between atoms: S1_22  and  C12_23
REMARK    5  A    between atoms: C12_23  and  C13_24
REMARK    6  A    between atoms: C13_24  and  C14_25
REMARK    7  A    between atoms: C14_25  and  C15_26
REMARK    8  A    between atoms: C15_26  and  N5_27
REMARK    9  A    between atoms: N5_27  and  C16_28
ROOT
HETATM    1  C4  UNL     1      24.091   2.929  20.670  1.00  0.00     0.177 C
HETATM    2  N1  UNL     1      24.960   2.250  21.587  1.00  0.00    -0.346 N
ATOM      3  H1  UNL     1      24.506   1.570  22.199  1.00  0.00     0.163 HD
HETATM    4  C5  UNL     1      26.343   2.385  21.764  1.00  0.00     0.244 C
HETATM    5  O1  UNL     1      26.945   1.261  21.937  1.00  0.00    -0.272 OA
HETATM    6  C6  UNL     1      27.112   3.633  21.767  1.00  0.00     0.344 C
HETATM    7  N2  UNL     1      26.743   4.597  22.730  1.00  0.00    -0.013 N
HETATM    8  C7  UNL     1      25.382   4.922  22.909  1.00  0.00     0.287 C
HETATM    9  C8  UNL     1      24.661   5.592  21.800  1.00  0.00     0.091 C
HETATM   10  N3  UNL     1      24.985   5.242  20.474  1.00  0.00    -0.337 N
ATOM     11  H3  UNL     1      25.451   5.946  19.901  1.00  0.00     0.167 HD
HETATM   12  C9  UNL     1      24.709   3.964  19.865  1.00  0.00     0.244 C
HETATM   13  O2  UNL     1      25.002   3.751  18.639  1.00  0.00    -0.271 OA
HETATM   14  C10 UNL     1      27.537   5.809  22.579  1.00  0.00     0.348 C
HETATM   15  C11 UNL     1      28.498   5.302  23.598  1.00  0.00     0.184 C
HETATM   16  N4  UNL     1      28.916   6.177  24.624  1.00  0.00    -0.171 NA
HETATM   17  S1  UNL     1      27.698   6.127  25.867  1.00  0.00    -0.060 SA
HETATM   18  C23 UNL     1      26.777   4.771  25.220  1.00  0.00     0.224 C
HETATM   19  O4  UNL     1      25.798   4.291  25.703  1.00  0.00    -0.283 OA
HETATM   20  C24 UNL     1      27.453   4.376  24.001  1.00  0.00     0.299 C
ENDROOT
BRANCH  14  21
HETATM   21  O3  UNL     1      28.077   5.924  21.304  1.00  0.00    -0.368 OA
ATOM     22  H3  UNL     1      28.452   5.106  21.000  1.00  0.00     0.212 HD
ENDBRANCH  14  21
BRANCH  17  23
HETATM   23  C12 UNL     1      28.477   5.542  27.378  1.00  0.00     0.089 C
BRANCH  23  24
HETATM   24  C13 UNL     1      28.648   4.034  27.347  1.00  0.00     0.013 C
BRANCH  24  25
HETATM   25  C14 UNL     1      30.028   3.673  26.781  1.00  0.00     0.029 C
BRANCH  25  26
HETATM   26  C15 UNL     1      29.841   2.502  25.914  1.00  0.00     0.237 C
BRANCH  26  27
HETATM   27  N5  UNL     1      30.993   2.057  25.151  1.00  0.00    -0.067 N
HETATM   28  C18 UNL     1      31.674   3.252  24.712  1.00  0.00     0.237 C
HETATM   29  C19 UNL     1      32.109   3.268  23.294  1.00  0.00     0.028 C
HETATM   30  C20 UNL     1      31.028   2.861  22.313  1.00  0.00     0.003 C
HETATM   31  C21 UNL     1      30.177   1.748  22.840  1.00  0.00     0.028 C
HETATM   32  C22 UNL     1      30.669   1.145  24.110  1.00  0.00     0.237 C
BRANCH  27  33
HETATM   33  C16 UNL     1      31.789   1.376  26.191  1.00  0.00     0.233 C
HETATM   34  C17 UNL     1      31.100   0.204  26.787  1.00  0.00     0.035 C
ENDBRANCH  27  33
ENDBRANCH  26  27
ENDBRANCH  25  26
ENDBRANCH  24  25
ENDBRANCH  23  24
ENDBRANCH  17  23
BRANCH   1  35
HETATM   35  C3  UNL     1      23.510   1.873  19.739  1.00  0.00     0.034 C
BRANCH  35  36
HETATM   36  C2  UNL     1      23.056   0.642  20.503  1.00  0.00    -0.002 C
HETATM   37  C1  UNL     1      21.857   0.005  19.881  1.00  0.00     0.005 C
ENDBRANCH  35  36
ENDBRANCH   1  35
TORSDOF 9
ENDMDL