MODEL 2
REMARK VINA RESULT: -6.686190233      0.898      1.219
REMARK  9 active torsions:
REMARK  status: ('A' for Active; 'I' for Inactive)
REMARK    1  A    between atoms: C2_2  and  C4_4
REMARK    2  A    between atoms: C4_4  and  C5_5
REMARK    3  A    between atoms: C7_10  and  C8_11
REMARK    4  A    between atoms: C8_11  and  C9_12
REMARK    5  A    between atoms: N5_22  and  C14_23
REMARK    6  A    between atoms: C14_23  and  C15_24
REMARK       I    between atoms: C15_24  and  N6_26
REMARK    7  A    between atoms: C19_31  and  C20_32
REMARK    8  A    between atoms: C20_32  and  C21_33
REMARK    9  A    between atoms: C24_38  and  O4_39
ROOT
HETATM    1  C5  UNL     1      27.277   3.507  21.838  1.00  0.00     0.063 C
HETATM    2  N1  UNL     1      28.650   3.080  21.935  1.00  0.00    -0.325 N
ATOM      3  H1  UNL     1      29.209   3.239  21.096  1.00  0.00     0.169 HD
HETATM    4  C6  UNL     1      29.333   2.487  22.990  1.00  0.00     0.245 C
HETATM    5  O1  UNL     1      29.960   1.382  22.811  1.00  0.00    -0.271 OA
HETATM    6  C7  UNL     1      29.448   2.985  24.402  1.00  0.00     0.180 C
HETATM    7  N4  UNL     1      28.880   4.255  24.595  1.00  0.00    -0.372 N
ATOM      8  H4  UNL     1      28.913   4.946  23.846  1.00  0.00     0.161 HD
HETATM    9  C13 UNL     1      28.267   4.574  25.820  1.00  0.00     0.182 C
HETATM   10  N5  UNL     1      26.838   4.414  25.899  1.00  0.00    -0.304 N
HETATM   11  C18 UNL     1      25.990   5.156  25.040  1.00  0.00     0.248 C
HETATM   12  O3  UNL     1      24.775   4.912  25.095  1.00  0.00    -0.271 OA
HETATM   13  C19 UNL     1      26.476   6.206  24.081  1.00  0.00     0.176 C
HETATM   14  N7  UNL     1      26.313   5.778  22.728  1.00  0.00    -0.356 N
ATOM     15  H7  UNL     1      25.462   6.137  22.294  1.00  0.00     0.162 HD
HETATM   16  C24 UNL     1      27.070   4.974  21.871  1.00  0.00     0.159 C
ENDROOT
BRANCH   6  17
HETATM   17  C8  UNL     1      30.863   2.948  24.919  1.00  0.00     0.093 C
BRANCH  17  18
HETATM   18  C9  UNL     1      31.142   2.044  26.025  1.00  0.00     0.029 A
HETATM   19  C10 UNL     1      31.344   0.665  25.951  1.00  0.00     0.114 A
HETATM   20  N2  UNL     1      31.545   0.176  27.175  1.00  0.00    -0.360 N
HETATM   21  C11 UNL     1      31.477   1.187  28.026  1.00  0.00     0.182 A
ATOM     22  H2  UNL     1      31.720  -0.801  27.412  1.00  0.00     0.166 HD
HETATM   23  N3  UNL     1      31.235   2.324  27.356  1.00  0.00    -0.350 N
HETATM   24  C12 UNL     1      31.082   3.587  28.002  1.00  0.00     0.156 C
ENDBRANCH  17  18
ENDBRANCH   6  17
BRANCH   1  25
HETATM   25  C4  UNL     1      26.275   2.668  22.554  1.00  0.00     0.065 C
BRANCH  25  26
HETATM   26  C2  UNL     1      25.712   1.623  21.583  1.00  0.00    -0.017 C
HETATM   27  C1  UNL     1      25.833   2.104  20.154  1.00  0.00     0.010 C
HETATM   28  C3  UNL     1      26.378   0.281  21.763  1.00  0.00     0.010 C
ENDBRANCH  25  26
ENDBRANCH   1  25
BRANCH  10  29
HETATM   29  C14 UNL     1      26.316   3.471  26.888  1.00  0.00     0.235 C
BRANCH  29  30
HETATM   30  C15 UNL     1      26.851   3.700  28.225  1.00  0.00     0.237 C
HETATM   31  O2  UNL     1      26.657   4.798  28.797  1.00  0.00    -0.272 OA
HETATM   32  N6  UNL     1      27.591   2.710  28.910  1.00  0.00    -0.359 N
HETATM   33  C16 UNL     1      28.133   2.909  30.239  1.00  0.00     0.152 C
HETATM   34  C17 UNL     1      27.819   1.439  28.254  1.00  0.00     0.152 C
ENDBRANCH  29  30
ENDBRANCH  10  29
BRANCH  16  35
HETATM   35  O4  UNL     1      27.738   5.541  20.902  1.00  0.00    -0.345 OA
ATOM     36  H4  UNL     1      27.281   6.319  20.606  1.00  0.00     0.219 HD
ENDBRANCH  16  35
BRANCH  13  37
HETATM   37  C20 UNL     1      25.675   7.454  24.357  1.00  0.00     0.038 C
BRANCH  37  38
HETATM   38  C21 UNL     1      26.378   8.717  24.601  1.00  0.00    -0.020 C
HETATM   39  C22 UNL     1      25.592   9.934  24.876  1.00  0.00     0.009 C
HETATM   40  C23 UNL     1      27.519   8.531  25.610  1.00  0.00     0.009 C
ENDBRANCH  37  38
ENDBRANCH  13  37
TORSDOF 9
ENDMDL