MODEL 1
REMARK VINA RESULT: -9.887076425      0.000      0.000
REMARK  9 active torsions:
REMARK  status: ('A' for Active; 'I' for Inactive)
REMARK    1  A    between atoms: N1_9  and  C8_10
REMARK    2  A    between atoms: C8_10  and  C9_11
REMARK    3  A    between atoms: C9_11  and  C10_12
REMARK    4  A    between atoms: C10_12  and  C11_13
REMARK    5  A    between atoms: C11_13  and  C12_14
REMARK    6  A    between atoms: C12_14  and  C13_15
REMARK    7  A    between atoms: C13_15  and  C14_16
REMARK    8  A    between atoms: C14_16  and  N2_17
REMARK    9  A    between atoms: N2_17  and  C15_19
ROOT
HETATM    1  C13 UNL     1      -9.556 -21.712   1.108  1.00  0.00     0.044 C
ENDROOT
BRANCH   1   2
HETATM    2  C12 UNL     1      -9.584 -21.422   2.605  1.00  0.00     0.005 C
BRANCH   2   3
HETATM    3  C11 UNL     1     -10.023 -20.031   2.945  1.00  0.00     0.000 C
BRANCH   3   4
HETATM    4  C10 UNL     1      -8.889 -19.035   2.762  1.00  0.00     0.002 C
BRANCH   4   5
HETATM    5  C9  UNL     1      -8.923 -17.910   3.769  1.00  0.00     0.022 C
BRANCH   5   6
HETATM    6  C8  UNL     1      -9.682 -18.321   4.982  1.00  0.00     0.152 C
BRANCH   6   7
HETATM    7  N1  UNL     1     -10.727 -17.278   5.346  1.00  0.00    -0.264 N
HETATM    8  C7  UNL     1     -11.867 -17.966   5.799  1.00  0.00     0.238 C
HETATM    9  C6  UNL     1     -12.942 -17.447   6.942  1.00  0.00     0.116 C
HETATM   10  O1  UNL     1     -12.190 -19.037   5.393  1.00  0.00    -0.272 OA
HETATM   11  C5  UNL     1     -12.280 -16.209   6.973  1.00  0.00     0.092 C
HETATM   12  C4  UNL     1     -11.601 -15.531   6.727  1.00  0.00    -0.151 C
HETATM   13  C2  UNL     1     -10.521 -14.934   6.086  1.00  0.00     0.089 C
HETATM   14  C1  UNL     1     -10.882 -13.679   5.374  1.00  0.00     0.053 C
HETATM   15  C3  UNL     1      -9.276 -14.833   6.911  1.00  0.00     0.053 C
HETATM   16  N4  UNL     1     -10.228 -16.046   5.076  1.00  0.00    -0.311 N
ATOM     17  H4  UNL     1      -9.680 -15.868   4.235  1.00  0.00     0.182 HD
ENDBRANCH   6   7
ENDBRANCH   5   6
ENDBRANCH   4   5
ENDBRANCH   3   4
ENDBRANCH   2   3
ENDBRANCH   1   2
BRANCH   1  18
HETATM   18  C14 UNL     1      -9.669 -23.179   0.864  1.00  0.00     0.057 C
BRANCH  18  19
HETATM   19  N2  UNL     1     -10.687 -23.941   1.379  1.00  0.00    -0.381 N
ATOM     20  H2  UNL     1     -10.880 -23.896   2.379  1.00  0.00     0.160 HD
BRANCH  19  21
HETATM   21  C15 UNL     1     -11.481 -24.789   0.563  1.00  0.00     0.183 C
HETATM   22  C16 UNL     1     -10.820 -25.122  -0.688  1.00  0.00     0.051 C
HETATM   23  C17 UNL     1     -11.222 -26.424  -1.390  1.00  0.00    -0.010 C
HETATM   24  C18 UNL     1     -12.633 -26.422  -1.825  1.00  0.00     0.009 C
HETATM   25  C22 UNL     1     -10.661 -27.626  -0.752  1.00  0.00     0.010 C
HETATM   26  C19 UNL     1     -13.395 -27.685  -1.598  1.00  0.00    -0.013 C
HETATM   27  C20 UNL     1     -12.502 -28.907  -1.689  1.00  0.00     0.010 C
HETATM   28  C24 UNL     1     -13.895 -27.779  -0.169  1.00  0.00     0.019 C
HETATM   29  C21 UNL     1     -11.659 -28.709  -0.446  1.00  0.00    -0.001 C
HETATM   30  C23 UNL     1     -12.689 -28.258   0.561  1.00  0.00     0.082 C
HETATM   31  C25 UNL     1     -12.126 -27.254   1.452  1.00  0.00     0.223 C
HETATM   32  O2  UNL     1     -11.760 -27.813   2.551  1.00  0.00    -0.273 OA
HETATM   33  N3  UNL     1     -11.879 -25.876   1.441  1.00  0.00    -0.340 N
ATOM     34  H3  UNL     1     -12.034 -25.504   2.378  1.00  0.00     0.164 HD
ENDBRANCH  19  21
ENDBRANCH  18  19
ENDBRANCH   1  18
TORSDOF 9
ENDMDL