MODEL 1
REMARK VINA RESULT: -7.646773170      0.000      0.000
REMARK  15 active torsions:
REMARK  status: ('A' for Active; 'I' for Inactive)
REMARK    1  A    between atoms: N1_2  and  C2_3
REMARK    2  A    between atoms: N1_2  and  C16_27
REMARK    3  A    between atoms: C2_3  and  O1_4
REMARK    4  A    between atoms: C3_6  and  N2_8
REMARK    5  A    between atoms: N2_8  and  C4_10
REMARK    6  A    between atoms: C4_10  and  C5_11
REMARK    7  A    between atoms: C5_11  and  C6_12
REMARK    8  A    between atoms: C6_12  and  C7_13
REMARK    9  A    between atoms: C7_13  and  C8_14
REMARK   10  A    between atoms: C8_14  and  C9_15
REMARK   11  A    between atoms: C9_15  and  C10_16
REMARK   12  A    between atoms: C10_16  and  N3_17
REMARK   13  A    between atoms: N3_17  and  C11_19
REMARK   14  A    between atoms: C11_19  and  N4_21
REMARK   15  A    between atoms: N4_21  and  C12_23
ROOT
HETATM    1  C4  UNL     1     -10.302 -21.979   2.648  1.00  0.00     0.121 C
ENDROOT
BRANCH   1   2
HETATM    2  N2  UNL     1      -9.981 -20.941   3.566  1.00  0.00    -0.378 N
ATOM      3  H2  UNL     1      -8.978 -20.771   3.636  1.00  0.00     0.160 HD
BRANCH   2   4
HETATM    4  C3  UNL     1     -10.722 -20.112   4.382  1.00  0.00     0.147 C
HETATM    5  C2  UNL     1     -10.583 -18.797   4.817  1.00  0.00     0.176 C
HETATM    6  S1  UNL     1     -12.147 -20.930   4.962  1.00  0.00    -0.056 SA
BRANCH   5   7
HETATM    7  N1  UNL     1      -9.674 -17.780   4.655  1.00  0.00    -0.359 N
HETATM    8  C1  UNL     1      -8.525 -17.639   3.809  1.00  0.00     0.152 C
BRANCH   7   9
HETATM    9  C16 UNL     1      -9.893 -16.565   5.501  1.00  0.00     0.086 C
HETATM   10  C17 UNL     1      -9.106 -16.620   6.765  1.00  0.00     0.025 C
HETATM   11  C18 UNL     1      -9.390 -15.348   7.535  1.00  0.00     0.002 C
HETATM   12  C19 UNL     1      -9.172 -14.119   6.682  1.00  0.00     0.000 C
HETATM   13  C20 UNL     1      -9.971 -14.140   5.409  1.00  0.00     0.002 C
HETATM   14  C21 UNL     1      -9.574 -15.384   4.631  1.00  0.00     0.025 C
ENDBRANCH   7   9
ENDBRANCH   5   7
BRANCH   5  15
HETATM   15  O1  UNL     1     -11.609 -18.419   5.608  1.00  0.00    -0.344 OA
ATOM     16  H1  UNL     1     -11.859 -19.114   6.206  1.00  0.00     0.219 HD
ENDBRANCH   5  15
ENDBRANCH   2   4
ENDBRANCH   1   2
BRANCH   1  17
HETATM   17  C5  UNL     1      -9.580 -21.707   1.308  1.00  0.00     0.020 C
BRANCH  17  18
HETATM   18  C6  UNL     1      -9.199 -23.043   0.720  1.00  0.00     0.002 C
BRANCH  18  19
HETATM   19  C7  UNL     1     -10.391 -23.972   0.804  1.00  0.00     0.000 C
BRANCH  19  20
HETATM   20  C8  UNL     1     -10.697 -24.512  -0.557  1.00  0.00     0.002 C
BRANCH  20  21
HETATM   21  C9  UNL     1      -9.838 -25.724  -0.887  1.00  0.00     0.020 C
BRANCH  21  22
HETATM   22  C10 UNL     1     -10.762 -26.834  -1.324  1.00  0.00     0.122 C
BRANCH  22  23
HETATM   23  N3  UNL     1     -10.256 -28.091  -0.838  1.00  0.00    -0.367 N
ATOM     24  H3  UNL     1      -9.343 -28.409  -1.166  1.00  0.00     0.161 HD
BRANCH  23  25
HETATM   25  C11 UNL     1     -10.972 -28.910   0.078  1.00  0.00     0.168 C
HETATM   26  S2  UNL     1     -11.777 -28.162   1.287  1.00  0.00    -0.041 SA
BRANCH  25  27
HETATM   27  N4  UNL     1     -10.969 -30.315  -0.078  1.00  0.00    -0.359 N
ATOM     28  H4  UNL     1     -10.164 -30.868   0.215  1.00  0.00     0.162 HD
BRANCH  27  29
HETATM   29  C12 UNL     1     -12.135 -30.959  -0.665  1.00  0.00     0.021 C
HETATM   30  C13 UNL     1     -11.624 -32.118  -1.527  1.00  0.00     0.037 C
HETATM   31  C14 UNL     1     -12.855 -29.974  -1.554  1.00  0.00     0.037 C
HETATM   32  C15 UNL     1     -13.079 -31.465   0.413  1.00  0.00     0.037 C
ENDBRANCH  27  29
ENDBRANCH  25  27
ENDBRANCH  23  25
ENDBRANCH  22  23
ENDBRANCH  21  22
ENDBRANCH  20  21
ENDBRANCH  19  20
ENDBRANCH  18  19
ENDBRANCH  17  18
ENDBRANCH   1  17
TORSDOF 15
ENDMDL