MODEL 2
REMARK VINA RESULT: -8.268777913      1.310      1.511
REMARK  13 active torsions:
REMARK  status: ('A' for Active; 'I' for Inactive)
REMARK    1  A    between atoms: C7_7  and  N1_8
REMARK    2  A    between atoms: N1_8  and  C8_10
REMARK    3  A    between atoms: C8_10  and  N2_12
REMARK    4  A    between atoms: N2_12  and  C9_14
REMARK    5  A    between atoms: C9_14  and  C10_15
REMARK    6  A    between atoms: C10_15  and  C11_16
REMARK    7  A    between atoms: C11_16  and  C12_17
REMARK    8  A    between atoms: C12_17  and  C13_18
REMARK    9  A    between atoms: C13_18  and  C14_19
REMARK   10  A    between atoms: C14_19  and  C15_20
REMARK   11  A    between atoms: C15_20  and  C16_21
REMARK   12  A    between atoms: C16_21  and  N3_22
REMARK   13  A    between atoms: N3_22  and  N4_23
REMARK       I    between atoms: N3_22  and  C17_26
ROOT
HETATM    1  C8  UNL     1      -9.705 -18.101   4.566  1.00  0.00     0.168 C
HETATM    2  S1  UNL     1      -8.380 -17.628   3.748  1.00  0.00    -0.041 SA
ENDROOT
BRANCH   1   3
HETATM    3  N1  UNL     1     -10.026 -17.768   5.892  1.00  0.00    -0.354 N
ATOM      4  H1  UNL     1      -9.881 -18.467   6.620  1.00  0.00     0.163 HD
BRANCH   3   5
HETATM    5  C7  UNL     1     -10.545 -16.498   6.259  1.00  0.00     0.056 C
HETATM    6  C2  UNL     1     -11.944 -16.493   6.694  1.00  0.00    -0.057 C
HETATM    7  C1  UNL     1     -12.749 -17.493   6.541  1.00  0.00     0.017 C
HETATM    8  C3  UNL     1     -12.435 -15.232   7.308  1.00  0.00     0.017 C
HETATM    9  C4  UNL     1     -11.433 -14.765   8.339  1.00  0.00     0.014 C
HETATM   10  C21 UNL     1     -12.388 -14.222   6.134  1.00  0.00     0.014 C
HETATM   11  C5  UNL     1     -10.087 -14.522   7.747  1.00  0.00    -0.003 C
HETATM   12  C6  UNL     1      -9.575 -15.844   7.219  1.00  0.00     0.041 C
HETATM   13  C22 UNL     1     -10.100 -13.577   6.566  1.00  0.00    -0.040 C
HETATM   14  C20 UNL     1     -11.017 -14.205   5.536  1.00  0.00    -0.003 C
HETATM   15  C23 UNL     1     -10.676 -12.222   6.913  1.00  0.00     0.015 C
HETATM   16  C24 UNL     1      -8.702 -13.385   6.074  1.00  0.00     0.015 C
HETATM   17  C19 UNL     1     -10.554 -15.537   5.040  1.00  0.00     0.041 C
ENDBRANCH   3   5
ENDBRANCH   1   3
BRANCH   1  18
HETATM   18  N2  UNL     1     -10.628 -18.921   3.831  1.00  0.00    -0.367 N
ATOM     19  H2  UNL     1     -11.092 -18.506   3.024  1.00  0.00     0.161 HD
BRANCH  18  20
HETATM   20  C9  UNL     1     -10.942 -20.282   4.154  1.00  0.00     0.122 C
BRANCH  20  21
HETATM   21  C10 UNL     1     -10.684 -21.238   3.014  1.00  0.00     0.020 C
BRANCH  21  22
HETATM   22  C11 UNL     1      -9.905 -20.537   1.933  1.00  0.00     0.002 C
BRANCH  22  23
HETATM   23  C12 UNL     1      -9.267 -21.548   1.007  1.00  0.00     0.000 C
BRANCH  23  24
HETATM   24  C13 UNL     1      -9.988 -22.878   1.023  1.00  0.00     0.000 C
BRANCH  24  25
HETATM   25  C14 UNL     1      -9.177 -23.968   0.392  1.00  0.00     0.002 C
BRANCH  25  26
HETATM   26  C15 UNL     1      -9.999 -24.802  -0.539  1.00  0.00     0.022 C
BRANCH  26  27
HETATM   27  C16 UNL     1     -10.528 -26.030   0.164  1.00  0.00     0.151 C
BRANCH  27  28
HETATM   28  N3  UNL     1     -11.837 -26.349  -0.436  1.00  0.00    -0.268 N
HETATM   29  C17 UNL     1     -11.918 -27.292  -1.479  1.00  0.00     0.233 C
HETATM   30  C18 UNL     1     -13.223 -27.624  -2.091  1.00  0.00     0.119 C
HETATM   31  O1  UNL     1     -10.894 -27.870  -1.910  1.00  0.00    -0.272 OA
BRANCH  28  32
HETATM   32  N4  UNL     1     -12.976 -25.704   0.048  1.00  0.00    -0.340 N
ATOM     33  H42 UNL     1     -12.906 -24.846   0.596  1.00  0.00     0.177 HD
ATOM     34  H41 UNL     1     -13.892 -26.104  -0.155  1.00  0.00     0.177 HD
ENDBRANCH  28  32
ENDBRANCH  27  28
ENDBRANCH  26  27
ENDBRANCH  25  26
ENDBRANCH  24  25
ENDBRANCH  23  24
ENDBRANCH  22  23
ENDBRANCH  21  22
ENDBRANCH  20  21
ENDBRANCH  18  20
ENDBRANCH   1  18
TORSDOF 13
ENDMDL