MODEL 5
REMARK VINA RESULT: -8.921219738      2.966     12.960
REMARK  10 active torsions:
REMARK  status: ('A' for Active; 'I' for Inactive)
REMARK    1  A    between atoms: C1_2  and  C2_3
REMARK       I    between atoms: C1_2  and  N3_17
REMARK    2  A    between atoms: C2_3  and  N1_4
REMARK    3  A    between atoms: N3_17  and  C12_19
REMARK    4  A    between atoms: C12_19  and  C13_20
REMARK    5  A    between atoms: C13_20  and  C14_21
REMARK    6  A    between atoms: C14_21  and  C15_22
REMARK    7  A    between atoms: C15_22  and  C16_23
REMARK    8  A    between atoms: C16_23  and  C17_24
REMARK    9  A    between atoms: C17_24  and  C18_25
REMARK   10  A    between atoms: C18_25  and  C19_26
ROOT
HETATM    1  O1  UNL     1      -8.668 -17.480   4.328  1.00  0.00    -0.271 OA
HETATM    2  C1  UNL     1      -9.869 -17.324   4.569  1.00  0.00     0.239 C
HETATM    3  N3  UNL     1     -10.769 -18.375   4.707  1.00  0.00    -0.339 N
ATOM      4  H3  UNL     1     -11.722 -18.086   4.926  1.00  0.00     0.167 HD
ENDROOT
BRANCH   3   5
HETATM    5  C12 UNL     1     -10.598 -19.763   4.598  1.00  0.00     0.064 C
BRANCH   5   6
HETATM    6  C13 UNL     1     -10.720 -20.476   3.315  1.00  0.00     0.044 C
BRANCH   6   7
HETATM    7  C14 UNL     1      -9.580 -21.318   2.896  1.00  0.00     0.005 C
BRANCH   7   8
HETATM    8  C15 UNL     1      -9.598 -21.585   1.384  1.00  0.00     0.000 C
BRANCH   8   9
HETATM    9  C16 UNL     1      -9.880 -23.033   1.077  1.00  0.00     0.000 C
BRANCH   9  10
HETATM   10  C17 UNL     1     -10.943 -23.592   1.964  1.00  0.00     0.000 C
BRANCH  10  11
HETATM   11  C18 UNL     1     -11.623 -24.789   1.371  1.00  0.00     0.007 C
BRANCH  11  12
HETATM   12  C19 UNL     1     -11.026 -25.213   0.086  1.00  0.00     0.016 C
HETATM   13  C20 UNL     1     -12.002 -25.257  -1.043  1.00  0.00     0.009 C
HETATM   14  C21 UNL     1     -12.447 -26.686  -1.338  1.00  0.00     0.033 C
HETATM   15  C22 UNL     1     -11.291 -27.630  -1.504  1.00  0.00     0.186 C
HETATM   16  C23 UNL     1     -11.330 -28.601  -0.332  1.00  0.00     0.035 C
HETATM   17  N4  UNL     1     -10.027 -26.942  -1.205  1.00  0.00    -0.066 N
HETATM   18  C24 UNL     1     -10.998 -27.641   0.810  1.00  0.00     0.035 C
HETATM   19  C25 UNL     1     -10.254 -26.518   0.186  1.00  0.00     0.190 C
ATOM     20  H42 UNL     1      -9.183 -27.491  -1.361  1.00  0.00     0.278 HD
ATOM     21  H41 UNL     1      -9.771 -26.197  -1.853  1.00  0.00     0.278 HD
ENDBRANCH  11  12
ENDBRANCH  10  11
ENDBRANCH   9  10
ENDBRANCH   8   9
ENDBRANCH   7   8
ENDBRANCH   6   7
ENDBRANCH   5   6
ENDBRANCH   3   5
BRANCH   2  22
HETATM   22  C2  UNL     1     -10.295 -15.881   4.706  1.00  0.00     0.231 C
BRANCH  22  23
HETATM   23  N1  UNL     1     -10.285 -15.457   6.088  1.00  0.00    -0.320 N
HETATM   24  C3  UNL     1     -11.418 -15.752   6.887  1.00  0.00     0.319 C
HETATM   25  O2  UNL     1     -12.421 -16.387   6.406  1.00  0.00    -0.247 OA
HETATM   26  N2  UNL     1     -11.406 -15.319   8.240  1.00  0.00    -0.333 N
HETATM   27  C4  UNL     1     -10.524 -14.226   8.606  1.00  0.00     0.040 A
ATOM     28  H2  UNL     1     -12.003 -15.765   8.938  1.00  0.00     0.165 HD
HETATM   29  C5  UNL     1     -11.119 -12.877   8.532  1.00  0.00     0.034 A
HETATM   30  C6  UNL     1     -10.736 -13.548   9.881  1.00  0.00     0.034 A
HETATM   31  C7  UNL     1      -9.147 -14.510   8.053  1.00  0.00     0.037 C
HETATM   32  C8  UNL     1      -8.284 -13.277   8.206  1.00  0.00     0.009 C
HETATM   33  C11 UNL     1      -9.144 -14.766   6.589  1.00  0.00     0.096 C
HETATM   34  C9  UNL     1      -8.127 -12.668   6.843  1.00  0.00     0.002 C
HETATM   35  C10 UNL     1      -9.106 -13.398   5.940  1.00  0.00     0.026 C
ENDBRANCH  22  23
ENDBRANCH   2  22
TORSDOF 10
ENDMDL