MODEL 3
REMARK VINA RESULT: -6.727100195      1.988      5.156
REMARK  10 active torsions:
REMARK  status: ('A' for Active; 'I' for Inactive)
REMARK    1  A    between atoms: C3_5  and  C4_6
REMARK    2  A    between atoms: C4_6  and  C5_7
REMARK    3  A    between atoms: C9_14  and  C10_15
REMARK    4  A    between atoms: C10_15  and  C11_16
REMARK    5  A    between atoms: C11_16  and  C12_17
REMARK    6  A    between atoms: C15_23  and  C16_24
REMARK    7  A    between atoms: C16_24  and  C17_25
REMARK    8  A    between atoms: N4_30  and  C21_31
REMARK    9  A    between atoms: C21_31  and  C22_32
REMARK   10  A    between atoms: C22_32  and  C23_33
ROOT
HETATM    1  C1  UNL     1      -9.757 -26.564  -1.638  1.00  0.00     0.064 C
HETATM    2  C2  UNL     1     -10.964 -26.756  -1.102  1.00  0.00     0.100 C
HETATM    3  N1  UNL     1     -12.045 -27.013  -1.998  1.00  0.00    -0.342 N
ATOM      4  H1  UNL     1     -11.769 -27.542  -2.825  1.00  0.00     0.167 HD
HETATM    5  C3  UNL     1     -13.425 -26.682  -1.973  1.00  0.00     0.079 C
HETATM    6  C8  UNL     1     -14.029 -26.350  -0.678  1.00  0.00     0.264 C
HETATM    7  O1  UNL     1     -13.901 -25.196  -0.135  1.00  0.00    -0.266 OA
HETATM    8  N2  UNL     1     -14.807 -27.255   0.092  1.00  0.00    -0.343 N
ATOM      9  H2  UNL     1     -15.512 -26.873   0.721  1.00  0.00     0.163 HD
HETATM   10  C9  UNL     1     -14.651 -28.694   0.028  1.00  0.00     0.177 C
HETATM   11  C14 UNL     1     -14.177 -29.151   1.351  1.00  0.00     0.241 C
HETATM   12  O2  UNL     1     -14.926 -29.034   2.344  1.00  0.00    -0.271 OA
HETATM   13  N3  UNL     1     -12.868 -29.731   1.527  1.00  0.00    -0.346 N
ATOM     14  H3  UNL     1     -12.749 -30.558   2.112  1.00  0.00     0.163 HD
HETATM   15  C15 UNL     1     -11.729 -29.137   0.872  1.00  0.00     0.177 C
HETATM   16  C20 UNL     1     -11.628 -27.681   1.166  1.00  0.00     0.248 C
HETATM   17  O3  UNL     1     -12.107 -27.288   2.260  1.00  0.00    -0.271 OA
HETATM   18  N4  UNL     1     -11.031 -26.700   0.313  1.00  0.00    -0.303 N
ENDROOT
BRANCH   5  19
HETATM   19  C4  UNL     1     -13.955 -25.828  -3.085  1.00  0.00     0.067 C
BRANCH  19  20
HETATM   20  C5  UNL     1     -15.018 -24.854  -2.838  1.00  0.00    -0.017 C
HETATM   21  C6  UNL     1     -16.339 -25.533  -3.304  1.00  0.00     0.010 C
HETATM   22  C7  UNL     1     -14.932 -23.632  -3.723  1.00  0.00     0.010 C
ENDBRANCH  19  20
ENDBRANCH   5  19
BRANCH  18  23
HETATM   23  C21 UNL     1     -10.507 -25.547   1.015  1.00  0.00     0.133 C
BRANCH  23  24
HETATM   24  C22 UNL     1     -10.759 -24.220   0.370  1.00  0.00     0.020 C
BRANCH  24  25
HETATM   25  C23 UNL     1      -9.475 -23.378   0.352  1.00  0.00    -0.003 C
HETATM   26  C24 UNL     1      -9.618 -22.181   1.254  1.00  0.00     0.005 C
ENDBRANCH  24  25
ENDBRANCH  23  24
ENDBRANCH  18  23
BRANCH  10  27
HETATM   27  C10 UNL     1     -15.888 -29.410  -0.366  1.00  0.00     0.035 C
BRANCH  27  28
HETATM   28  C11 UNL     1     -16.737 -28.815  -1.423  1.00  0.00     0.002 C
BRANCH  28  29
HETATM   29  C12 UNL     1     -16.071 -29.206  -2.765  1.00  0.00    -0.004 C
HETATM   30  C13 UNL     1     -17.097 -29.838  -3.649  1.00  0.00     0.005 C
ENDBRANCH  28  29
ENDBRANCH  27  28
ENDBRANCH  10  27
BRANCH  15  31
HETATM   31  C16 UNL     1     -10.449 -29.843   1.067  1.00  0.00     0.038 C
BRANCH  31  32
HETATM   32  C17 UNL     1     -10.411 -31.281   1.341  1.00  0.00    -0.020 C
HETATM   33  C18 UNL     1     -10.778 -32.242   0.261  1.00  0.00     0.009 C
HETATM   34  C19 UNL     1      -8.938 -31.620   1.681  1.00  0.00     0.009 C
ENDBRANCH  31  32
ENDBRANCH  15  31
TORSDOF 10
ENDMDL