MODEL 3
REMARK VINA RESULT: -7.798655154      2.594      8.278
REMARK  11 active torsions:
REMARK  status: ('A' for Active; 'I' for Inactive)
REMARK    1  A    between atoms: N1_2  and  C2_5
REMARK    2  A    between atoms: C2_5  and  C3_6
REMARK    3  A    between atoms: C3_6  and  C4_7
REMARK       I    between atoms: N2_10  and  C7_11
REMARK    4  A    between atoms: C7_11  and  C8_13
REMARK    5  A    between atoms: C8_13  and  C9_14
REMARK    6  A    between atoms: C8_13  and  N3_21
REMARK    7  A    between atoms: C9_14  and  C10_15
REMARK       I    between atoms: N3_21  and  C16_23
REMARK    8  A    between atoms: C16_23  and  C17_25
REMARK    9  A    between atoms: C17_25  and  N4_26
REMARK   10  A    between atoms: C17_25  and  C21_31
REMARK   11  A    between atoms: N4_26  and  C18_28
ROOT
HETATM    1  C8  UNL     1     -12.030 -26.256   0.774  1.00  0.00     0.177 C
ENDROOT
BRANCH   1   2
HETATM    2  C7  UNL     1     -11.942 -27.636   1.387  1.00  0.00     0.242 C
HETATM    3  N2  UNL     1     -11.838 -28.832   0.678  1.00  0.00    -0.350 N
HETATM    4  C6  UNL     1     -11.741 -30.122   1.368  1.00  0.00     0.126 C
HETATM    5  C24 UNL     1     -11.831 -28.921  -0.758  1.00  0.00     0.126 C
HETATM    6  C5  UNL     1     -10.974 -31.108   0.549  1.00  0.00     0.024 C
HETATM    7  C4  UNL     1     -11.696 -31.403  -0.757  1.00  0.00    -0.010 C
HETATM    8  C25 UNL     1     -12.538 -30.237  -1.154  1.00  0.00     0.024 C
HETATM    9  O1  UNL     1     -11.969 -27.699   2.642  1.00  0.00    -0.271 OA
BRANCH   7  10
HETATM   10  C3  UNL     1     -12.462 -32.668  -0.591  1.00  0.00     0.032 C
BRANCH  10  11
HETATM   11  C2  UNL     1     -13.940 -32.521  -0.408  1.00  0.00     0.232 C
BRANCH  11  12
HETATM   12  N1  UNL     1     -14.367 -32.651   0.954  1.00  0.00    -0.079 N
HETATM   13  C1  UNL     1     -15.237 -31.516   1.272  1.00  0.00     0.266 C
ATOM     14  H12 UNL     1     -13.585 -32.741   1.604  1.00  0.00     0.276 HD
ATOM     15  H11 UNL     1     -14.809 -33.551   1.144  1.00  0.00     0.276 HD
ENDBRANCH  11  12
ENDBRANCH  10  11
ENDBRANCH   7  10
ENDBRANCH   1   2
BRANCH   1  16
HETATM   16  C9  UNL     1     -11.887 -25.204   1.807  1.00  0.00     0.039 C
BRANCH  16  17
HETATM   17  C10 UNL     1     -11.072 -24.013   1.491  1.00  0.00    -0.012 C
HETATM   18  C11 UNL     1     -10.865 -23.041   2.628  1.00  0.00     0.005 C
HETATM   19  C12 UNL     1     -10.434 -21.724   2.064  1.00  0.00     0.000 C
HETATM   20  C13 UNL     1      -9.340 -21.783   1.055  1.00  0.00     0.000 C
HETATM   21  C14 UNL     1      -9.494 -22.901   0.045  1.00  0.00     0.000 C
HETATM   22  C15 UNL     1      -9.779 -24.226   0.787  1.00  0.00     0.005 C
ENDBRANCH  16  17
ENDBRANCH   1  16
BRANCH   1  23
HETATM   23  N3  UNL     1     -13.343 -26.119   0.137  1.00  0.00    -0.346 N
HETATM   24  C16 UNL     1     -13.523 -25.509  -1.136  1.00  0.00     0.241 C
HETATM   25  O2  UNL     1     -12.482 -25.083  -1.695  1.00  0.00    -0.271 OA
ATOM     26  H3  UNL     1     -14.163 -26.476   0.627  1.00  0.00     0.163 HD
BRANCH  24  27
HETATM   27  C17 UNL     1     -14.808 -25.358  -1.807  1.00  0.00     0.173 C
BRANCH  27  28
HETATM   28  N4  UNL     1     -15.183 -26.332  -2.775  1.00  0.00    -0.406 N
ATOM     29  H4  UNL     1     -14.794 -26.301  -3.718  1.00  0.00     0.154 HD
BRANCH  28  30
HETATM   30  C18 UNL     1     -16.104 -27.345  -2.410  1.00  0.00     0.069 C
HETATM   31  C19 UNL     1     -15.674 -28.765  -2.469  1.00  0.00     0.031 C
HETATM   32  C20 UNL     1     -17.295 -27.208  -3.384  1.00  0.00     0.031 C
ENDBRANCH  28  30
ENDBRANCH  27  28
BRANCH  27  33
HETATM   33  C21 UNL     1     -14.965 -23.998  -2.476  1.00  0.00     0.009 C
HETATM   34  C22 UNL     1     -15.021 -24.117  -3.967  1.00  0.00     0.012 C
HETATM   35  C23 UNL     1     -16.294 -23.437  -2.004  1.00  0.00     0.012 C
ENDBRANCH  27  33
ENDBRANCH  24  27
ENDBRANCH   1  23
TORSDOF 11
ENDMDL