MODEL 3
REMARK VINA RESULT: -7.915825427      1.417      2.858
REMARK  10 active torsions:
REMARK  status: ('A' for Active; 'I' for Inactive)
REMARK    1  A    between atoms: C2_2  and  C3_3
REMARK    2  A    between atoms: C3_3  and  C4_4
REMARK    3  A    between atoms: C4_4  and  C5_5
REMARK    4  A    between atoms: C5_5  and  C6_6
REMARK    5  A    between atoms: C6_6  and  C7_7
REMARK    6  A    between atoms: N1_13  and  C13_14
REMARK    7  A    between atoms: C13_14  and  C14_15
REMARK    8  A    between atoms: C14_15  and  C15_16
REMARK    9  A    between atoms: C15_16  and  N2_17
REMARK       I    between atoms: N2_17  and  C16_19
REMARK   10  A    between atoms: C16_19  and  C17_21
ROOT
HETATM    1  C13 UNL     1     -10.192 -19.233   4.912  1.00  0.00     0.274 C
ENDROOT
BRANCH   1   2
HETATM    2  N1  UNL     1     -10.053 -18.028   4.187  1.00  0.00     0.093 N
HETATM    3  C12 UNL     1      -8.741 -17.531   3.972  1.00  0.00     0.273 C
HETATM    4  C11 UNL     1      -8.730 -16.030   4.217  1.00  0.00     0.037 C
HETATM    5  C10 UNL     1     -10.236 -15.742   4.084  1.00  0.00     0.021 C
HETATM    6  C9  UNL     1     -10.622 -14.455   4.690  1.00  0.00     0.007 C
HETATM    7  C22 UNL     1     -10.876 -16.953   4.686  1.00  0.00     0.227 C
HETATM    8  C8  UNL     1     -11.479 -14.529   5.911  1.00  0.00     0.005 C
HETATM    9  C7  UNL     1     -11.236 -15.659   6.831  1.00  0.00    -0.012 C
HETATM   10  C23 UNL     1     -10.875 -16.961   6.183  1.00  0.00     0.041 C
BRANCH   9  11
HETATM   11  C6  UNL     1     -10.258 -15.355   7.964  1.00  0.00     0.005 C
BRANCH  11  12
HETATM   12  C5  UNL     1     -10.356 -13.968   8.495  1.00  0.00     0.000 C
BRANCH  12  13
HETATM   13  C4  UNL     1      -8.959 -13.397   8.592  1.00  0.00     0.000 C
BRANCH  13  14
HETATM   14  C3  UNL     1      -8.107 -13.636   7.394  1.00  0.00    -0.000 C
BRANCH  14  15
HETATM   15  C2  UNL     1      -8.255 -12.422   6.489  1.00  0.00    -0.005 C
HETATM   16  C1  UNL     1      -6.950 -11.673   6.342  1.00  0.00     0.005 C
ENDBRANCH  14  15
ENDBRANCH  13  14
ENDBRANCH  12  13
ENDBRANCH  11  12
ENDBRANCH   9  11
ENDBRANCH   1   2
BRANCH   1  17
HETATM   17  C14 UNL     1     -10.747 -20.420   4.213  1.00  0.00     0.050 C
BRANCH  17  18
HETATM   18  C15 UNL     1      -9.839 -21.160   3.300  1.00  0.00     0.124 C
BRANCH  18  19
HETATM   19  N2  UNL     1     -10.608 -22.271   2.711  1.00  0.00    -0.361 N
HETATM   20  C16 UNL     1     -10.254 -22.744   1.411  1.00  0.00     0.225 C
HETATM   21  O1  UNL     1      -9.302 -22.212   0.792  1.00  0.00    -0.273 OA
ATOM     22  H2  UNL     1     -11.380 -22.696   3.224  1.00  0.00     0.162 HD
BRANCH  20  23
HETATM   23  C17 UNL     1     -11.029 -23.863   0.815  1.00  0.00     0.118 C
HETATM   24  C18 UNL     1     -11.627 -24.751   1.846  1.00  0.00     0.138 C
HETATM   25  N3  UNL     1     -11.856 -26.106   1.457  1.00  0.00    -0.366 N
HETATM   26  C19 UNL     1     -11.723 -26.488   0.102  1.00  0.00     0.167 C
ATOM     27  H3  UNL     1     -12.116 -26.799   2.159  1.00  0.00     0.161 HD
HETATM   28  S1  UNL     1     -12.615 -27.726  -0.525  1.00  0.00    -0.041 SA
HETATM   29  N4  UNL     1     -10.796 -25.774  -0.702  1.00  0.00    -0.362 N
HETATM   30  C20 UNL     1     -10.198 -24.566  -0.223  1.00  0.00     0.094 C
ATOM     31  H4  UNL     1     -10.554 -26.126  -1.629  1.00  0.00     0.162 HD
HETATM   32  C21 UNL     1      -8.793 -24.861   0.239  1.00  0.00     0.033 C
ENDBRANCH  20  23
ENDBRANCH  18  19
ENDBRANCH  17  18
ENDBRANCH   1  17
TORSDOF 10
ENDMDL