MODEL 2
REMARK VINA RESULT: -8.490710294      2.847      5.346
REMARK  10 active torsions:
REMARK  status: ('A' for Active; 'I' for Inactive)
REMARK    1  A    between atoms: C2_2  and  C3_3
REMARK    2  A    between atoms: C3_3  and  C4_4
REMARK    3  A    between atoms: C4_4  and  C5_5
REMARK    4  A    between atoms: C5_5  and  C6_6
REMARK    5  A    between atoms: C6_6  and  N1_7
REMARK       I    between atoms: N1_7  and  C7_9
REMARK       I    between atoms: C7_9  and  N2_11
REMARK    6  A    between atoms: N2_11  and  C8_13
REMARK    7  A    between atoms: C8_13  and  C9_14
REMARK    8  A    between atoms: C9_14  and  C10_15
REMARK    9  A    between atoms: C10_15  and  N3_16
REMARK       I    between atoms: N3_16  and  C11_18
REMARK   10  A    between atoms: C11_18  and  C12_20
ROOT
HETATM    1  N3  UNL     1     -12.493 -26.009   0.844  1.00  0.00    -0.361 N
ATOM      2  H3  UNL     1     -13.362 -25.526   0.615  1.00  0.00     0.162 HD
HETATM    3  C11 UNL     1     -12.445 -27.422   0.641  1.00  0.00     0.223 C
HETATM    4  O2  UNL     1     -11.355 -27.947   0.943  1.00  0.00    -0.273 OA
ENDROOT
BRANCH   1   5
HETATM    5  C10 UNL     1     -11.407 -25.222   1.347  1.00  0.00     0.124 C
BRANCH   5   6
HETATM    6  C9  UNL     1     -10.688 -24.400   0.318  1.00  0.00     0.039 C
BRANCH   6   7
HETATM    7  C8  UNL     1     -10.031 -23.213   0.966  1.00  0.00     0.126 C
BRANCH   7   8
HETATM    8  N2  UNL     1     -10.552 -22.908   2.257  1.00  0.00    -0.343 N
HETATM    9  C7  UNL     1     -10.708 -21.520   2.689  1.00  0.00     0.316 C
HETATM   10  N1  UNL     1     -11.218 -21.275   3.954  1.00  0.00    -0.343 N
HETATM   11  O1  UNL     1     -10.367 -20.649   1.878  1.00  0.00    -0.247 OA
ATOM     12  H1  UNL     1     -11.458 -22.131   4.454  1.00  0.00     0.164 HD
ATOM     13  H2  UNL     1     -10.818 -23.666   2.886  1.00  0.00     0.164 HD
BRANCH  10  14
HETATM   14  C6  UNL     1     -11.481 -20.110   4.709  1.00  0.00     0.124 C
BRANCH  14  15
HETATM   15  C5  UNL     1     -10.378 -19.226   5.096  1.00  0.00     0.020 C
BRANCH  15  16
HETATM   16  C4  UNL     1      -9.878 -18.154   4.223  1.00  0.00     0.002 C
BRANCH  16  17
HETATM   17  C3  UNL     1      -9.321 -16.947   4.957  1.00  0.00    -0.000 C
BRANCH  17  18
HETATM   18  C2  UNL     1      -9.309 -17.214   6.450  1.00  0.00    -0.005 C
HETATM   19  C1  UNL     1      -9.793 -16.011   7.227  1.00  0.00     0.005 C
ENDBRANCH  17  18
ENDBRANCH  16  17
ENDBRANCH  15  16
ENDBRANCH  14  15
ENDBRANCH  10  14
ENDBRANCH   7   8
ENDBRANCH   6   7
ENDBRANCH   5   6
ENDBRANCH   1   5
BRANCH   3  20
HETATM   20  C12 UNL     1     -13.632 -28.070   0.122  1.00  0.00     0.091 C
HETATM   21  C13 UNL     1     -13.788 -29.506  -0.051  1.00  0.00     0.009 C
HETATM   22  C14 UNL     1     -13.056 -30.527   0.697  1.00  0.00     0.007 C
HETATM   23  C22 UNL     1     -13.440 -29.382  -1.512  1.00  0.00    -0.001 C
HETATM   24  C15 UNL     1     -14.012 -31.384   1.561  1.00  0.00     0.013 C
HETATM   25  C18 UNL     1     -12.351 -31.581  -0.064  1.00  0.00     0.021 C
HETATM   26  C16 UNL     1     -14.538 -32.335   0.485  1.00  0.00     0.079 C
HETATM   27  C17 UNL     1     -13.247 -32.799  -0.093  1.00  0.00     0.135 C
HETATM   28  O3  UNL     1     -12.918 -33.875  -0.508  1.00  0.00    -0.297 OA
HETATM   29  C19 UNL     1     -11.100 -32.053   0.697  1.00  0.00     0.024 C
HETATM   30  C20 UNL     1     -11.953 -31.290  -1.448  1.00  0.00     0.018 C
HETATM   31  C21 UNL     1     -12.080 -29.850  -1.870  1.00  0.00     0.007 C
HETATM   32  C23 UNL     1     -13.699 -27.918  -1.402  1.00  0.00    -0.031 C
HETATM   33  C24 UNL     1     -15.066 -27.509  -1.920  1.00  0.00     0.016 C
HETATM   34  C25 UNL     1     -12.601 -27.109  -2.008  1.00  0.00     0.016 C
ENDBRANCH   3  20
TORSDOF 10
ENDMDL