MODEL 4
REMARK VINA RESULT: -7.561734229      3.315     11.039
REMARK  13 active torsions:
REMARK  status: ('A' for Active; 'I' for Inactive)
REMARK    1  A    between atoms: N1_2  and  C4_5
REMARK    2  A    between atoms: C4_5  and  C5_6
REMARK    3  A    between atoms: C5_6  and  C6_7
REMARK    4  A    between atoms: C6_7  and  C7_8
REMARK    5  A    between atoms: C7_8  and  C8_9
REMARK    6  A    between atoms: C8_9  and  C9_10
REMARK    7  A    between atoms: C9_10  and  C10_11
REMARK    8  A    between atoms: C10_11  and  C11_12
REMARK    9  A    between atoms: C11_12  and  N2_13
REMARK       I    between atoms: N2_13  and  C12_14
REMARK   10  A    between atoms: C12_14  and  O2_16
REMARK   11  A    between atoms: O2_16  and  C13_17
REMARK   12  A    between atoms: C21_25  and  N3_26
REMARK   13  A    between atoms: N3_26  and  C22_28
ROOT
HETATM    1  O2  UNL     1     -11.614 -18.360   4.957  1.00  0.00    -0.284 OA
ENDROOT
BRANCH   1   2
HETATM    2  C12 UNL     1     -11.275 -19.691   4.545  1.00  0.00     0.439 C
HETATM    3  N2  UNL     1     -10.376 -19.874   3.488  1.00  0.00    -0.363 NA
HETATM    4  O1  UNL     1     -11.838 -20.565   5.207  1.00  0.00    -0.221 OA
BRANCH   3   5
HETATM    5  C11 UNL     1      -9.521 -20.049   2.483  1.00  0.00     0.161 C
BRANCH   5   6
HETATM    6  C10 UNL     1      -9.560 -21.292   1.609  1.00  0.00     0.060 C
BRANCH   6   7
HETATM    7  C9  UNL     1     -10.388 -22.373   2.283  1.00  0.00     0.006 C
BRANCH   7   8
HETATM    8  C8  UNL     1     -10.590 -23.596   1.455  1.00  0.00     0.000 C
BRANCH   8   9
HETATM    9  C7  UNL     1      -9.548 -23.771   0.414  1.00  0.00     0.000 C
BRANCH   9  10
HETATM   10  C6  UNL     1     -10.036 -24.666  -0.713  1.00  0.00     0.002 C
BRANCH  10  11
HETATM   11  C5  UNL     1     -11.475 -24.958  -0.554  1.00  0.00     0.028 C
BRANCH  11  12
HETATM   12  C4  UNL     1     -11.896 -26.271  -1.084  1.00  0.00     0.236 C
BRANCH  12  13
HETATM   13  N1  UNL     1     -12.047 -27.368  -0.216  1.00  0.00    -0.079 N
HETATM   14  C1  UNL     1     -11.106 -28.412  -0.701  1.00  0.00     0.271 C
HETATM   15  C2  UNL     1     -13.396 -27.922  -0.384  1.00  0.00     0.271 C
HETATM   16  C3  UNL     1     -11.839 -27.148   1.182  1.00  0.00     0.271 C
ENDBRANCH  12  13
ENDBRANCH  11  12
ENDBRANCH  10  11
ENDBRANCH   9  10
ENDBRANCH   8   9
ENDBRANCH   7   8
ENDBRANCH   6   7
ENDBRANCH   5   6
ENDBRANCH   3   5
ENDBRANCH   1   2
BRANCH   1  17
HETATM   17  C13 UNL     1     -10.985 -17.743   6.062  1.00  0.00     0.167 C
HETATM   18  C14 UNL     1      -9.527 -17.578   5.638  1.00  0.00     0.019 C
HETATM   19  C15 UNL     1      -8.752 -17.135   6.831  1.00  0.00     0.012 C
HETATM   20  C19 UNL     1      -9.469 -16.629   4.475  1.00  0.00     0.012 C
HETATM   21  C16 UNL     1      -9.292 -15.820   7.292  1.00  0.00    -0.011 C
HETATM   22  C17 UNL     1      -9.134 -14.819   6.166  1.00  0.00     0.009 C
HETATM   23  C23 UNL     1     -10.770 -15.886   7.621  1.00  0.00     0.038 C
HETATM   24  C18 UNL     1      -9.937 -15.279   4.989  1.00  0.00    -0.011 C
HETATM   25  C20 UNL     1     -11.422 -15.424   5.296  1.00  0.00     0.038 C
HETATM   26  C21 UNL     1     -11.565 -16.408   6.433  1.00  0.00     0.060 C
BRANCH  26  27
HETATM   27  N3  UNL     1     -12.947 -16.529   6.788  1.00  0.00    -0.358 N
ATOM     28  H3  UNL     1     -13.315 -17.480   6.784  1.00  0.00     0.162 HD
BRANCH  27  29
HETATM   29  C22 UNL     1     -13.865 -15.537   7.137  1.00  0.00     0.181 C
HETATM   30  N4  UNL     1     -13.675 -14.536   8.117  1.00  0.00    -0.070 NA
HETATM   31  S1  UNL     1     -15.320 -15.486   6.358  1.00  0.00    -0.044 SA
ENDBRANCH  27  29
ENDBRANCH  26  27
ENDBRANCH   1  17
TORSDOF 13
ENDMDL