MODEL 5
REMARK VINA RESULT: -5.985489567      4.875      8.399
REMARK  14 active torsions:
REMARK  status: ('A' for Active; 'I' for Inactive)
REMARK    1  A    between atoms: C2_2  and  C4_4
REMARK    2  A    between atoms: C4_4  and  O1_5
REMARK    3  A    between atoms: C7_9  and  C8_10
REMARK    4  A    between atoms: C9_11  and  C10_12
REMARK    5  A    between atoms: C10_12  and  O2_13
REMARK    6  A    between atoms: O2_13  and  C11_14
REMARK    7  A    between atoms: C11_14  and  C12_16
REMARK    8  A    between atoms: C12_16  and  C14_18
REMARK    9  A    between atoms: C15_19  and  C16_20
REMARK   10  A    between atoms: C19_24  and  C20_25
REMARK   11  A    between atoms: C20_25  and  C21_27
REMARK   12  A    between atoms: C21_27  and  O6_28
REMARK   13  A    between atoms: C21_27  and  C22_30
REMARK   14  A    between atoms: C29_37  and  O7_38
ROOT
HETATM    1  C11 UNL     1      26.021 -23.344 -23.346  1.00  0.00     0.266 C
HETATM    2  O3  UNL     1      27.029 -23.789 -22.753  1.00  0.00    -0.265 OA
ENDROOT
BRANCH   1   3
HETATM    3  O2  UNL     1      24.868 -24.082 -23.377  1.00  0.00    -0.317 OA
BRANCH   3   4
HETATM    4  C10 UNL     1      24.113 -24.458 -22.210  1.00  0.00     0.206 C
BRANCH   4   5
HETATM    5  C9  UNL     1      23.573 -23.307 -21.520  1.00  0.00     0.000 C
HETATM    6  C8  UNL     1      23.888 -22.680 -20.450  1.00  0.00     0.005 C
BRANCH   6   7
HETATM    7  C7  UNL     1      24.914 -22.844 -19.464  1.00  0.00    -0.056 C
HETATM    8  C6  UNL     1      24.560 -23.499 -18.342  1.00  0.00    -0.016 C
HETATM    9  C5  UNL     1      25.538 -23.713 -17.285  1.00  0.00     0.073 C
HETATM   10  C4  UNL     1      26.890 -24.113 -17.840  1.00  0.00     0.110 C
HETATM   11  C29 UNL     1      27.355 -23.189 -18.899  1.00  0.00     0.165 C
HETATM   12  C27 UNL     1      26.278 -22.375 -19.582  1.00  0.00     0.046 C
HETATM   13  C28 UNL     1      26.319 -20.960 -18.999  1.00  0.00     0.017 C
BRANCH  10  14
HETATM   14  C2  UNL     1      27.851 -24.144 -16.732  1.00  0.00    -0.056 C
HETATM   15  C1  UNL     1      28.562 -25.234 -16.507  1.00  0.00     0.017 C
HETATM   16  C3  UNL     1      28.036 -22.966 -15.864  1.00  0.00     0.046 C
ENDBRANCH  10  14
BRANCH  10  17
HETATM   17  O1  UNL     1      26.744 -25.413 -18.378  1.00  0.00    -0.382 OA
ATOM     18  H1  UNL     1      26.568 -25.355 -19.309  1.00  0.00     0.211 HD
ENDBRANCH  10  17
BRANCH  11  19
HETATM   19  O7  UNL     1      27.995 -23.948 -19.875  1.00  0.00    -0.392 OA
ATOM     20  H7  UNL     1      27.360 -24.562 -20.226  1.00  0.00     0.210 HD
ENDBRANCH  11  19
ENDBRANCH   6   7
ENDBRANCH   4   5
ENDBRANCH   3   4
ENDBRANCH   1   3
BRANCH   1  21
HETATM   21  C12 UNL     1      26.139 -22.002 -23.998  1.00  0.00     0.104 C
HETATM   22  C13 UNL     1      26.794 -21.077 -22.996  1.00  0.00     0.025 C
BRANCH  21  23
HETATM   23  C14 UNL     1      24.810 -21.469 -24.359  1.00  0.00    -0.016 C
HETATM   24  C15 UNL     1      24.234 -20.576 -23.581  1.00  0.00    -0.017 C
BRANCH  24  25
HETATM   25  C16 UNL     1      22.898 -19.990 -23.877  1.00  0.00     0.082 C
HETATM   26  C17 UNL     1      23.120 -18.537 -24.105  1.00  0.00     0.135 C
HETATM   27  O4  UNL     1      23.512 -18.063 -25.150  1.00  0.00    -0.297 OA
HETATM   28  C18 UNL     1      22.785 -17.790 -22.864  1.00  0.00     0.091 C
HETATM   29  C19 UNL     1      22.686 -18.853 -21.822  1.00  0.00     0.070 C
HETATM   30  C25 UNL     1      22.098 -20.027 -22.574  1.00  0.00     0.008 C
HETATM   31  C26 UNL     1      20.655 -19.737 -22.891  1.00  0.00     0.012 C
BRANCH  29  32
HETATM   32  C20 UNL     1      21.866 -18.486 -20.647  1.00  0.00     0.160 C
HETATM   33  O5  UNL     1      21.361 -17.388 -20.600  1.00  0.00    -0.295 OA
BRANCH  32  34
HETATM   34  C21 UNL     1      21.651 -19.433 -19.534  1.00  0.00     0.191 C
BRANCH  34  35
HETATM   35  O6  UNL     1      20.326 -19.569 -19.187  1.00  0.00    -0.388 OA
ATOM     36  H6  UNL     1      20.137 -20.394 -18.754  1.00  0.00     0.210 HD
ENDBRANCH  34  35
BRANCH  34  37
HETATM   37  C22 UNL     1      22.510 -19.074 -18.327  1.00  0.00     0.014 C
HETATM   38  C23 UNL     1      22.897 -20.321 -17.568  1.00  0.00     0.012 C
HETATM   39  C24 UNL     1      21.802 -18.142 -17.398  1.00  0.00     0.012 C
ENDBRANCH  34  37
ENDBRANCH  32  34
ENDBRANCH  29  32
ENDBRANCH  24  25
ENDBRANCH  21  23
ENDBRANCH   1  21
TORSDOF 14
ENDMDL