MODEL 5
REMARK VINA RESULT: -5.546090291      7.738     11.895
REMARK  12 active torsions:
REMARK  status: ('A' for Active; 'I' for Inactive)
REMARK    1  A    between atoms: N1_1  and  N2_4
REMARK       I    between atoms: N2_4  and  C1_6
REMARK    2  A    between atoms: C1_6  and  C2_8
REMARK    3  A    between atoms: C2_8  and  O2_9
REMARK    4  A    between atoms: C2_8  and  C3_11
REMARK    5  A    between atoms: C2_8  and  C11_19
REMARK    6  A    between atoms: C3_11  and  C4_12
REMARK    7  A    between atoms: C4_12  and  C5_13
REMARK    8  A    between atoms: C11_19  and  O3_20
REMARK    9  A    between atoms: O3_20  and  C12_21
REMARK   10  A    between atoms: C13_23  and  O5_24
REMARK   11  A    between atoms: O5_24  and  C14_25
REMARK   12  A    between atoms: C14_25  and  C15_26
ROOT
HETATM    1  C12 UNL     1      27.006 -22.506 -20.949  1.00  0.00     0.269 C
HETATM    2  O4  UNL     1      26.996 -21.089 -21.034  1.00  0.00    -0.331 OA
HETATM    3  C13 UNL     1      26.254 -20.527 -19.978  1.00  0.00     0.268 C
HETATM    4  C21 UNL     1      27.044 -20.826 -18.666  1.00  0.00     0.066 C
HETATM    5  C22 UNL     1      26.978 -22.337 -18.532  1.00  0.00     0.001 C
HETATM    6  C23 UNL     1      27.572 -22.837 -17.256  1.00  0.00     0.005 C
HETATM    7  C24 UNL     1      26.916 -24.076 -16.715  1.00  0.00     0.003 C
HETATM    8  C25 UNL     1      27.149 -25.308 -17.565  1.00  0.00     0.034 C
HETATM    9  C26 UNL     1      26.903 -24.958 -18.981  1.00  0.00     0.151 A
HETATM   10  O6  UNL     1      27.692 -25.363 -20.023  1.00  0.00    -0.375 OA
HETATM   11  C27 UNL     1      28.165 -24.225 -19.471  1.00  0.00     0.160 A
HETATM   12  C28 UNL     1      27.779 -22.850 -19.739  1.00  0.00     0.077 C
ENDROOT
BRANCH   1  13
HETATM   13  O3  UNL     1      27.596 -22.999 -22.079  1.00  0.00    -0.357 OA
BRANCH  13  14
HETATM   14  C11 UNL     1      27.399 -22.261 -23.218  1.00  0.00     0.219 C
BRANCH  14  15
HETATM   15  C2  UNL     1      26.509 -22.950 -24.225  1.00  0.00     0.161 C
BRANCH  15  16
HETATM   16  C1  UNL     1      27.044 -22.933 -25.601  1.00  0.00     0.272 C
HETATM   17  N2  UNL     1      26.628 -22.040 -26.601  1.00  0.00    -0.274 N
ATOM     18  H2  UNL     1      25.912 -21.347 -26.386  1.00  0.00     0.189 HD
HETATM   19  O1  UNL     1      27.948 -23.780 -25.922  1.00  0.00    -0.268 OA
BRANCH  17  20
HETATM   20  N1  UNL     1      27.172 -22.083 -27.877  1.00  0.00    -0.343 N
ATOM     21  H12 UNL     1      27.931 -22.741 -28.059  1.00  0.00     0.176 HD
ATOM     22  H11 UNL     1      26.828 -21.476 -28.621  1.00  0.00     0.176 HD
ENDBRANCH  17  20
ENDBRANCH  15  16
BRANCH  15  23
HETATM   23  O2  UNL     1      26.518 -24.320 -23.814  1.00  0.00    -0.378 OA
ATOM     24  H2  UNL     1      27.009 -24.348 -23.001  1.00  0.00     0.211 HD
ENDBRANCH  15  23
BRANCH  15  25
HETATM   25  C3  UNL     1      25.068 -22.554 -24.112  1.00  0.00     0.051 C
BRANCH  25  26
HETATM   26  C4  UNL     1      24.785 -21.175 -23.654  1.00  0.00     0.008 C
BRANCH  26  27
HETATM   27  C5  UNL     1      23.443 -20.677 -24.222  1.00  0.00    -0.014 C
HETATM   28  C6  UNL     1      22.680 -20.044 -23.083  1.00  0.00     0.004 C
HETATM   29  C7  UNL     1      23.222 -18.696 -22.695  1.00  0.00     0.000 C
HETATM   30  C8  UNL     1      23.089 -17.739 -23.844  1.00  0.00     0.000 C
HETATM   31  C9  UNL     1      22.698 -18.489 -25.114  1.00  0.00     0.000 C
HETATM   32  C10 UNL     1      23.632 -19.655 -25.299  1.00  0.00     0.004 C
ENDBRANCH  26  27
ENDBRANCH  25  26
ENDBRANCH  15  25
ENDBRANCH  14  15
ENDBRANCH  13  14
ENDBRANCH   1  13
BRANCH   3  33
HETATM   33  O5  UNL     1      25.050 -21.056 -19.979  1.00  0.00    -0.332 OA
BRANCH  33  34
HETATM   34  C14 UNL     1      23.897 -20.559 -19.569  1.00  0.00     0.144 C
BRANCH  34  35
HETATM   35  C15 UNL     1      23.338 -20.874 -18.243  1.00  0.00    -0.040 C
HETATM   36  C16 UNL     1      23.493 -22.112 -17.718  1.00  0.00    -0.018 C
HETATM   37  C17 UNL     1      22.997 -22.567 -16.424  1.00  0.00     0.028 C
HETATM   38  C18 UNL     1      22.003 -21.639 -15.782  1.00  0.00     0.004 C
HETATM   39  C19 UNL     1      21.438 -20.646 -16.771  1.00  0.00     0.005 C
HETATM   40  C20 UNL     1      22.631 -19.920 -17.385  1.00  0.00     0.040 C
ENDBRANCH  34  35
ENDBRANCH  33  34
ENDBRANCH   3  33
TORSDOF 12
ENDMDL