MODEL 2
REMARK VINA RESULT: -5.326113646      6.287      8.305
REMARK  14 active torsions:
REMARK  status: ('A' for Active; 'I' for Inactive)
REMARK    1  A    between atoms: C2_2  and  C4_4
REMARK    2  A    between atoms: C10_10  and  O1_11
REMARK    3  A    between atoms: C12_14  and  O2_15
REMARK    4  A    between atoms: C15_19  and  C16_20
REMARK    5  A    between atoms: C16_20  and  C17_22
REMARK    6  A    between atoms: C18_23  and  C19_24
REMARK    7  A    between atoms: C19_24  and  C21_26
REMARK    8  A    between atoms: C21_26  and  O4_27
REMARK    9  A    between atoms: C21_26  and  O5_29
REMARK   10  A    between atoms: C21_26  and  C23_31
REMARK   11  A    between atoms: C23_31  and  C24_32
REMARK   12  A    between atoms: C23_31  and  C28_36
REMARK   13  A    between atoms: C24_32  and  C25_33
REMARK   14  A    between atoms: C28_36  and  O7_38
ROOT
HETATM    1  C16 UNL     1      19.554 -18.764 -15.132  1.00  0.00     0.155 C
HETATM    2  O3  UNL     1      18.281 -18.593 -15.090  1.00  0.00    -0.293 OA
ENDROOT
BRANCH   1   3
HETATM    3  C15 UNL     1      20.230 -19.220 -16.356  1.00  0.00     0.079 C
HETATM    4  C4  UNL     1      21.391 -20.093 -16.156  1.00  0.00     0.025 C
HETATM    5  C5  UNL     1      22.501 -20.024 -17.168  1.00  0.00     0.010 C
HETATM    6  C6  UNL     1      22.504 -18.951 -18.168  1.00  0.00     0.010 C
HETATM    7  C7  UNL     1      21.105 -18.662 -18.608  1.00  0.00     0.028 C
HETATM    8  C8  UNL     1      20.982 -17.762 -19.752  1.00  0.00    -0.056 C
HETATM    9  C13 UNL     1      20.421 -18.103 -17.361  1.00  0.00     0.001 C
HETATM   10  C9  UNL     1      21.601 -18.135 -20.872  1.00  0.00     0.017 C
HETATM   11  C10 UNL     1      20.233 -16.479 -19.780  1.00  0.00     0.149 C
HETATM   12  C11 UNL     1      19.342 -16.283 -18.587  1.00  0.00     0.068 C
HETATM   13  C12 UNL     1      19.088 -17.559 -17.835  1.00  0.00     0.130 C
HETATM   14  C14 UNL     1      21.204 -16.991 -16.750  1.00  0.00     0.019 C
BRANCH   4  15
HETATM   15  C2  UNL     1      21.098 -21.502 -15.805  1.00  0.00    -0.088 C
HETATM   16  C1  UNL     1      20.362 -22.302 -16.505  1.00  0.00     0.014 C
HETATM   17  C3  UNL     1      21.689 -22.066 -14.536  1.00  0.00     0.043 C
ENDBRANCH   4  15
BRANCH  11  18
HETATM   18  O1  UNL     1      19.543 -16.328 -20.984  1.00  0.00    -0.391 OA
ATOM     19  H1  UNL     1      18.652 -16.646 -20.909  1.00  0.00     0.210 HD
ENDBRANCH  11  18
BRANCH  13  20
HETATM   20  O2  UNL     1      18.595 -18.488 -18.770  1.00  0.00    -0.395 OA
ATOM     21  H2  UNL     1      19.198 -18.483 -19.503  1.00  0.00     0.210 HD
ENDBRANCH  13  20
ENDBRANCH   1   3
BRANCH   1  22
HETATM   22  C17 UNL     1      20.274 -18.473 -13.887  1.00  0.00     0.051 C
HETATM   23  C18 UNL     1      20.029 -19.133 -12.799  1.00  0.00     0.015 C
BRANCH  23  24
HETATM   24  C19 UNL     1      20.607 -19.020 -11.491  1.00  0.00    -0.005 C
HETATM   25  C20 UNL     1      21.765 -19.733 -11.340  1.00  0.00     0.024 C
BRANCH  24  26
HETATM   26  C21 UNL     1      20.196 -18.248 -10.354  1.00  0.00     0.202 C
BRANCH  26  27
HETATM   27  O4  UNL     1      20.742 -18.829  -9.147  1.00  0.00    -0.361 OA
ATOM     28  H4  UNL     1      20.423 -18.353  -8.390  1.00  0.00     0.213 HD
ENDBRANCH  26  27
BRANCH  26  29
HETATM   29  O5  UNL     1      18.793 -18.492 -10.126  1.00  0.00    -0.355 OA
HETATM   30  C22 UNL     1      18.597 -19.535  -9.261  1.00  0.00     0.206 C
ENDBRANCH  26  29
BRANCH  26  31
HETATM   31  C23 UNL     1      20.441 -16.793 -10.216  1.00  0.00     0.153 C
BRANCH  31  32
HETATM   32  C24 UNL     1      21.432 -16.207 -11.152  1.00  0.00     0.024 C
BRANCH  32  33
HETATM   33  C25 UNL     1      20.926 -15.032 -11.970  1.00  0.00    -0.022 C
HETATM   34  C26 UNL     1      21.753 -15.083 -13.275  1.00  0.00     0.009 C
HETATM   35  C27 UNL     1      19.503 -15.155 -12.396  1.00  0.00     0.009 C
ENDBRANCH  32  33
ENDBRANCH  31  32
BRANCH  31  36
HETATM   36  C28 UNL     1      20.611 -16.294  -8.828  1.00  0.00     0.268 C
HETATM   37  O6  UNL     1      19.645 -16.156  -8.075  1.00  0.00    -0.265 OA
BRANCH  36  38
HETATM   38  O7  UNL     1      21.859 -15.968  -8.326  1.00  0.00    -0.326 OA
HETATM   39  C29 UNL     1      22.123 -14.661  -7.800  1.00  0.00     0.213 C
ENDBRANCH  36  38
ENDBRANCH  31  36
ENDBRANCH  26  31
ENDBRANCH  24  26
ENDBRANCH  23  24
ENDBRANCH   1  22
TORSDOF 14
ENDMDL