MODEL 4
REMARK VINA RESULT: -5.920346595      1.968      2.923
REMARK  12 active torsions:
REMARK  status: ('A' for Active; 'I' for Inactive)
REMARK    1  A    between atoms: C2_2  and  N1_3
REMARK    2  A    between atoms: N1_3  and  C3_4
REMARK    3  A    between atoms: N1_3  and  C5_6
REMARK    4  A    between atoms: C5_6  and  C6_7
REMARK    5  A    between atoms: C6_7  and  C7_8
REMARK    6  A    between atoms: C7_8  and  O1_9
REMARK    7  A    between atoms: O1_9  and  N2_10
REMARK    8  A    between atoms: C8_12  and  C9_13
REMARK    9  A    between atoms: C9_13  and  C11_16
REMARK   10  A    between atoms: C20_25  and  O2_26
REMARK   11  A    between atoms: C22_29  and  O3_30
REMARK   12  A    between atoms: C26_35  and  O4_36
ROOT
HETATM    1  C9  UNL     1      21.489 -18.986 -19.505  1.00  0.00     0.138 C
HETATM    2  C10 UNL     1      22.027 -18.432 -20.746  1.00  0.00     0.069 C
HETATM    3  N3  UNL     1      22.435 -17.978 -21.732  1.00  0.00    -0.197 NA
ENDROOT
BRANCH   1   4
HETATM    4  C8  UNL     1      20.933 -17.857 -18.667  1.00  0.00     0.106 C
HETATM    5  N2  UNL     1      20.777 -16.683 -19.106  1.00  0.00    -0.281 N
ATOM      6  H2  UNL     1      21.029 -16.453 -20.067  1.00  0.00     0.193 HD
BRANCH   5   7
HETATM    7  O1  UNL     1      20.265 -15.719 -18.275  1.00  0.00    -0.281 OA
BRANCH   7   8
HETATM    8  C7  UNL     1      21.117 -14.688 -17.848  1.00  0.00     0.203 C
BRANCH   8   9
HETATM    9  C6  UNL     1      21.223 -14.636 -16.334  1.00  0.00     0.059 C
BRANCH   9  10
HETATM   10  C5  UNL     1      20.276 -15.583 -15.667  1.00  0.00     0.274 C
BRANCH  10  11
HETATM   11  N1  UNL     1      20.502 -15.605 -14.261  1.00  0.00     0.087 N
BRANCH  11  12
HETATM   12  C2  UNL     1      21.570 -14.708 -13.850  1.00  0.00     0.268 C
HETATM   13  C1  UNL     1      22.263 -15.330 -12.659  1.00  0.00     0.037 C
ENDBRANCH  11  12
BRANCH  11  14
HETATM   14  C3  UNL     1      20.580 -16.882 -13.642  1.00  0.00     0.268 C
HETATM   15  C4  UNL     1      20.402 -18.037 -14.591  1.00  0.00     0.037 C
ENDBRANCH  11  14
ENDBRANCH  10  11
ENDBRANCH   9  10
ENDBRANCH   8   9
ENDBRANCH   7   8
ENDBRANCH   5   7
ENDBRANCH   1   4
BRANCH   1  16
HETATM   16  C11 UNL     1      22.546 -19.639 -18.714  1.00  0.00     0.017 C
HETATM   17  C12 UNL     1      21.935 -19.961 -17.338  1.00  0.00     0.007 C
HETATM   18  C13 UNL     1      22.395 -21.393 -17.015  1.00  0.00     0.006 C
HETATM   19  C14 UNL     1      23.624 -21.446 -17.821  1.00  0.00    -0.001 C
HETATM   20  C15 UNL     1      24.404 -22.677 -17.887  1.00  0.00    -0.002 C
HETATM   21  C28 UNL     1      23.082 -20.941 -19.168  1.00  0.00    -0.033 C
HETATM   22  C16 UNL     1      24.880 -23.066 -16.535  1.00  0.00     0.006 C
HETATM   23  C25 UNL     1      25.640 -22.368 -18.753  1.00  0.00     0.030 C
HETATM   24  C17 UNL     1      25.554 -24.391 -16.624  1.00  0.00     0.006 C
HETATM   25  C18 UNL     1      26.440 -24.572 -17.820  1.00  0.00    -0.001 C
HETATM   26  C19 UNL     1      25.995 -25.701 -18.677  1.00  0.00     0.037 C
HETATM   27  C23 UNL     1      26.765 -23.279 -18.526  1.00  0.00    -0.008 C
HETATM   28  C20 UNL     1      26.468 -25.814 -20.055  1.00  0.00     0.121 C
HETATM   29  C21 UNL     1      27.158 -24.636 -20.641  1.00  0.00     0.064 C
HETATM   30  C22 UNL     1      27.641 -23.620 -19.683  1.00  0.00     0.129 C
HETATM   31  C24 UNL     1      27.733 -22.555 -17.548  1.00  0.00     0.019 C
HETATM   32  C26 UNL     1      25.079 -22.169 -20.108  1.00  0.00     0.124 C
HETATM   33  C27 UNL     1      24.245 -20.866 -20.092  1.00  0.00     0.042 C
HETATM   34  C29 UNL     1      22.003 -21.885 -19.586  1.00  0.00     0.016 C
BRANCH  28  35
HETATM   35  O2  UNL     1      27.239 -26.996 -20.232  1.00  0.00    -0.395 OA
ATOM     36  H2  UNL     1      28.097 -26.904 -19.834  1.00  0.00     0.210 HD
ENDBRANCH  28  35
BRANCH  30  37
HETATM   37  O3  UNL     1      28.146 -22.509 -20.360  1.00  0.00    -0.395 OA
ATOM     38  H3  UNL     1      27.516 -21.798 -20.351  1.00  0.00     0.210 HD
ENDBRANCH  30  37
BRANCH  32  39
HETATM   39  O4  UNL     1      24.097 -23.100 -20.488  1.00  0.00    -0.395 OA
ATOM     40  H4  UNL     1      23.210 -22.762 -20.509  1.00  0.00     0.210 HD
ENDBRANCH  32  39
ENDBRANCH   1  16
TORSDOF 12
ENDMDL