MODEL 3
REMARK VINA RESULT: -5.000206308      1.791      2.714
REMARK  14 active torsions:
REMARK  status: ('A' for Active; 'I' for Inactive)
REMARK    1  A    between atoms: C2_2  and  C3_3
REMARK    2  A    between atoms: C3_3  and  O1_4
REMARK    3  A    between atoms: C3_3  and  C4_6
REMARK    4  A    between atoms: C4_6  and  C5_7
REMARK    5  A    between atoms: C5_7  and  C6_8
REMARK    6  A    between atoms: C6_8  and  C7_9
REMARK    7  A    between atoms: C7_9  and  C9_11
REMARK    8  A    between atoms: C9_11  and  C10_12
REMARK    9  A    between atoms: C15_20  and  C16_21
REMARK   10  A    between atoms: C16_21  and  C17_22
REMARK   11  A    between atoms: C26_31  and  O5_32
REMARK   12  A    between atoms: C26_31  and  C27_34
REMARK   13  A    between atoms: C27_34  and  O6_35
REMARK   14  A    between atoms: C28_37  and  O7_38
ROOT
HETATM    1  C10 UNL     1      24.298 -23.435 -16.830  1.00  0.00     0.021 C
HETATM    2  C11 UNL     1      25.348 -24.323 -17.360  1.00  0.00     0.047 C
HETATM    3  C12 UNL     1      25.949 -24.079 -18.640  1.00  0.00     0.091 A
HETATM    4  O2  UNL     1      26.469 -25.236 -19.321  1.00  0.00    -0.306 OA
HETATM    5  C13 UNL     1      27.868 -25.025 -19.419  1.00  0.00     0.290 C
HETATM    6  O3  UNL     1      28.750 -25.883 -19.637  1.00  0.00    -0.262 OA
HETATM    7  C14 UNL     1      28.042 -23.606 -19.210  1.00  0.00     0.237 C
HETATM    8  O4  UNL     1      28.440 -22.753 -20.204  1.00  0.00    -0.358 OA
HETATM    9  C15 UNL     1      27.136 -22.545 -20.486  1.00  0.00     0.097 C
HETATM   10  C21 UNL     1      26.552 -21.187 -20.560  1.00  0.00     0.009 C
HETATM   11  C22 UNL     1      25.551 -20.771 -19.803  1.00  0.00    -0.019 C
HETATM   12  C23 UNL     1      24.985 -21.727 -18.822  1.00  0.00     0.055 C
HETATM   13  C24 UNL     1      25.352 -23.073 -19.362  1.00  0.00     0.050 A
HETATM   14  C25 UNL     1      26.768 -23.045 -19.162  1.00  0.00     0.070 A
HETATM   15  C26 UNL     1      23.577 -21.680 -18.483  1.00  0.00     0.112 C
HETATM   16  C28 UNL     1      23.230 -22.995 -17.805  1.00  0.00     0.162 C
ENDROOT
BRANCH   1  17
HETATM   17  C9  UNL     1      23.590 -24.216 -15.743  1.00  0.00     0.011 C
BRANCH  17  18
HETATM   18  C7  UNL     1      23.901 -23.668 -14.365  1.00  0.00    -0.018 C
HETATM   19  C8  UNL     1      22.711 -23.465 -13.489  1.00  0.00     0.010 C
BRANCH  18  20
HETATM   20  C6  UNL     1      24.858 -24.642 -13.697  1.00  0.00     0.004 C
BRANCH  20  21
HETATM   21  C5  UNL     1      25.826 -23.976 -12.781  1.00  0.00     0.003 C
BRANCH  21  22
HETATM   22  C4  UNL     1      27.208 -24.130 -13.417  1.00  0.00     0.032 C
BRANCH  22  23
HETATM   23  C3  UNL     1      27.586 -22.873 -14.176  1.00  0.00     0.117 C
BRANCH  23  24
HETATM   24  C2  UNL     1      28.220 -23.266 -15.475  1.00  0.00     0.027 C
HETATM   25  C1  UNL     1      28.556 -24.718 -15.569  1.00  0.00     0.007 C
ENDBRANCH  23  24
BRANCH  23  26
HETATM   26  O1  UNL     1      28.442 -22.098 -13.433  1.00  0.00    -0.396 OA
ATOM     27  H1  UNL     1      28.140 -21.197 -13.407  1.00  0.00     0.210 HD
ENDBRANCH  23  26
ENDBRANCH  22  23
ENDBRANCH  21  22
ENDBRANCH  20  21
ENDBRANCH  18  20
ENDBRANCH  17  18
ENDBRANCH   1  17
BRANCH  16  28
HETATM   28  O7  UNL     1      21.983 -22.944 -17.206  1.00  0.00    -0.387 OA
HETATM   29  C29 UNL     1      21.017 -23.749 -17.738  1.00  0.00     0.202 C
ENDBRANCH  16  28
BRANCH  15  30
HETATM   30  O5  UNL     1      23.383 -20.605 -17.574  1.00  0.00    -0.384 OA
ATOM     31  H5  UNL     1      22.820 -19.966 -17.994  1.00  0.00     0.210 HD
ENDBRANCH  15  30
BRANCH  15  32
HETATM   32  C27 UNL     1      22.701 -21.348 -19.650  1.00  0.00     0.205 C
BRANCH  32  33
HETATM   33  O6  UNL     1      21.525 -20.707 -19.372  1.00  0.00    -0.398 OA
ATOM     34  H6  UNL     1      21.333 -19.930 -19.881  1.00  0.00     0.209 HD
ENDBRANCH  32  33
ENDBRANCH  15  32
BRANCH   9  35
HETATM   35  C16 UNL     1      26.742 -23.286 -21.735  1.00  0.00     0.070 C
BRANCH  35  36
HETATM   36  C17 UNL     1      26.499 -22.266 -22.792  1.00  0.00    -0.021 C
HETATM   37  C18 UNL     1      25.336 -22.097 -23.402  1.00  0.00    -0.091 C
HETATM   38  C19 UNL     1      25.132 -21.062 -24.459  1.00  0.00     0.042 C
HETATM   39  C20 UNL     1      24.178 -22.953 -23.040  1.00  0.00     0.042 C
ENDBRANCH  35  36
ENDBRANCH   9  35
TORSDOF 14
ENDMDL