MODEL 2
REMARK VINA RESULT: -5.076365417      5.060      8.534
REMARK  13 active torsions:
REMARK  status: ('A' for Active; 'I' for Inactive)
REMARK    1  A    between atoms: C2_2  and  C3_3
REMARK    2  A    between atoms: C5_5  and  C7_7
REMARK    3  A    between atoms: C7_7  and  C8_8
REMARK    4  A    between atoms: C8_8  and  C9_9
REMARK    5  A    between atoms: C9_9  and  C10_10
REMARK    6  A    between atoms: C10_10  and  O1_11
REMARK    7  A    between atoms: C10_10  and  C11_13
REMARK    8  A    between atoms: C11_13  and  C14_16
REMARK    9  A    between atoms: C21_24  and  C22_25
REMARK   10  A    between atoms: C22_25  and  O3_26
REMARK   11  A    between atoms: C25_31  and  O5_32
REMARK   12  A    between atoms: C27_35  and  O6_36
REMARK   13  A    between atoms: O6_36  and  C28_37
ROOT
HETATM    1  C3  UNL     1      27.576 -25.246 -18.650  1.00  0.00    -0.018 C
HETATM    2  C4  UNL     1      27.167 -24.775 -17.467  1.00  0.00    -0.015 C
HETATM    3  C5  UNL     1      27.799 -25.110 -16.237  1.00  0.00    -0.054 C
HETATM    4  C6  UNL     1      28.064 -26.359 -15.589  1.00  0.00     0.049 C
HETATM    5  C16 UNL     1      26.048 -23.777 -17.372  1.00  0.00    -0.041 C
HETATM    6  C17 UNL     1      24.967 -24.068 -16.738  1.00  0.00    -0.022 C
HETATM    7  C18 UNL     1      24.584 -25.312 -16.040  1.00  0.00     0.036 C
HETATM    8  C19 UNL     1      25.997 -22.447 -18.101  1.00  0.00     0.082 C
HETATM    9  C20 UNL     1      24.605 -22.017 -18.270  1.00  0.00     0.024 C
HETATM   10  C21 UNL     1      24.561 -20.832 -19.261  1.00  0.00     0.039 C
HETATM   11  C23 UNL     1      25.195 -21.316 -20.516  1.00  0.00     0.127 C
HETATM   12  C24 UNL     1      25.076 -20.337 -21.659  1.00  0.00     0.040 C
HETATM   13  O4  UNL     1      26.526 -21.584 -20.250  1.00  0.00    -0.349 OA
HETATM   14  C25 UNL     1      26.723 -22.676 -19.447  1.00  0.00     0.172 C
HETATM   15  C26 UNL     1      26.167 -23.865 -20.112  1.00  0.00     0.106 C
HETATM   16  C27 UNL     1      27.055 -25.116 -20.044  1.00  0.00     0.171 C
ENDROOT
BRANCH   1  17
HETATM   17  C2  UNL     1      28.717 -26.082 -18.545  1.00  0.00     0.000 C
HETATM   18  C1  UNL     1      29.590 -26.249 -19.520  1.00  0.00     0.012 C
ENDBRANCH   1  17
BRANCH   3  19
HETATM   19  C7  UNL     1      28.595 -23.942 -15.735  1.00  0.00    -0.019 C
BRANCH  19  20
HETATM   20  C8  UNL     1      28.029 -22.957 -14.814  1.00  0.00     0.030 C
BRANCH  20  21
HETATM   21  C9  UNL     1      27.089 -23.360 -13.742  1.00  0.00     0.036 C
BRANCH  21  22
HETATM   22  C10 UNL     1      27.249 -22.364 -12.561  1.00  0.00     0.133 C
BRANCH  22  23
HETATM   23  O1  UNL     1      28.517 -21.810 -12.692  1.00  0.00    -0.394 OA
ATOM     24  H1  UNL     1      28.791 -21.567 -11.816  1.00  0.00     0.210 HD
ENDBRANCH  22  23
BRANCH  22  25
HETATM   25  C11 UNL     1      27.094 -23.105 -11.267  1.00  0.00     0.038 C
HETATM   26  C12 UNL     1      27.210 -24.592 -11.474  1.00  0.00     0.025 C
HETATM   27  C13 UNL     1      25.790 -22.814 -10.578  1.00  0.00     0.025 C
BRANCH  25  28
HETATM   28  C14 UNL     1      28.191 -22.712 -10.310  1.00  0.00     0.133 C
HETATM   29  C15 UNL     1      27.838 -21.847  -9.136  1.00  0.00     0.091 C
HETATM   30  O2  UNL     1      29.336 -23.054 -10.432  1.00  0.00    -0.297 OA
ENDBRANCH  25  28
ENDBRANCH  22  25
ENDBRANCH  21  22
ENDBRANCH  20  21
ENDBRANCH  19  20
ENDBRANCH   3  19
BRANCH  16  31
HETATM   31  O6  UNL     1      26.198 -26.223 -20.336  1.00  0.00    -0.311 OA
BRANCH  31  32
HETATM   32  C28 UNL     1      25.225 -26.764 -19.570  1.00  0.00     0.255 C
HETATM   33  C29 UNL     1      25.450 -27.967 -18.684  1.00  0.00     0.126 C
HETATM   34  O7  UNL     1      24.076 -26.254 -19.588  1.00  0.00    -0.266 OA
ENDBRANCH  31  32
ENDBRANCH  16  31
BRANCH  14  35
HETATM   35  O5  UNL     1      28.073 -22.735 -19.129  1.00  0.00    -0.365 OA
ATOM     36  H5  UNL     1      28.491 -23.130 -19.884  1.00  0.00     0.213 HD
ENDBRANCH  14  35
BRANCH  10  37
HETATM   37  C22 UNL     1      23.137 -20.368 -19.450  1.00  0.00     0.171 C
BRANCH  37  38
HETATM   38  O3  UNL     1      22.710 -19.549 -18.429  1.00  0.00    -0.400 OA
ATOM     39  H3  UNL     1      21.847 -19.785 -18.110  1.00  0.00     0.209 HD
ENDBRANCH  37  38
ENDBRANCH  10  37
TORSDOF 13
ENDMDL