MODEL 5
REMARK VINA RESULT: -4.179005303      4.795     10.473
REMARK  14 active torsions:
REMARK  status: ('A' for Active; 'I' for Inactive)
REMARK    1  A    between atoms: C2_2  and  C3_3
REMARK    2  A    between atoms: C6_6  and  C7_7
REMARK    3  A    between atoms: C7_7  and  O1_8
REMARK    4  A    between atoms: C9_11  and  O2_12
REMARK    5  A    between atoms: C13_17  and  O3_18
REMARK    6  A    between atoms: C14_21  and  C15_22
REMARK    7  A    between atoms: C16_23  and  C17_24
REMARK    8  A    between atoms: C17_24  and  C18_25
REMARK    9  A    between atoms: C24_32  and  C25_33
REMARK   10  A    between atoms: C25_33  and  O6_35
REMARK   11  A    between atoms: O6_35  and  C27_36
REMARK   12  A    between atoms: C27_36  and  C28_37
REMARK   13  A    between atoms: C28_37  and  C29_38
REMARK   14  A    between atoms: C29_38  and  O7_39
ROOT
HETATM    1  C3  UNL     1      26.248 -24.242 -22.150  1.00  0.00     0.021 C
HETATM    2  C4  UNL     1      24.809 -24.369 -21.749  1.00  0.00     0.027 C
HETATM    3  C5  UNL     1      27.197 -25.050 -21.352  1.00  0.00    -0.006 C
HETATM    4  C6  UNL     1      27.340 -25.245 -20.070  1.00  0.00    -0.056 C
HETATM    5  C8  UNL     1      26.536 -24.707 -18.960  1.00  0.00     0.079 C
HETATM    6  C9  UNL     1      26.853 -23.421 -18.337  1.00  0.00     0.099 C
HETATM    7  C10 UNL     1      25.668 -22.443 -18.406  1.00  0.00     0.034 C
HETATM    8  C11 UNL     1      25.495 -21.497 -19.280  1.00  0.00     0.009 C
HETATM    9  C12 UNL     1      24.286 -20.621 -19.208  1.00  0.00     0.054 C
HETATM   10  C13 UNL     1      26.389 -21.193 -20.410  1.00  0.00     0.185 C
HETATM   11  O4  UNL     1      26.925 -22.067 -21.262  1.00  0.00    -0.320 OA
HETATM   12  C14 UNL     1      26.731 -22.816 -22.352  1.00  0.00     0.169 C
HETATM   13  C21 UNL     1      24.834 -22.872 -17.274  1.00  0.00     0.163 C
HETATM   14  O5  UNL     1      23.609 -22.657 -17.067  1.00  0.00    -0.292 OA
HETATM   15  C22 UNL     1      25.650 -23.671 -16.287  1.00  0.00     0.066 C
HETATM   16  C23 UNL     1      25.087 -25.014 -16.193  1.00  0.00     0.018 C
HETATM   17  C24 UNL     1      26.986 -23.411 -16.821  1.00  0.00     0.065 C
ENDROOT
BRANCH  17  18
HETATM   18  C25 UNL     1      28.211 -23.730 -16.124  1.00  0.00     0.125 C
HETATM   19  C26 UNL     1      28.277 -25.236 -15.767  1.00  0.00     0.040 C
BRANCH  18  20
HETATM   20  O6  UNL     1      28.210 -23.145 -14.828  1.00  0.00    -0.386 OA
BRANCH  20  21
HETATM   21  C27 UNL     1      27.754 -23.855 -13.800  1.00  0.00     0.170 C
BRANCH  21  22
HETATM   22  C28 UNL     1      26.943 -23.186 -12.729  1.00  0.00     0.052 C
BRANCH  22  23
HETATM   23  C29 UNL     1      27.636 -22.095 -11.997  1.00  0.00     0.166 C
BRANCH  23  24
HETATM   24  O7  UNL     1      28.575 -21.426 -12.783  1.00  0.00    -0.401 OA
ATOM     25  H7  UNL     1      29.444 -21.421 -12.397  1.00  0.00     0.209 HD
ENDBRANCH  23  24
ENDBRANCH  22  23
ENDBRANCH  21  22
ENDBRANCH  20  21
ENDBRANCH  18  20
ENDBRANCH  17  18
BRANCH   6  26
HETATM   26  O2  UNL     1      28.012 -22.899 -18.845  1.00  0.00    -0.384 OA
ATOM     27  H2  UNL     1      28.764 -23.419 -18.587  1.00  0.00     0.211 HD
ENDBRANCH   6  26
BRANCH   4  28
HETATM   28  C7  UNL     1      28.499 -26.198 -19.740  1.00  0.00     0.198 C
BRANCH  28  29
HETATM   29  O1  UNL     1      29.713 -25.603 -19.830  1.00  0.00    -0.397 OA
ATOM     30  H1  UNL     1      30.298 -26.046 -20.434  1.00  0.00     0.209 HD
ENDBRANCH  28  29
ENDBRANCH   4  28
BRANCH  10  31
HETATM   31  O3  UNL     1      26.699 -19.939 -20.610  1.00  0.00    -0.341 OA
ATOM     32  H3  UNL     1      27.315 -19.748 -21.307  1.00  0.00     0.220 HD
ENDBRANCH  10  31
BRANCH   1  33
HETATM   33  C2  UNL     1      26.223 -24.844 -23.586  1.00  0.00    -0.021 C
HETATM   34  C1  UNL     1      26.207 -26.122 -23.788  1.00  0.00     0.008 C
ENDBRANCH   1  33
BRANCH  12  35
HETATM   35  C15 UNL     1      25.941 -22.240 -23.485  1.00  0.00     0.003 C
HETATM   36  C16 UNL     1      25.221 -21.154 -23.249  1.00  0.00    -0.028 C
BRANCH  36  37
HETATM   37  C17 UNL     1      24.423 -20.554 -24.354  1.00  0.00     0.030 C
BRANCH  37  38
HETATM   38  C18 UNL     1      23.314 -19.691 -23.776  1.00  0.00    -0.019 C
HETATM   39  C19 UNL     1      23.644 -19.328 -22.361  1.00  0.00     0.010 C
HETATM   40  C20 UNL     1      23.273 -18.419 -24.602  1.00  0.00     0.010 C
ENDBRANCH  37  38
ENDBRANCH  36  37
ENDBRANCH  12  35
TORSDOF 14
ENDMDL