MODEL 2
REMARK VINA RESULT: -5.891508117      1.258      1.512
REMARK  12 active torsions:
REMARK  status: ('A' for Active; 'I' for Inactive)
REMARK    1  A    between atoms: C2_2  and  N1_3
REMARK    2  A    between atoms: N1_3  and  C3_4
REMARK    3  A    between atoms: N1_3  and  C5_6
REMARK    4  A    between atoms: C5_6  and  C6_7
REMARK    5  A    between atoms: C8_9  and  O1_10
REMARK    6  A    between atoms: O1_10  and  C9_11
REMARK    7  A    between atoms: C10_14  and  N3_15
REMARK    8  A    between atoms: N3_15  and  C11_17
REMARK    9  A    between atoms: C11_17  and  C12_18
REMARK   10  A    between atoms: C15_21  and  C16_22
REMARK   11  A    between atoms: C16_22  and  N4_23
REMARK   12  A    between atoms: N6_32  and  C20_34
ROOT
HETATM    1  C9  UNL     1      25.284 -22.670 -10.520  1.00  0.00     0.261 A
HETATM    2  N2  UNL     1      24.068 -22.107 -10.910  1.00  0.00    -0.153 N
ATOM      3  H2  UNL     1      23.726 -22.300 -11.851  1.00  0.00     0.188 HD
HETATM    4  C10 UNL     1      23.335 -21.336 -10.122  1.00  0.00     0.695 A
HETATM    5  N5  UNL     1      23.791 -21.089  -8.887  1.00  0.00    -0.022 N
ATOM      6  H5  UNL     1      23.237 -20.496  -8.270  1.00  0.00     0.203 HD
HETATM    7  C19 UNL     1      24.945 -21.589  -8.431  1.00  0.00     0.698 A
HETATM    8  N6  UNL     1      25.429 -21.362  -7.276  1.00  0.00    -0.221 N
ATOM      9  H6  UNL     1      26.317 -21.802  -7.037  1.00  0.00     0.178 HD
HETATM   10  N7  UNL     1      25.682 -22.386  -9.276  1.00  0.00    -0.149 N
HETATM   11  C25 UNL     1      26.928 -22.946  -8.777  1.00  0.00     0.179 C
ENDROOT
BRANCH   1  12
HETATM   12  O1  UNL     1      25.896 -23.419 -11.439  1.00  0.00    -0.261 OA
BRANCH  12  13
HETATM   13  C8  UNL     1      26.285 -23.517 -12.695  1.00  0.00     0.152 A
HETATM   14  C7  UNL     1      25.404 -23.817 -13.770  1.00  0.00     0.067 A
HETATM   15  C6  UNL     1      26.083 -23.847 -14.942  1.00  0.00    -0.004 A
HETATM   16  C26 UNL     1      27.421 -23.564 -14.619  1.00  0.00     0.015 A
HETATM   17  N8  UNL     1      27.484 -23.381 -13.307  1.00  0.00    -0.340 N
HETATM   18  C27 UNL     1      28.542 -23.501 -15.621  1.00  0.00     0.069 C
ATOM     19  H8  UNL     1      28.348 -23.160 -12.811  1.00  0.00     0.167 HD
BRANCH  15  20
HETATM   20  C5  UNL     1      25.631 -24.126 -16.304  1.00  0.00     0.313 C
BRANCH  20  21
HETATM   21  N1  UNL     1      25.278 -23.045 -17.147  1.00  0.00     0.091 N
BRANCH  21  22
HETATM   22  C2  UNL     1      23.849 -22.937 -17.243  1.00  0.00     0.268 C
HETATM   23  C1  UNL     1      23.333 -21.585 -17.539  1.00  0.00     0.037 C
ENDBRANCH  21  22
BRANCH  21  24
HETATM   24  C3  UNL     1      25.939 -22.962 -18.406  1.00  0.00     0.268 C
HETATM   25  C4  UNL     1      26.955 -21.896 -18.611  1.00  0.00     0.037 C
ENDBRANCH  21  24
ENDBRANCH  20  21
ENDBRANCH  15  20
ENDBRANCH  12  13
ENDBRANCH   1  12
BRANCH   4  26
HETATM   26  N3  UNL     1      22.246 -20.863 -10.534  1.00  0.00    -0.225 N
ATOM     27  H3  UNL     1      21.885 -21.284 -11.390  1.00  0.00     0.177 HD
BRANCH  26  28
HETATM   28  C11 UNL     1      21.442 -19.826  -9.981  1.00  0.00     0.142 C
BRANCH  28  29
HETATM   29  C12 UNL     1      21.772 -18.458 -10.608  1.00  0.00     0.004 C
HETATM   30  C13 UNL     1      21.230 -17.420  -9.702  1.00  0.00     0.007 C
HETATM   31  C14 UNL     1      21.345 -16.047 -10.330  1.00  0.00     0.007 C
HETATM   32  C15 UNL     1      20.553 -16.058 -11.594  1.00  0.00     0.011 C
HETATM   33  C17 UNL     1      20.931 -17.132 -12.574  1.00  0.00     0.007 C
HETATM   34  C18 UNL     1      21.210 -18.455 -11.986  1.00  0.00     0.007 C
BRANCH  32  35
HETATM   35  C16 UNL     1      20.757 -14.723 -12.292  1.00  0.00     0.234 C
BRANCH  35  36
HETATM   36  N4  UNL     1      22.133 -14.347 -12.380  1.00  0.00    -0.079 N
ATOM     37  H43 UNL     1      22.337 -13.563 -11.762  1.00  0.00     0.274 HD
ATOM     38  H42 UNL     1      22.733 -15.054 -11.954  1.00  0.00     0.274 HD
ATOM     39  H41 UNL     1      22.428 -14.146 -13.336  1.00  0.00     0.274 HD
ENDBRANCH  35  36
ENDBRANCH  32  35
ENDBRANCH  28  29
ENDBRANCH  26  28
ENDBRANCH   4  26
BRANCH   8  40
HETATM   40  C20 UNL     1      24.812 -20.536  -6.295  1.00  0.00     0.099 C
HETATM   41  C21 UNL     1      23.925 -21.317  -5.337  1.00  0.00     0.026 C
HETATM   42  C22 UNL     1      24.824 -21.884  -4.283  1.00  0.00     0.002 C
HETATM   43  C23 UNL     1      26.225 -21.463  -4.672  1.00  0.00     0.002 C
HETATM   44  C24 UNL     1      25.938 -20.106  -5.323  1.00  0.00     0.026 C
ENDBRANCH   8  40
TORSDOF 12
ENDMDL