MODEL 4
REMARK VINA RESULT: -4.425199919      1.411      3.270
REMARK  3 active torsions:
REMARK  status: ('A' for Active; 'I' for Inactive)
REMARK    1  A    between atoms: N1_1  and  C1_5
REMARK    2  A    between atoms: C1_5  and  C2_6
REMARK    3  A    between atoms: C7_11  and  N2_12
ROOT
HETATM    1  C2  UNL     1      71.177  80.422  28.027  1.00  0.00     0.013 C
HETATM    2  C3  UNL     1      71.180  81.556  28.994  1.00  0.00     0.006 C
HETATM    3  C4  UNL     1      71.775  82.818  28.500  1.00  0.00     0.000 C
HETATM    4  C5  UNL     1      72.647  82.550  27.314  1.00  0.00     0.002 C
HETATM    5  C6  UNL     1      71.843  82.624  26.076  1.00  0.00     0.033 C
HETATM    6  C7  UNL     1      70.591  81.856  26.008  1.00  0.00     0.183 C
HETATM    7  C8  UNL     1      70.413  80.641  26.786  1.00  0.00     0.039 C
ENDROOT
BRANCH   1   8
HETATM    8  C1  UNL     1      70.454  79.297  28.788  1.00  0.00     0.234 C
BRANCH   8   9
HETATM    9  N1  UNL     1      69.607  78.535  27.910  1.00  0.00    -0.079 N
ATOM     10  H13 UNL     1      69.707  78.834  26.940  1.00  0.00     0.274 HD
ATOM     11  H12 UNL     1      69.935  77.574  27.811  1.00  0.00     0.274 HD
ATOM     12  H11 UNL     1      68.634  78.571  28.215  1.00  0.00     0.274 HD
ENDBRANCH   8   9
ENDBRANCH   1   8
BRANCH   6  13
HETATM   13  N2  UNL     1      70.362  81.525  24.586  1.00  0.00    -0.075 N
ATOM     14  H23 UNL     1      71.224  81.331  24.075  1.00  0.00     0.274 HD
ATOM     15  H22 UNL     1      69.924  80.613  24.453  1.00  0.00     0.274 HD
ATOM     16  H21 UNL     1      69.822  82.291  24.183  1.00  0.00     0.274 HD
ENDBRANCH   6  13
TORSDOF 3
ENDMDL