MODEL 1
REMARK VINA RESULT: -4.396371841      0.000      0.000
REMARK  3 active torsions:
REMARK  status: ('A' for Active; 'I' for Inactive)
REMARK    1  A    between atoms: N1_1  and  C1_5
REMARK    2  A    between atoms: C1_5  and  C2_6
REMARK    3  A    between atoms: C8_12  and  N2_13
ROOT
HETATM    1  C2  UNL     1      69.869  80.782  27.037  1.00  0.00     0.041 C
HETATM    2  C3  UNL     1      70.895  81.620  26.307  1.00  0.00     0.008 C
HETATM    3  C4  UNL     1      72.116  81.892  27.145  1.00  0.00     0.000 C
HETATM    4  C5  UNL     1      71.771  82.577  28.427  1.00  0.00     0.000 C
HETATM    5  C6  UNL     1      70.954  81.762  29.370  1.00  0.00     0.002 C
HETATM    6  C7  UNL     1      71.069  80.283  29.174  1.00  0.00     0.033 C
HETATM    7  C8  UNL     1      70.604  79.775  27.867  1.00  0.00     0.189 C
ENDROOT
BRANCH   1   8
HETATM    8  C1  UNL     1      69.011  80.117  25.970  1.00  0.00     0.236 C
BRANCH   8   9
HETATM    9  N1  UNL     1      69.745  80.249  24.712  1.00  0.00    -0.079 N
ATOM     10  H13 UNL     1      70.121  81.185  24.559  1.00  0.00     0.274 HD
ATOM     11  H12 UNL     1      70.637  79.754  24.709  1.00  0.00     0.274 HD
ATOM     12  H11 UNL     1      69.109  79.943  23.976  1.00  0.00     0.274 HD
ENDBRANCH   8   9
ENDBRANCH   1   8
BRANCH   7  13
HETATM   13  N2  UNL     1      69.787  78.572  28.096  1.00  0.00    -0.075 N
ATOM     14  H23 UNL     1      69.272  78.304  27.258  1.00  0.00     0.274 HD
ATOM     15  H22 UNL     1      70.368  77.739  28.196  1.00  0.00     0.274 HD
ATOM     16  H21 UNL     1      69.165  78.692  28.896  1.00  0.00     0.274 HD
ENDBRANCH   7  13
TORSDOF 3
ENDMDL