MODEL 5
REMARK VINA RESULT: -4.343104235      2.340      3.038
REMARK  3 active torsions:
REMARK  status: ('A' for Active; 'I' for Inactive)
REMARK    1  A    between atoms: C2_2  and  N1_3
REMARK    2  A    between atoms: C2_2  and  C3_7
REMARK    3  A    between atoms: C6_10  and  N2_11
ROOT
HETATM    1  C3  UNL     1      71.172  81.699  26.073  1.00  0.00     0.016 C
HETATM    2  C4  UNL     1      71.369  81.741  27.572  1.00  0.00     0.008 C
HETATM    3  C5  UNL     1      71.138  80.313  28.075  1.00  0.00     0.033 C
HETATM    4  C6  UNL     1      69.756  79.855  27.744  1.00  0.00     0.183 C
HETATM    5  C7  UNL     1      69.481  79.977  26.248  1.00  0.00     0.033 C
HETATM    6  C8  UNL     1      69.725  81.411  25.820  1.00  0.00     0.008 C
ENDROOT
BRANCH   1   7
HETATM    7  C2  UNL     1      71.664  82.946  25.396  1.00  0.00     0.183 C
HETATM    8  C1  UNL     1      72.950  82.768  24.670  1.00  0.00     0.040 C
BRANCH   7   9
HETATM    9  N1  UNL     1      70.668  83.430  24.478  1.00  0.00    -0.075 N
ATOM     10  H13 UNL     1      69.911  83.922  24.952  1.00  0.00     0.274 HD
ATOM     11  H12 UNL     1      71.009  84.204  23.909  1.00  0.00     0.274 HD
ATOM     12  H11 UNL     1      70.331  82.652  23.912  1.00  0.00     0.274 HD
ENDBRANCH   7   9
ENDBRANCH   1   7
BRANCH   4  13
HETATM   13  N2  UNL     1      69.631  78.454  28.064  1.00  0.00    -0.075 N
ATOM     14  H23 UNL     1      69.570  77.871  27.229  1.00  0.00     0.274 HD
ATOM     15  H22 UNL     1      70.492  78.066  28.449  1.00  0.00     0.274 HD
ATOM     16  H21 UNL     1      68.834  78.322  28.688  1.00  0.00     0.274 HD
ENDBRANCH   4  13
TORSDOF 3
ENDMDL