MODEL 5
REMARK VINA RESULT: -4.533770412      3.537      6.033
REMARK  1 active torsions:
REMARK  status: ('A' for Active; 'I' for Inactive)
REMARK    1  A    between atoms: C5_7  and  C6_8
ROOT
HETATM    1  C1  UNL     1      71.245  82.322  23.484  1.00  0.00     0.040 C
HETATM    2  C2  UNL     1      70.185  81.623  24.308  1.00  0.00     0.189 C
HETATM    3  C3  UNL     1      69.581  80.539  23.492  1.00  0.00     0.076 C
HETATM    4  C4  UNL     1      69.017  79.394  24.247  1.00  0.00     0.059 C
HETATM    5  N1  UNL     1      69.318  79.318  25.621  1.00  0.00    -0.375 N
ATOM      6  H1  UNL     1      69.339  78.428  26.120  1.00  0.00     0.160 HD
HETATM    7  C5  UNL     1      69.589  80.550  26.270  1.00  0.00     0.287 C
HETATM    8  N2  UNL     1      70.691  81.194  25.590  1.00  0.00    -0.050 N
ATOM      9  H21 UNL     1      71.114  81.948  26.130  1.00  0.00     0.280 HD
ATOM     10  H22 UNL     1      71.521  80.606  25.520  1.00  0.00     0.280 HD
ENDROOT
BRANCH   7  11
HETATM   11  C6  UNL     1      69.822  80.379  27.740  1.00  0.00     0.028 C
HETATM   12  C7  UNL     1      69.910  78.937  28.156  1.00  0.00     0.013 C
HETATM   13  C8  UNL     1      71.040  81.127  28.224  1.00  0.00     0.013 C
ENDBRANCH   7  11
TORSDOF 1
ENDMDL