MODEL 5
REMARK VINA RESULT: -3.842158262      1.233      1.628
REMARK  3 active torsions:
REMARK  status: ('A' for Active; 'I' for Inactive)
REMARK    1  A    between atoms: C2_2  and  N1_3
REMARK    2  A    between atoms: C2_2  and  C3_7
REMARK    3  A    between atoms: C8_12  and  N2_13
ROOT
HETATM    1  C3  UNL     1      70.554  81.139  25.887  1.00  0.00     0.046 C
HETATM    2  C4  UNL     1      70.720  81.796  27.241  1.00  0.00     0.009 C
HETATM    3  C5  UNL     1      72.235  82.013  27.353  1.00  0.00     0.001 C
HETATM    4  C6  UNL     1      72.795  82.744  26.196  1.00  0.00     0.002 C
HETATM    5  C7  UNL     1      71.859  83.110  25.106  1.00  0.00     0.033 C
HETATM    6  C8  UNL     1      70.694  82.233  24.877  1.00  0.00     0.189 C
ENDROOT
BRANCH   1   7
HETATM    7  C2  UNL     1      69.285  80.362  25.771  1.00  0.00     0.185 C
HETATM    8  C1  UNL     1      69.308  79.499  24.526  1.00  0.00     0.040 C
BRANCH   7   9
HETATM    9  N1  UNL     1      69.013  79.503  26.887  1.00  0.00    -0.075 N
ATOM     10  H13 UNL     1      68.054  79.157  26.899  1.00  0.00     0.274 HD
ATOM     11  H12 UNL     1      69.480  78.599  26.816  1.00  0.00     0.274 HD
ATOM     12  H11 UNL     1      69.261  80.013  27.735  1.00  0.00     0.274 HD
ENDBRANCH   7   9
ENDBRANCH   1   7
BRANCH   6  13
HETATM   13  N2  UNL     1      69.464  83.041  24.814  1.00  0.00    -0.075 N
ATOM     14  H23 UNL     1      68.899  82.809  23.997  1.00  0.00     0.274 HD
ATOM     15  H22 UNL     1      68.799  82.775  25.540  1.00  0.00     0.274 HD
ATOM     16  H21 UNL     1      69.686  84.036  24.850  1.00  0.00     0.274 HD
ENDBRANCH   6  13
TORSDOF 3
ENDMDL