MODEL 2
REMARK VINA RESULT: -4.271469141      6.203      7.763
REMARK  2 active torsions:
REMARK  status: ('A' for Active; 'I' for Inactive)
REMARK    1  A    between atoms: C2_2  and  C4_4
REMARK    2  A    between atoms: C6_6  and  N1_7
ROOT
HETATM    1  C4  UNL     1      71.565  79.525  32.196  1.00  0.00     0.191 C
HETATM    2  C5  UNL     1      72.785  79.338  33.018  1.00  0.00     0.067 C
HETATM    3  C6  UNL     1      72.820  80.563  33.901  1.00  0.00     0.211 C
HETATM    4  C7  UNL     1      72.182  81.608  33.010  1.00  0.00     0.265 C
HETATM    5  N2  UNL     1      71.103  80.876  32.372  1.00  0.00    -0.069 N
ATOM      6  H21 UNL     1      70.221  80.937  32.880  1.00  0.00     0.277 HD
ATOM      7  H22 UNL     1      70.782  81.307  31.505  1.00  0.00     0.277 HD
ENDROOT
BRANCH   3   8
HETATM    8  N1  UNL     1      74.163  80.926  34.291  1.00  0.00    -0.073 N
ATOM      9  H13 UNL     1      74.186  81.270  35.250  1.00  0.00     0.274 HD
ATOM     10  H12 UNL     1      74.749  80.098  34.400  1.00  0.00     0.274 HD
ATOM     11  H11 UNL     1      74.588  81.596  33.650  1.00  0.00     0.274 HD
ENDBRANCH   3   8
BRANCH   1  12
HETATM   12  C2  UNL     1      70.483  78.506  32.459  1.00  0.00     0.008 C
HETATM   13  C1  UNL     1      69.799  78.028  31.222  1.00  0.00     0.011 C
HETATM   14  C3  UNL     1      69.431  79.070  33.387  1.00  0.00     0.011 C
ENDBRANCH   1  12
TORSDOF 2
ENDMDL