MODEL 3
REMARK VINA RESULT: -3.963404461      2.577      4.195
REMARK  2 active torsions:
REMARK  status: ('A' for Active; 'I' for Inactive)
REMARK    1  A    between atoms: C2_2  and  C3_3
REMARK    2  A    between atoms: C7_7  and  N1_8
ROOT
HETATM    1  C3  UNL     1      69.693  81.572  25.568  1.00  0.00     0.011 C
HETATM    2  C4  UNL     1      69.208  80.820  26.739  1.00  0.00     0.006 C
HETATM    3  C5  UNL     1      70.087  80.643  27.895  1.00  0.00     0.004 C
HETATM    4  C6  UNL     1      71.542  80.681  27.717  1.00  0.00     0.062 C
HETATM    5  C7  UNL     1      72.151  82.025  27.441  1.00  0.00     0.380 C
HETATM    6  N2  UNL     1      71.985  82.375  26.048  1.00  0.00    -0.046 N
ATOM      7  H21 UNL     1      72.321  81.644  25.420  1.00  0.00     0.279 HD
ATOM      8  H22 UNL     1      72.620  83.117  25.754  1.00  0.00     0.279 HD
HETATM    9  C8  UNL     1      70.620  82.704  25.818  1.00  0.00     0.239 C
ENDROOT
BRANCH   5  10
HETATM   10  N1  UNL     1      71.788  83.052  28.345  1.00  0.00    -0.050 N
ATOM     11  H13 UNL     1      71.338  83.817  27.843  1.00  0.00     0.276 HD
ATOM     12  H12 UNL     1      71.014  82.743  28.933  1.00  0.00     0.276 HD
ATOM     13  H11 UNL     1      72.546  83.412  28.925  1.00  0.00     0.276 HD
ENDBRANCH   5  10
BRANCH   1  14
HETATM   14  C2  UNL     1      70.215  80.662  24.448  1.00  0.00     0.002 C
HETATM   15  C1  UNL     1      69.253  79.489  24.277  1.00  0.00     0.005 C
ENDBRANCH   1  14
TORSDOF 2
ENDMDL