MODEL 4
REMARK VINA RESULT: -4.502643738      1.388      4.432
REMARK  2 active torsions:
REMARK  status: ('A' for Active; 'I' for Inactive)
REMARK    1  A    between atoms: C4_4  and  N1_5
REMARK    2  A    between atoms: N1_5  and  C5_7
ROOT
HETATM    1  C1  UNL     1      70.064  81.168  23.119  1.00  0.00     0.028 C
HETATM    2  C2  UNL     1      69.793  79.701  23.403  1.00  0.00     0.005 C
HETATM    3  C3  UNL     1      69.101  79.550  24.752  1.00  0.00     0.054 C
HETATM    4  C4  UNL     1      69.360  80.697  25.653  1.00  0.00     0.280 C
HETATM    5  N2  UNL     1      70.683  81.272  25.491  1.00  0.00    -0.055 N
ATOM      6  H21 UNL     1      71.406  80.595  25.736  1.00  0.00     0.279 HD
ATOM      7  H22 UNL     1      70.863  81.976  26.208  1.00  0.00     0.279 HD
HETATM    8  C8  UNL     1      70.909  81.809  24.180  1.00  0.00     0.235 C
ENDROOT
BRANCH   4   9
HETATM    9  N1  UNL     1      69.246  80.320  27.027  1.00  0.00    -0.391 N
ATOM     10  H1  UNL     1      68.394  80.506  27.554  1.00  0.00     0.155 HD
BRANCH   9  11
HETATM   11  C5  UNL     1      70.357  79.678  27.634  1.00  0.00     0.078 A
HETATM   12  C6  UNL     1      70.986  79.998  28.909  1.00  0.00     0.027 A
HETATM   13  C7  UNL     1      70.059  78.812  28.846  1.00  0.00     0.027 A
ENDBRANCH   9  11
ENDBRANCH   4   9
TORSDOF 2
ENDMDL