MODEL 1
REMARK VINA RESULT: -4.307378560      0.000      0.000
REMARK  2 active torsions:
REMARK  status: ('A' for Active; 'I' for Inactive)
REMARK    1  A    between atoms: O1_2  and  C2_3
REMARK    2  A    between atoms: C7_8  and  N1_9
ROOT
HETATM    1  C2  UNL     1      70.646  81.066  32.527  1.00  0.00     0.151 C
HETATM    2  C3  UNL     1      71.438  80.065  31.729  1.00  0.00     0.034 C
HETATM    3  C4  UNL     1      70.533  78.868  31.472  1.00  0.00     0.003 C
HETATM    4  C5  UNL     1      70.007  78.274  32.748  1.00  0.00     0.002 C
HETATM    5  C6  UNL     1      69.309  79.355  33.582  1.00  0.00     0.035 C
HETATM    6  C7  UNL     1      70.384  80.388  33.878  1.00  0.00     0.212 C
ENDROOT
BRANCH   6   7
HETATM    7  N1  UNL     1      69.977  81.332  34.878  1.00  0.00    -0.073 N
ATOM      8  H13 UNL     1      69.559  82.162  34.458  1.00  0.00     0.274 HD
ATOM      9  H12 UNL     1      69.169  80.995  35.401  1.00  0.00     0.274 HD
ATOM     10  H11 UNL     1      70.745  81.579  35.502  1.00  0.00     0.274 HD
ENDBRANCH   6   7
BRANCH   1  11
HETATM   11  O1  UNL     1      71.209  82.274  32.700  1.00  0.00    -0.389 OA
HETATM   12  C1  UNL     1      71.395  83.071  31.613  1.00  0.00     0.202 C
ENDBRANCH   1  11
TORSDOF 2
ENDMDL