MODEL 3
REMARK VINA RESULT: -4.415382148      7.091      8.282
REMARK  2 active torsions:
REMARK  status: ('A' for Active; 'I' for Inactive)
REMARK    1  A    between atoms: C2_2  and  C4_4
REMARK    2  A    between atoms: C8_10  and  N2_11
ROOT
HETATM    1  C4  UNL     1      69.850  80.967  26.256  1.00  0.00     0.039 C
HETATM    2  C5  UNL     1      70.449  82.326  26.114  1.00  0.00     0.010 C
HETATM    3  C6  UNL     1      69.910  82.985  24.861  1.00  0.00     0.020 C
HETATM    4  C7  UNL     1      70.428  82.098  23.721  1.00  0.00     0.115 C
HETATM    5  N1  UNL     1      69.735  80.864  23.791  1.00  0.00    -0.395 N
ATOM      6  H1  UNL     1      69.240  80.490  22.982  1.00  0.00     0.155 HD
HETATM    7  C8  UNL     1      69.757  80.173  25.017  1.00  0.00     0.281 C
ENDROOT
BRANCH   7   8
HETATM    8  N2  UNL     1      68.532  79.359  25.101  1.00  0.00    -0.058 N
ATOM      9  H23 UNL     1      68.263  79.143  26.061  1.00  0.00     0.276 HD
ATOM     10  H22 UNL     1      67.692  79.878  24.840  1.00  0.00     0.276 HD
ATOM     11  H21 UNL     1      68.676  78.525  24.532  1.00  0.00     0.276 HD
ENDBRANCH   7   8
BRANCH   1  12
HETATM   12  C2  UNL     1      70.642  80.226  27.326  1.00  0.00    -0.015 C
HETATM   13  C1  UNL     1      71.058  81.217  28.400  1.00  0.00     0.010 C
HETATM   14  C3  UNL     1      69.821  79.163  27.991  1.00  0.00     0.010 C
ENDBRANCH   1  12
TORSDOF 2
ENDMDL