MODEL 2
REMARK VINA RESULT: -6.348247572      0.695      1.309
REMARK  3 active torsions:
REMARK  status: ('A' for Active; 'I' for Inactive)
REMARK    1  A    between atoms: C2_5  and  C3_6
REMARK    2  A    between atoms: C3_6  and  C4_7
REMARK    3  A    between atoms: C4_7  and  C5_8
ROOT
HETATM    1  F1  UNL     1      -7.873 -28.703  13.778  1.00  0.00    -0.165 F
HETATM    2  C1  UNL     1      -8.001 -29.969  14.291  1.00  0.00     0.265 A
HETATM    3  N1  UNL     1      -8.931 -30.442  15.118  1.00  0.00    -0.321 N
ATOM      4  H1  UNL     1      -9.705 -29.895  15.496  1.00  0.00     0.169 HD
HETATM    5  C2  UNL     1      -8.705 -31.753  15.391  1.00  0.00     0.028 A
HETATM    6  C8  UNL     1      -7.569 -32.106  14.689  1.00  0.00     0.117 A
HETATM    7  N2  UNL     1      -7.170 -31.000  14.032  1.00  0.00    -0.327 N
ATOM      8  H2  UNL     1      -6.353 -30.949  13.425  1.00  0.00     0.169 HD
ENDROOT
BRANCH   5   9
HETATM    9  C3  UNL     1      -9.510 -32.643  16.267  1.00  0.00     0.059 C
BRANCH   9  10
HETATM   10  C4  UNL     1      -8.604 -33.161  17.370  1.00  0.00     0.010 C
BRANCH  10  11
HETATM   11  C5  UNL     1      -8.618 -32.292  18.586  1.00  0.00    -0.014 A
HETATM   12  C6  UNL     1      -9.328 -32.835  19.776  1.00  0.00     0.005 A
HETATM   13  C7  UNL     1      -9.922 -31.668  18.937  1.00  0.00     0.005 A
ENDBRANCH  10  11
ENDBRANCH   9  10
ENDBRANCH   5   9
TORSDOF 3
ENDMDL