MODEL 4
REMARK VINA RESULT: -5.197296777      3.006      4.984
REMARK  3 active torsions:
REMARK  status: ('A' for Active; 'I' for Inactive)
REMARK    1  A    between atoms: C1_2  and  C2_3
REMARK    2  A    between atoms: C2_3  and  C3_4
REMARK    3  A    between atoms: C3_4  and  N1_5
ROOT
HETATM    1  N1  UNL     1      -9.417 -32.308  16.692  1.00  0.00    -0.360 N
ATOM      2  H1  UNL     1      -9.053 -33.221  16.965  1.00  0.00     0.166 HD
HETATM    3  C4  UNL     1      -8.852 -31.832  15.655  1.00  0.00     0.076 C
HETATM    4  C5  UNL     1      -9.111 -30.544  14.970  1.00  0.00     0.078 C
HETATM    5  C6  UNL     1      -8.146 -30.578  13.810  1.00  0.00     0.027 C
HETATM    6  C7  UNL     1      -7.030 -31.439  14.347  1.00  0.00     0.121 C
HETATM    7  N2  UNL     1      -7.785 -32.517  14.936  1.00  0.00    -0.380 N
ATOM      8  H2  UNL     1      -7.613 -33.521  14.866  1.00  0.00     0.160 HD
ENDROOT
BRANCH   1   9
HETATM    9  C3  UNL     1     -10.425 -31.845  17.531  1.00  0.00     0.064 C
BRANCH   9  10
HETATM   10  C2  UNL     1     -10.101 -31.509  18.948  1.00  0.00     0.076 C
BRANCH  10  11
HETATM   11  C1  UNL     1      -9.358 -32.677  19.614  1.00  0.00     0.227 C
HETATM   12  F1  UNL     1     -10.087 -33.090  20.706  1.00  0.00    -0.255 F
ENDBRANCH  10  11
ENDBRANCH   9  10
ENDBRANCH   1   9
TORSDOF 3
ENDMDL