MODEL 5
REMARK VINA RESULT: -5.633023244      2.963      4.515
REMARK  3 active torsions:
REMARK  status: ('A' for Active; 'I' for Inactive)
REMARK    1  A    between atoms: C1_2  and  C2_3
REMARK    2  A    between atoms: C2_3  and  C3_4
REMARK    3  A    between atoms: C3_4  and  C4_5
ROOT
HETATM    1  C4  UNL     1      -9.557 -32.318  16.534  1.00  0.00     0.177 C
HETATM    2  C5  UNL     1      -9.544 -31.364  15.506  1.00  0.00    -0.002 C
HETATM    3  O1  UNL     1      -9.386 -30.537  14.511  1.00  0.00    -0.309 OA
HETATM    4  C6  UNL     1      -8.093 -30.758  13.921  1.00  0.00     0.215 C
HETATM    5  C7  UNL     1      -7.463 -32.060  14.298  1.00  0.00     0.017 C
HETATM    6  C8  UNL     1      -7.283 -32.497  15.663  1.00  0.00     0.082 C
HETATM    7  N1  UNL     1      -8.323 -33.150  16.423  1.00  0.00    -0.383 N
ATOM      8  H1  UNL     1      -8.225 -34.077  16.837  1.00  0.00     0.160 HD
ENDROOT
BRANCH   1   9
HETATM    9  C3  UNL     1      -9.616 -31.738  17.962  1.00  0.00     0.042 C
BRANCH   9  10
HETATM   10  C2  UNL     1      -8.732 -32.586  18.851  1.00  0.00     0.034 C
BRANCH  10  11
HETATM   11  C1  UNL     1      -9.484 -33.111  20.052  1.00  0.00     0.222 C
HETATM   12  F1  UNL     1     -10.499 -32.227  20.360  1.00  0.00    -0.255 F
ENDBRANCH  10  11
ENDBRANCH   9  10
ENDBRANCH   1   9
TORSDOF 3
ENDMDL