MODEL 4
REMARK VINA RESULT: -5.787444575      0.938      1.106
REMARK  4 active torsions:
REMARK  status: ('A' for Active; 'I' for Inactive)
REMARK    1  A    between atoms: C1_2  and  C2_3
REMARK    2  A    between atoms: C2_3  and  C3_4
REMARK    3  A    between atoms: C3_4  and  N1_5
REMARK    4  A    between atoms: N1_5  and  C4_7
ROOT
HETATM    1  C4  UNL     1      -8.893 -32.269  16.533  1.00  0.00     0.100 A
HETATM    2  C5  UNL     1     -10.261 -32.044  16.556  1.00  0.00     0.048 A
HETATM    3  C6  UNL     1     -10.875 -31.583  17.703  1.00  0.00     0.005 A
HETATM    4  C7  UNL     1     -10.158 -31.333  18.855  1.00  0.00     0.017 A
HETATM    5  C8  UNL     1      -8.800 -31.568  18.793  1.00  0.00     0.089 A
HETATM    6  N2  UNL     1      -8.215 -32.018  17.668  1.00  0.00    -0.353 N
ATOM      7  H2  UNL     1      -7.207 -32.176  17.676  1.00  0.00     0.166 HD
ENDROOT
BRANCH   1   8
HETATM    8  N1  UNL     1      -8.361 -32.695  15.451  1.00  0.00    -0.376 N
ATOM      9  H1  UNL     1      -8.633 -33.627  15.138  1.00  0.00     0.161 HD
BRANCH   8  10
HETATM   10  C3  UNL     1      -7.424 -31.993  14.645  1.00  0.00     0.123 C
BRANCH  10  11
HETATM   11  C2  UNL     1      -8.094 -30.838  13.899  1.00  0.00     0.051 C
BRANCH  11  12
HETATM   12  C1  UNL     1      -7.453 -29.533  14.315  1.00  0.00     0.224 C
HETATM   13  F1  UNL     1      -7.838 -28.493  13.492  1.00  0.00    -0.255 F
ENDBRANCH  11  12
ENDBRANCH  10  11
ENDBRANCH   8  10
ENDBRANCH   1   8
TORSDOF 4
ENDMDL