MODEL 4
REMARK VINA RESULT: -5.979844786      1.075      1.279
REMARK  3 active torsions:
REMARK  status: ('A' for Active; 'I' for Inactive)
REMARK    1  A    between atoms: C3_4  and  O1_5
REMARK    2  A    between atoms: O1_5  and  C4_6
REMARK    3  A    between atoms: C4_6  and  C5_7
ROOT
HETATM    1  F1  UNL     1      -7.873 -28.939  13.632  1.00  0.00    -0.186 F
HETATM    2  C1  UNL     1      -7.947 -30.179  14.202  1.00  0.00     0.190 A
HETATM    3  C2  UNL     1      -8.824 -30.555  15.200  1.00  0.00     0.099 A
HETATM    4  C3  UNL     1      -8.563 -31.879  15.479  1.00  0.00     0.088 A
HETATM    5  C8  UNL     1      -7.537 -32.274  14.648  1.00  0.00     0.127 A
HETATM    6  N1  UNL     1      -7.175 -31.232  13.880  1.00  0.00    -0.340 N
ATOM      7  H1  UNL     1      -6.439 -31.239  13.173  1.00  0.00     0.167 HD
ENDROOT
BRANCH   4   8
HETATM    8  O1  UNL     1      -9.191 -32.693  16.411  1.00  0.00    -0.349 OA
BRANCH   8   9
HETATM    9  C4  UNL     1      -8.603 -33.216  17.559  1.00  0.00     0.180 C
BRANCH   9  10
HETATM   10  C5  UNL     1      -8.636 -32.257  18.730  1.00  0.00     0.010 A
HETATM   11  C6  UNL     1      -9.968 -31.600  19.043  1.00  0.00     0.007 A
HETATM   12  C7  UNL     1      -9.529 -32.736  19.901  1.00  0.00     0.007 A
ENDBRANCH   9  10
ENDBRANCH   8   9
ENDBRANCH   4   8
TORSDOF 3
ENDMDL