MODEL 4
REMARK VINA RESULT: -5.453656439      3.506      4.816
REMARK  4 active torsions:
REMARK  status: ('A' for Active; 'I' for Inactive)
REMARK    1  A    between atoms: N1_1  and  C1_5
REMARK    2  A    between atoms: C1_5  and  C2_6
REMARK    3  A    between atoms: C5_9  and  C6_10
REMARK    4  A    between atoms: C6_10  and  C7_11
ROOT
HETATM    1  C2  UNL     1      -8.884 -31.910  18.196  1.00  0.00     0.011 C
HETATM    2  C3  UNL     1      -8.551 -33.239  17.572  1.00  0.00     0.007 C
HETATM    3  C4  UNL     1      -8.377 -32.944  16.076  1.00  0.00     0.005 C
HETATM    4  C5  UNL     1      -9.297 -31.781  15.804  1.00  0.00    -0.012 C
HETATM    5  C8  UNL     1      -9.543 -31.094  17.105  1.00  0.00     0.011 C
ENDROOT
BRANCH   1   6
HETATM    6  C1  UNL     1      -9.859 -32.045  19.343  1.00  0.00     0.234 C
BRANCH   6   7
HETATM    7  N1  UNL     1      -9.569 -33.177  20.177  1.00  0.00    -0.079 N
ATOM      8  H13 UNL     1      -8.595 -33.463  20.084  1.00  0.00     0.274 HD
ATOM      9  H12 UNL     1      -9.568 -32.916  21.163  1.00  0.00     0.274 HD
ATOM     10  H11 UNL     1     -10.201 -33.959  20.004  1.00  0.00     0.274 HD
ENDBRANCH   6   7
ENDBRANCH   1   6
BRANCH   4  11
HETATM   11  C6  UNL     1      -8.765 -30.809  14.801  1.00  0.00     0.036 C
BRANCH  11  12
HETATM   12  C7  UNL     1      -7.322 -31.015  14.451  1.00  0.00     0.222 C
HETATM   13  F1  UNL     1      -6.558 -29.888  14.515  1.00  0.00    -0.255 F
ENDBRANCH  11  12
ENDBRANCH   4  11
TORSDOF 4
ENDMDL