MODEL 2
REMARK VINA RESULT: -6.300473622      1.099      1.565
REMARK  3 active torsions:
REMARK  status: ('A' for Active; 'I' for Inactive)
REMARK    1  A    between atoms: C4_5  and  C5_6
REMARK    2  A    between atoms: C5_6  and  N1_7
REMARK    3  A    between atoms: N1_7  and  C6_10
ROOT
HETATM    1  C5  UNL     1      -8.628 -33.137  15.962  1.00  0.00     0.266 C
ENDROOT
BRANCH   1   2
HETATM    2  C4  UNL     1      -8.990 -32.516  17.269  1.00  0.00    -0.056 C
HETATM    3  C3  UNL     1     -10.161 -32.057  17.683  1.00  0.00    -0.020 C
HETATM    4  C2  UNL     1     -10.044 -31.524  19.061  1.00  0.00     0.065 C
HETATM    5  C1  UNL     1      -8.876 -32.341  19.585  1.00  0.00     0.177 C
HETATM    6  F1  UNL     1      -9.351 -33.598  19.854  1.00  0.00    -0.249 F
HETATM    7  C9  UNL     1      -7.973 -32.315  18.370  1.00  0.00     0.073 C
ENDBRANCH   1   2
BRANCH   1   8
HETATM    8  N1  UNL     1      -7.419 -32.567  15.415  1.00  0.00    -0.067 N
ATOM      9  H12 UNL     1      -6.868 -32.129  16.153  1.00  0.00     0.277 HD
ATOM     10  H11 UNL     1      -6.775 -33.305  15.131  1.00  0.00     0.277 HD
BRANCH   8  11
HETATM   11  C6  UNL     1      -7.628 -31.655  14.346  1.00  0.00     0.186 A
HETATM   12  C7  UNL     1      -8.524 -30.497  14.403  1.00  0.00     0.035 A
HETATM   13  C8  UNL     1      -7.067 -30.266  14.439  1.00  0.00     0.035 A
ENDBRANCH   8  11
ENDBRANCH   1   8
TORSDOF 3
ENDMDL