MODEL 1
REMARK VINA RESULT: -6.133230096      0.000      0.000
REMARK  4 active torsions:
REMARK  status: ('A' for Active; 'I' for Inactive)
REMARK    1  A    between atoms: N1_1  and  C1_5
REMARK    2  A    between atoms: C1_5  and  C2_6
REMARK    3  A    between atoms: C6_10  and  C7_11
REMARK    4  A    between atoms: C7_11  and  C8_12
ROOT
HETATM    1  C2  UNL     1      -8.185 -31.298  14.701  1.00  0.00    -0.033 A
HETATM    2  C3  UNL     1      -7.500 -32.478  14.890  1.00  0.00     0.009 A
HETATM    3  C4  UNL     1      -7.866 -33.376  15.868  1.00  0.00     0.001 A
HETATM    4  C5  UNL     1      -8.962 -33.047  16.669  1.00  0.00     0.007 A
HETATM    5  C6  UNL     1      -9.672 -31.887  16.517  1.00  0.00    -0.055 A
HETATM    6  C9  UNL     1      -9.279 -31.010  15.528  1.00  0.00     0.016 A
ENDROOT
BRANCH   1   7
HETATM    7  C1  UNL     1      -7.863 -30.286  13.685  1.00  0.00     0.268 C
BRANCH   7   8
HETATM    8  N1  UNL     1      -7.854 -28.939  14.185  1.00  0.00    -0.075 N
ATOM      9  H13 UNL     1      -8.757 -28.492  14.028  1.00  0.00     0.274 HD
ATOM     10  H12 UNL     1      -7.835 -28.935  15.204  1.00  0.00     0.274 HD
ATOM     11  H11 UNL     1      -7.099 -28.363  13.811  1.00  0.00     0.274 HD
ENDBRANCH   7   8
ENDBRANCH   1   7
BRANCH   5  12
HETATM   12  C7  UNL     1     -10.841 -31.584  17.405  1.00  0.00     0.070 C
BRANCH  12  13
HETATM   13  C8  UNL     1     -10.323 -31.357  18.802  1.00  0.00     0.226 C
HETATM   14  F1  UNL     1      -9.806 -30.095  18.912  1.00  0.00    -0.255 F
ENDBRANCH  12  13
ENDBRANCH   5  12
TORSDOF 4
ENDMDL