MODEL 3
REMARK VINA RESULT: -5.889459449      2.796      5.039
REMARK  3 active torsions:
REMARK  status: ('A' for Active; 'I' for Inactive)
REMARK    1  A    between atoms: C1_2  and  C2_3
REMARK    2  A    between atoms: C2_3  and  C3_4
REMARK    3  A    between atoms: C5_8  and  C6_9
ROOT
HETATM    1  C3  UNL     1      -8.547 -31.326  15.292  1.00  0.00     0.028 A
HETATM    2  C4  UNL     1      -7.735 -32.409  15.029  1.00  0.00     0.114 A
HETATM    3  N1  UNL     1      -7.727 -33.242  16.106  1.00  0.00    -0.353 N
ATOM      4  H1  UNL     1      -7.214 -34.119  16.192  1.00  0.00     0.166 HD
HETATM    5  C5  UNL     1      -8.525 -32.686  17.033  1.00  0.00     0.085 A
HETATM    6  N2  UNL     1      -9.014 -31.536  16.539  1.00  0.00    -0.348 N
ATOM      7  H2  UNL     1      -9.648 -30.912  17.037  1.00  0.00     0.167 HD
ENDROOT
BRANCH   1   8
HETATM    8  C2  UNL     1      -8.805 -30.212  14.366  1.00  0.00     0.089 C
BRANCH   8   9
HETATM    9  C1  UNL     1      -7.578 -29.368  14.108  1.00  0.00     0.228 C
HETATM   10  F1  UNL     1      -7.860 -28.180  13.508  1.00  0.00    -0.255 F
ENDBRANCH   8   9
ENDBRANCH   1   8
BRANCH   5  11
HETATM   11  C6  UNL     1      -8.806 -33.262  18.375  1.00  0.00     0.053 A
HETATM   12  C7  UNL     1      -8.107 -32.638  19.582  1.00  0.00     0.013 A
HETATM   13  C8  UNL     1      -9.591 -32.389  19.323  1.00  0.00     0.013 A
ENDBRANCH   5  11
TORSDOF 3
ENDMDL