MODEL 5
REMARK VINA RESULT: -6.252479349      2.897      4.396
REMARK  8 active torsions:
REMARK  status: ('A' for Active; 'I' for Inactive)
REMARK    1  A    between atoms: N2_5  and  C4_6
REMARK    2  A    between atoms: C4_6  and  C5_7
REMARK    3  A    between atoms: C5_7  and  N3_8
REMARK    4  A    between atoms: N3_8  and  C6_11
REMARK    5  A    between atoms: C6_11  and  C7_12
REMARK    6  A    between atoms: C7_12  and  C8_13
REMARK    7  A    between atoms: C8_13  and  N4_14
REMARK       I    between atoms: N4_14  and  C9_16
REMARK       I    between atoms: C9_16  and  N5_18
REMARK    8  A    between atoms: N5_18  and  C10_20
ROOT
HETATM    1  N3  UNL     1      -2.308  25.585  57.659  1.00  0.00    -0.073 N
ATOM      2  H31 UNL     1      -3.037  24.945  57.973  1.00  0.00     0.277 HD
ATOM      3  H32 UNL     1      -1.905  25.832  58.562  1.00  0.00     0.277 HD
ENDROOT
BRANCH   1   4
HETATM    4  C5  UNL     1      -2.868  26.723  57.022  1.00  0.00     0.262 C
BRANCH   4   5
HETATM    5  C4  UNL     1      -3.906  27.378  57.883  1.00  0.00     0.303 C
BRANCH   5   6
HETATM    6  N2  UNL     1      -4.466  28.504  57.148  1.00  0.00     0.127 N
HETATM    7  C3  UNL     1      -5.489  29.153  57.926  1.00  0.00     0.306 C
HETATM    8  C2  UNL     1      -6.761  28.389  57.825  1.00  0.00     0.302 C
HETATM    9  N1  UNL     1      -7.288  28.338  56.475  1.00  0.00     0.090 N
HETATM   10  C1  UNL     1      -7.843  27.032  56.176  1.00  0.00     0.310 C
HETATM   11  C15 UNL     1      -6.288  28.732  55.503  1.00  0.00     0.341 C
HETATM   12  C14 UNL     1      -4.936  28.130  55.829  1.00  0.00     0.432 C
HETATM   13  F1  UNL     1      -3.978  28.529  54.923  1.00  0.00    -0.214 F
ENDBRANCH   5   6
ENDBRANCH   4   5
ENDBRANCH   1   4
BRANCH   1  14
HETATM   14  C6  UNL     1      -1.355  24.913  56.840  1.00  0.00     0.234 C
BRANCH  14  15
HETATM   15  C7  UNL     1      -1.472  25.314  55.393  1.00  0.00     0.047 C
BRANCH  15  16
HETATM   16  C8  UNL     1      -0.371  24.705  54.566  1.00  0.00     0.126 C
BRANCH  16  17
HETATM   17  N4  UNL     1      -0.326  25.324  53.277  1.00  0.00    -0.343 N
HETATM   18  C9  UNL     1       0.717  25.091  52.344  1.00  0.00     0.316 C
HETATM   19  O1  UNL     1       1.682  24.315  52.599  1.00  0.00    -0.247 OA
HETATM   20  N5  UNL     1       0.732  25.716  51.079  1.00  0.00    -0.335 N
ATOM     21  H5  UNL     1      -0.036  26.348  50.850  1.00  0.00     0.165 HD
ATOM     22  H4  UNL     1      -1.078  25.961  53.017  1.00  0.00     0.164 HD
BRANCH  20  23
HETATM   23  C10 UNL     1       1.755  25.519  50.097  1.00  0.00     0.023 C
HETATM   24  C11 UNL     1       2.034  24.057  49.828  1.00  0.00     0.037 C
HETATM   25  C12 UNL     1       3.021  26.225  50.532  1.00  0.00     0.037 C
HETATM   26  C13 UNL     1       1.242  26.121  48.794  1.00  0.00     0.037 C
ENDBRANCH  20  23
ENDBRANCH  16  17
ENDBRANCH  15  16
ENDBRANCH  14  15
ENDBRANCH   1  14
TORSDOF 8
ENDMDL