MODEL 2
REMARK VINA RESULT: -6.868742685      0.696      1.269
REMARK  10 active torsions:
REMARK  status: ('A' for Active; 'I' for Inactive)
REMARK    1  A    between atoms: C2_2  and  C3_3
REMARK    2  A    between atoms: C3_3  and  C4_4
REMARK    3  A    between atoms: C4_4  and  C5_5
REMARK    4  A    between atoms: C5_5  and  C6_6
REMARK    5  A    between atoms: C8_9  and  C9_10
REMARK    6  A    between atoms: C9_10  and  N3_15
REMARK    7  A    between atoms: N3_15  and  C11_17
REMARK    8  A    between atoms: C11_17  and  C12_18
REMARK    9  A    between atoms: C13_20  and  O2_21
REMARK   10  A    between atoms: C14_23  and  O3_24
ROOT
HETATM    1  C9  UNL     1      -6.688  25.875  54.306  1.00  0.00     0.118 C
HETATM    2  N1  UNL     1      -7.750  25.446  53.798  1.00  0.00    -0.281 N
ATOM      3  H1  UNL     1      -8.591  25.541  54.367  1.00  0.00     0.179 HD
HETATM    4  C10 UNL     1      -7.912  24.866  52.576  1.00  0.00     0.183 C
HETATM    5  N2  UNL     1      -8.085  24.357  51.528  1.00  0.00    -0.172 NA
ENDROOT
BRANCH   1   6
HETATM    6  C8  UNL     1      -5.389  25.816  53.621  1.00  0.00     0.220 C
HETATM    7  O1  UNL     1      -4.799  27.017  53.368  1.00  0.00    -0.375 OA
HETATM    8  C7  UNL     1      -3.465  27.148  53.694  1.00  0.00     0.176 C
HETATM    9  C6  UNL     1      -2.582  26.061  53.225  1.00  0.00     0.041 C
HETATM   10  C14 UNL     1      -3.292  24.711  53.162  1.00  0.00     0.156 C
HETATM   11  C13 UNL     1      -4.412  24.822  54.211  1.00  0.00     0.183 C
BRANCH   9  12
HETATM   12  C5  UNL     1      -1.883  26.289  51.922  1.00  0.00     0.009 C
BRANCH  12  13
HETATM   13  C4  UNL     1      -0.405  26.136  52.036  1.00  0.00     0.001 C
BRANCH  13  14
HETATM   14  C3  UNL     1       0.326  27.235  51.334  1.00  0.00    -0.000 C
BRANCH  14  15
HETATM   15  C2  UNL     1      -0.652  28.166  50.640  1.00  0.00    -0.005 C
HETATM   16  C1  UNL     1      -0.354  29.574  51.145  1.00  0.00     0.005 C
ENDBRANCH  14  15
ENDBRANCH  13  14
ENDBRANCH  12  13
ENDBRANCH   9  12
BRANCH  10  17
HETATM   17  O3  UNL     1      -3.890  24.625  51.909  1.00  0.00    -0.392 OA
ATOM     18  H3  UNL     1      -3.205  24.753  51.264  1.00  0.00     0.210 HD
ENDBRANCH  10  17
BRANCH  11  19
HETATM   19  O2  UNL     1      -4.946  23.580  54.392  1.00  0.00    -0.390 OA
ATOM     20  H2  UNL     1      -5.312  23.450  55.259  1.00  0.00     0.210 HD
ENDBRANCH  11  19
ENDBRANCH   1   6
BRANCH   1  21
HETATM   21  N3  UNL     1      -6.779  26.424  55.614  1.00  0.00    -0.376 N
ATOM     22  H3  UNL     1      -6.309  25.964  56.394  1.00  0.00     0.160 HD
BRANCH  21  23
HETATM   23  C11 UNL     1      -7.533  27.628  55.838  1.00  0.00     0.136 C
BRANCH  23  24
HETATM   24  C12 UNL     1      -6.586  28.798  55.931  1.00  0.00     0.134 C
HETATM   25 CL1  UNL     1      -5.055  28.372  56.694  1.00  0.00    -0.129 Cl
ENDBRANCH  23  24
ENDBRANCH  21  23
ENDBRANCH   1  21
TORSDOF 10
ENDMDL