MODEL 2
REMARK VINA RESULT: -6.486455788      3.221      4.851
REMARK  10 active torsions:
REMARK  status: ('A' for Active; 'I' for Inactive)
REMARK    1  A    between atoms: C2_2  and  O1_3
REMARK    2  A    between atoms: C2_2  and  C3_5
REMARK    3  A    between atoms: C4_7  and  C5_8
REMARK    4  A    between atoms: C5_8  and  N1_9
REMARK    5  A    between atoms: N1_9  and  C6_11
REMARK    6  A    between atoms: C6_11  and  N2_13
REMARK    7  A    between atoms: N2_13  and  C7_15
REMARK    8  A    between atoms: C7_15  and  C8_16
REMARK    9  A    between atoms: C8_16  and  C9_18
REMARK   10  A    between atoms: C9_18  and  N3_19
ROOT
HETATM    1  C6  UNL     1      -4.904  28.264  57.373  1.00  0.00     0.167 C
HETATM    2  S1  UNL     1      -5.496  28.837  58.777  1.00  0.00    -0.041 SA
ENDROOT
BRANCH   1   3
HETATM    3  N1  UNL     1      -3.851  27.358  57.376  1.00  0.00    -0.365 N
ATOM      4  H1  UNL     1      -3.437  27.108  58.274  1.00  0.00     0.161 HD
BRANCH   3   5
HETATM    5  C5  UNL     1      -3.301  26.742  56.170  1.00  0.00     0.156 C
BRANCH   5   6
HETATM    6  C4  UNL     1      -2.086  25.922  56.506  1.00  0.00     0.171 A
HETATM    7  C3  UNL     1      -1.266  25.344  55.415  1.00  0.00     0.181 A
HETATM    8  O2  UNL     1      -2.138  24.563  56.154  1.00  0.00    -0.371 OA
BRANCH   7   9
HETATM    9  C2  UNL     1      -1.568  25.452  53.967  1.00  0.00     0.145 C
HETATM   10  C1  UNL     1      -0.225  25.259  53.231  1.00  0.00     0.042 C
BRANCH   9  11
HETATM   11  O1  UNL     1      -2.331  24.342  53.508  1.00  0.00    -0.393 OA
ATOM     12  H1  UNL     1      -1.985  23.626  54.030  1.00  0.00     0.210 HD
ENDBRANCH   9  11
ENDBRANCH   7   9
ENDBRANCH   5   6
ENDBRANCH   3   5
ENDBRANCH   1   3
BRANCH   1  13
HETATM   13  N2  UNL     1      -5.477  28.716  56.161  1.00  0.00    -0.364 N
ATOM     14  H2  UNL     1      -4.869  29.160  55.472  1.00  0.00     0.162 HD
BRANCH  13  15
HETATM   15  C7  UNL     1      -6.870  28.579  55.855  1.00  0.00     0.160 C
BRANCH  15  16
HETATM   16  C8  UNL     1      -7.462  27.237  56.138  1.00  0.00     0.205 C
HETATM   17  F1  UNL     1      -8.807  27.263  55.734  1.00  0.00    -0.246 F
BRANCH  16  18
HETATM   18  C9  UNL     1      -6.848  26.217  55.151  1.00  0.00     0.155 C
BRANCH  18  19
HETATM   19  N3  UNL     1      -7.093  26.536  53.805  1.00  0.00    -0.410 N
HETATM   20  C10 UNL     1      -5.968  26.956  53.029  1.00  0.00     0.117 C
HETATM   21  C11 UNL     1      -5.076  25.780  52.639  1.00  0.00     0.019 C
HETATM   22  C12 UNL     1      -5.887  24.528  52.439  1.00  0.00     0.003 C
HETATM   23  C13 UNL     1      -7.324  24.831  52.057  1.00  0.00     0.019 C
HETATM   24  C14 UNL     1      -8.002  25.712  53.084  1.00  0.00     0.117 C
ENDBRANCH  18  19
ENDBRANCH  16  18
ENDBRANCH  15  16
ENDBRANCH  13  15
ENDBRANCH   1  13
TORSDOF 10
ENDMDL