MODEL 3
REMARK VINA RESULT: -6.914066948      2.294      2.825
REMARK  7 active torsions:
REMARK  status: ('A' for Active; 'I' for Inactive)
REMARK    1  A    between atoms: C2_2  and  C3_3
REMARK    2  A    between atoms: C3_3  and  C4_4
REMARK    3  A    between atoms: C4_4  and  C5_5
REMARK    4  A    between atoms: C7_8  and  N1_10
REMARK       I    between atoms: N1_10  and  C9_12
REMARK    5  A    between atoms: C9_12  and  C10_14
REMARK    6  A    between atoms: C13_17  and  N2_18
REMARK    7  A    between atoms: N2_18  and  C14_20
ROOT
HETATM    1  N1  UNL     1      -2.721  27.029  52.631  1.00  0.00    -0.350 N
ATOM      2  H1  UNL     1      -2.528  27.534  51.765  1.00  0.00     0.163 HD
HETATM    3  C9  UNL     1      -1.867  25.983  53.040  1.00  0.00     0.222 C
HETATM    4  O1  UNL     1      -2.116  25.369  54.109  1.00  0.00    -0.273 OA
ENDROOT
BRANCH   1   5
HETATM    5  C7  UNL     1      -3.892  27.394  53.449  1.00  0.00     0.048 C
HETATM    6  C6  UNL     1      -3.459  27.745  54.817  1.00  0.00     0.079 C
HETATM    7  C4  UNL     1      -4.442  27.373  55.933  1.00  0.00     0.130 C
HETATM    8  O3  UNL     1      -5.143  26.194  55.542  1.00  0.00    -0.269 OA
HETATM    9  N3  UNL     1      -5.840  26.431  54.408  1.00  0.00    -0.097 NA
HETATM   10  C16 UNL     1      -4.879  26.266  53.333  1.00  0.00     0.173 C
HETATM   11  C8  UNL     1      -4.531  28.596  52.735  1.00  0.00     0.040 C
BRANCH   7  12
HETATM   12  C3  UNL     1      -5.450  28.414  56.085  1.00  0.00     0.011 C
BRANCH  12  13
HETATM   13  C2  UNL     1      -6.260  28.644  57.270  1.00  0.00    -0.032 C
HETATM   14  C1  UNL     1      -5.742  29.365  58.453  1.00  0.00     0.036 C
ENDBRANCH  12  13
ENDBRANCH   7  12
BRANCH   7  15
HETATM   15  C5  UNL     1      -3.615  26.954  57.084  1.00  0.00     0.266 C
HETATM   16  F1  UNL     1      -2.269  26.841  56.918  1.00  0.00    -0.252 F
ENDBRANCH   7  15
ENDBRANCH   1   5
BRANCH   3  17
HETATM   17  C10 UNL     1      -0.694  25.584  52.263  1.00  0.00     0.080 C
HETATM   18  C11 UNL     1       0.102  26.795  51.765  1.00  0.00     0.016 C
HETATM   19  C12 UNL     1       1.362  26.113  51.269  1.00  0.00     0.026 C
HETATM   20  C13 UNL     1       1.632  25.050  52.310  1.00  0.00     0.084 C
HETATM   21  C15 UNL     1       0.350  24.869  53.089  1.00  0.00     0.039 C
BRANCH  20  22
HETATM   22  N2  UNL     1       2.038  23.830  51.632  1.00  0.00    -0.364 N
ATOM     23  H2  UNL     1       2.575  23.897  50.768  1.00  0.00     0.162 HD
BRANCH  22  24
HETATM   24  C14 UNL     1       1.706  22.549  52.138  1.00  0.00     0.348 C
HETATM   25  O2  UNL     1       2.469  21.932  52.924  1.00  0.00    -0.284 OA
ENDBRANCH  22  24
ENDBRANCH  20  22
ENDBRANCH   3  17
TORSDOF 7
ENDMDL