MODEL 5
REMARK VINA RESULT: -6.863471406      1.917      4.235
REMARK  9 active torsions:
REMARK  status: ('A' for Active; 'I' for Inactive)
REMARK    1  A    between atoms: C2_2  and  N1_3
REMARK    2  A    between atoms: N1_3  and  C3_5
REMARK    3  A    between atoms: C7_9  and  C8_10
REMARK    4  A    between atoms: C8_10  and  C9_11
REMARK    5  A    between atoms: C9_11  and  N2_12
REMARK    6  A    between atoms: N2_12  and  C11_14
REMARK    7  A    between atoms: N2_12  and  C13_20
REMARK    8  A    between atoms: C11_14  and  C12_15
REMARK    9  A    between atoms: C12_15  and  N3_16
ROOT
HETATM    1  N2  UNL     1      -5.534  27.549  55.915  1.00  0.00    -0.009 N
HETATM    2  C10 UNL     1      -5.986  28.950  55.583  1.00  0.00     0.283 C
ENDROOT
BRANCH   1   3
HETATM    3  C9  UNL     1      -4.203  27.409  55.413  1.00  0.00     0.247 C
BRANCH   3   4
HETATM    4  C8  UNL     1      -3.180  26.960  56.398  1.00  0.00     0.035 C
BRANCH   4   5
HETATM    5  C7  UNL     1      -2.590  25.608  56.196  1.00  0.00     0.010 C
HETATM    6  C3  UNL     1      -1.728  25.450  54.968  1.00  0.00     0.084 C
HETATM    7  C4  UNL     1      -0.563  24.583  55.384  1.00  0.00     0.025 C
HETATM    8  C5  UNL     1      -0.319  25.111  56.823  1.00  0.00     0.002 C
HETATM    9  C6  UNL     1      -1.739  25.123  57.354  1.00  0.00     0.007 C
BRANCH   6  10
HETATM   10  N1  UNL     1      -2.427  25.083  53.807  1.00  0.00    -0.398 N
ATOM     11  H1  UNL     1      -2.980  24.226  53.813  1.00  0.00     0.159 HD
BRANCH  10  12
HETATM   12  C2  UNL     1      -2.388  25.858  52.639  1.00  0.00     0.051 C
HETATM   13  C1  UNL     1      -1.017  26.253  52.134  1.00  0.00     0.054 C
ENDBRANCH  10  12
ENDBRANCH   6  10
ENDBRANCH   4   5
ENDBRANCH   3   4
ENDBRANCH   1   3
BRANCH   1  14
HETATM   14  C11 UNL     1      -5.774  27.415  57.291  1.00  0.00     0.274 C
BRANCH  14  15
HETATM   15  C12 UNL     1      -6.499  28.456  58.048  1.00  0.00     0.258 C
BRANCH  15  16
HETATM   16  N3  UNL     1      -6.475  28.237  59.456  1.00  0.00    -0.078 N
ATOM     17  H33 UNL     1      -7.076  28.905  59.939  1.00  0.00     0.274 HD
ATOM     18  H32 UNL     1      -6.958  27.372  59.699  1.00  0.00     0.274 HD
ATOM     19  H31 UNL     1      -5.532  28.248  59.844  1.00  0.00     0.274 HD
ENDBRANCH  15  16
ENDBRANCH  14  15
ENDBRANCH   1  14
BRANCH   1  20
HETATM   20  C13 UNL     1      -6.486  26.760  55.157  1.00  0.00     0.275 C
HETATM   21  N4  UNL     1      -6.165  25.574  54.729  1.00  0.00    -0.353 N
HETATM   22  C14 UNL     1      -7.127  24.802  53.977  1.00  0.00     0.161 C
ATOM     23  H4  UNL     1      -5.240  25.191  54.924  1.00  0.00     0.162 HD
HETATM   24  C15 UNL     1      -7.742  25.699  52.925  1.00  0.00     0.205 C
HETATM   25  F1  UNL     1      -6.702  26.206  52.171  1.00  0.00    -0.246 F
HETATM   26  C16 UNL     1      -8.505  26.796  53.633  1.00  0.00     0.161 C
HETATM   27  N5  UNL     1      -7.784  27.223  54.839  1.00  0.00    -0.353 N
ATOM     28  H5  UNL     1      -8.238  27.881  55.473  1.00  0.00     0.162 HD
ENDBRANCH   1  20
TORSDOF 9
ENDMDL