MODEL 4
REMARK VINA RESULT: -6.322216281      4.137      6.411
REMARK  9 active torsions:
REMARK  status: ('A' for Active; 'I' for Inactive)
REMARK    1  A    between atoms: O1_2  and  C2_3
REMARK    2  A    between atoms: C2_3  and  C3_4
REMARK    3  A    between atoms: C3_4  and  N1_5
REMARK    4  A    between atoms: N1_5  and  C4_7
REMARK    5  A    between atoms: N3_11  and  C6_13
REMARK    6  A    between atoms: C6_13  and  C7_14
REMARK    7  A    between atoms: C8_18  and  N5_19
REMARK    8  A    between atoms: N5_19  and  C9_21
REMARK    9  A    between atoms: C9_21  and  C10_22
ROOT
HETATM    1  C4  UNL     1      -3.317  26.260  55.757  1.00  0.00     0.707 A
HETATM    2  N2  UNL     1      -3.885  27.050  56.674  1.00  0.00    -0.022 N
ATOM      3  H2  UNL     1      -3.887  26.773  57.656  1.00  0.00     0.203 HD
HETATM    4  C5  UNL     1      -4.451  28.205  56.302  1.00  0.00     0.707 A
HETATM    5  N3  UNL     1      -5.005  28.993  57.134  1.00  0.00    -0.224 N
ATOM      6  H3  UNL     1      -5.406  29.846  56.743  1.00  0.00     0.177 HD
HETATM    7  N4  UNL     1      -4.462  28.597  54.992  1.00  0.00    -0.022 N
ATOM      8  H4  UNL     1      -4.891  29.475  54.701  1.00  0.00     0.203 HD
HETATM    9  C8  UNL     1      -3.881  27.774  54.107  1.00  0.00     0.707 A
HETATM   10  N6  UNL     1      -3.305  26.604  54.470  1.00  0.00    -0.022 N
ATOM     11  H6  UNL     1      -2.872  25.999  53.774  1.00  0.00     0.203 HD
ENDROOT
BRANCH   9  12
HETATM   12  N5  UNL     1      -3.879  28.129  52.844  1.00  0.00    -0.224 N
ATOM     13  H5  UNL     1      -3.744  27.431  52.112  1.00  0.00     0.177 HD
BRANCH  12  14
HETATM   14  C9  UNL     1      -4.068  29.511  52.506  1.00  0.00     0.146 C
BRANCH  14  15
HETATM   15  C10 UNL     1      -3.044  30.025  51.545  1.00  0.00    -0.035 C
HETATM   16  C11 UNL     1      -2.008  28.965  51.265  1.00  0.00     0.016 C
HETATM   17  C12 UNL     1      -3.699  30.426  50.228  1.00  0.00     0.016 C
HETATM   18  C13 UNL     1      -2.368  31.253  52.114  1.00  0.00     0.016 C
ENDBRANCH  14  15
ENDBRANCH  12  14
ENDBRANCH   9  12
BRANCH   1  19
HETATM   19  N1  UNL     1      -2.786  25.162  56.167  1.00  0.00    -0.223 N
ATOM     20  H1  UNL     1      -3.270  24.296  55.931  1.00  0.00     0.177 HD
BRANCH  19  21
HETATM   21  C3  UNL     1      -1.577  25.049  56.924  1.00  0.00     0.164 C
BRANCH  21  22
HETATM   22  C2  UNL     1      -0.454  24.796  55.951  1.00  0.00     0.187 C
BRANCH  22  23
HETATM   23  O1  UNL     1      -0.977  24.354  54.756  1.00  0.00    -0.394 OA
HETATM   24  C1  UNL     1      -0.187  24.679  53.678  1.00  0.00     0.201 C
ENDBRANCH  22  23
ENDBRANCH  21  22
ENDBRANCH  19  21
ENDBRANCH   1  19
BRANCH   5  25
HETATM   25  C6  UNL     1      -5.135  28.830  58.550  1.00  0.00     0.153 C
BRANCH  25  26
HETATM   26  C7  UNL     1      -6.641  28.778  58.845  1.00  0.00     0.135 C
HETATM   27 CL1  UNL     1      -7.278  27.300  58.120  1.00  0.00    -0.129 Cl
ENDBRANCH  25  26
ENDBRANCH   5  25
TORSDOF 9
ENDMDL