MODEL 1
REMARK VINA RESULT: -7.488252347      0.000      0.000
REMARK  8 active torsions:
REMARK  status: ('A' for Active; 'I' for Inactive)
REMARK    1  A    between atoms: C2_2  and  C4_4
REMARK    2  A    between atoms: C4_4  and  C5_5
REMARK    3  A    between atoms: C5_5  and  C6_6
REMARK    4  A    between atoms: C5_5  and  N3_15
REMARK    5  A    between atoms: C6_6  and  N1_7
REMARK    6  A    between atoms: N1_7  and  S1_9
REMARK    7  A    between atoms: S1_9  and  N2_10
REMARK    8  A    between atoms: N3_15  and  C7_17
ROOT
HETATM    1  C5  UNL     1      -3.506  27.142  56.124  1.00  0.00     0.095 C
ENDROOT
BRANCH   1   2
HETATM    2  C4  UNL     1      -4.742  27.352  56.938  1.00  0.00     0.030 C
BRANCH   2   3
HETATM    3  C2  UNL     1      -5.157  28.771  57.113  1.00  0.00    -0.021 C
HETATM    4  C1  UNL     1      -6.460  28.992  56.327  1.00  0.00     0.009 C
HETATM    5  C3  UNL     1      -5.500  29.152  58.537  1.00  0.00     0.009 C
ENDBRANCH   2   3
ENDBRANCH   1   2
BRANCH   1   6
HETATM    6  C6  UNL     1      -2.494  26.251  56.792  1.00  0.00     0.158 C
BRANCH   6   7
HETATM    7  N1  UNL     1      -1.427  25.977  55.825  1.00  0.00    -0.301 N
ATOM      8  H1  UNL     1      -1.248  26.538  54.992  1.00  0.00     0.173 HD
BRANCH   7   9
HETATM    9  S1  UNL     1      -0.513  24.584  56.276  1.00  0.00     0.312 S
HETATM   10  O1  UNL     1       0.521  24.952  57.272  1.00  0.00    -0.183 OA
HETATM   11  O2  UNL     1       0.197  24.082  55.035  1.00  0.00    -0.183 OA
BRANCH   9  12
HETATM   12  N2  UNL     1      -1.553  23.309  56.824  1.00  0.00    -0.312 N
ATOM     13  H22 UNL     1      -2.246  22.850  56.233  1.00  0.00     0.170 HD
ATOM     14  H21 UNL     1      -1.375  23.088  57.804  1.00  0.00     0.170 HD
ENDBRANCH   9  12
ENDBRANCH   7   9
ENDBRANCH   6   7
ENDBRANCH   1   6
BRANCH   1  15
HETATM   15  N3  UNL     1      -3.822  26.843  54.792  1.00  0.00    -0.408 N
ATOM     16  H3  UNL     1      -3.248  27.228  54.042  1.00  0.00     0.154 HD
BRANCH  15  17
HETATM   17  C7  UNL     1      -4.910  26.027  54.477  1.00  0.00     0.115 C
HETATM   18  C8  UNL     1      -4.422  24.639  54.130  1.00  0.00     0.054 C
HETATM   19  C9  UNL     1      -4.519  24.532  52.611  1.00  0.00     0.170 C
HETATM   20  O3  UNL     1      -5.877  24.488  52.345  1.00  0.00    -0.383 OA
HETATM   21  C10 UNL     1      -6.516  25.693  52.554  1.00  0.00     0.153 C
HETATM   22  C11 UNL     1      -7.892  25.354  53.103  1.00  0.00     0.042 C
HETATM   23  C12 UNL     1      -5.804  26.644  53.448  1.00  0.00     0.221 C
HETATM   24  F1  UNL     1      -5.057  27.535  52.697  1.00  0.00    -0.245 F
ENDBRANCH  15  17
ENDBRANCH   1  15
TORSDOF 8
ENDMDL