MODEL 4
REMARK VINA RESULT: -6.665057092      2.107      6.008
REMARK  8 active torsions:
REMARK  status: ('A' for Active; 'I' for Inactive)
REMARK       I    between atoms: N1_3  and  C3_5
REMARK       I    between atoms: C3_5  and  N4_15
REMARK    1  A    between atoms: N2_6  and  C4_8
REMARK    2  A    between atoms: C4_8  and  C5_9
REMARK    3  A    between atoms: C5_9  and  N3_10
REMARK    4  A    between atoms: N3_10  and  C6_11
REMARK    5  A    between atoms: N3_10  and  C8_13
REMARK    6  A    between atoms: N4_15  and  C10_17
REMARK    7  A    between atoms: N5_21  and  C14_22
REMARK    8  A    between atoms: C16_24  and  O1_25
ROOT
HETATM    1  C1  UNL     1      -8.425  23.944  51.671  1.00  0.00     0.037 C
HETATM    2  C2  UNL     1      -8.195  25.047  52.092  1.00  0.00     0.015 C
HETATM    3  N1  UNL     1      -7.935  26.338  52.556  1.00  0.00    -0.150 N
ATOM      4  H1  UNL     1      -8.040  27.131  51.923  1.00  0.00     0.195 HD
HETATM    5  C3  UNL     1      -7.527  26.560  53.894  1.00  0.00     0.681 C
HETATM    6  N2  UNL     1      -8.204  27.318  54.640  1.00  0.00    -0.224 N
ATOM      7  H2  UNL     1      -9.032  27.737  54.214  1.00  0.00     0.177 HD
HETATM    8  N4  UNL     1      -6.355  25.919  54.363  1.00  0.00    -0.217 N
ATOM      9  H4  UNL     1      -6.352  25.420  55.253  1.00  0.00     0.178 HD
ENDROOT
BRANCH   6  10
HETATM   10  C4  UNL     1      -7.959  27.668  56.012  1.00  0.00     0.158 C
BRANCH  10  11
HETATM   11  C5  UNL     1      -6.990  28.806  56.132  1.00  0.00     0.142 C
BRANCH  11  12
HETATM   12  N3  UNL     1      -5.986  28.548  57.091  1.00  0.00    -0.393 N
BRANCH  12  13
HETATM   13  C6  UNL     1      -4.666  28.439  56.652  1.00  0.00     0.054 C
HETATM   14  C7  UNL     1      -3.823  27.663  57.632  1.00  0.00     0.054 C
ENDBRANCH  12  13
BRANCH  12  15
HETATM   15  C8  UNL     1      -6.381  27.820  58.237  1.00  0.00     0.117 C
HETATM   16  C9  UNL     1      -6.764  28.825  59.320  1.00  0.00     0.026 C
ENDBRANCH  12  15
ENDBRANCH  11  12
ENDBRANCH  10  11
ENDBRANCH   6  10
BRANCH   8  17
HETATM   17  C10 UNL     1      -5.155  25.988  53.547  1.00  0.00     0.148 C
HETATM   18  C11 UNL     1      -5.054  27.255  52.762  1.00  0.00     0.035 C
HETATM   19  C12 UNL     1      -3.867  28.088  53.251  1.00  0.00     0.047 C
HETATM   20  C13 UNL     1      -2.627  27.259  52.953  1.00  0.00     0.066 C
HETATM   21  N5  UNL     1      -2.792  25.988  53.531  1.00  0.00    -0.346 N
HETATM   22  C16 UNL     1      -3.903  25.758  54.372  1.00  0.00     0.246 C
BRANCH  21  23
HETATM   23  C14 UNL     1      -1.745  25.057  53.478  1.00  0.00     0.061 C
HETATM   24  C15 UNL     1      -0.504  25.529  52.776  1.00  0.00     0.055 C
ENDBRANCH  21  23
BRANCH  22  25
HETATM   25  O1  UNL     1      -3.926  24.402  54.731  1.00  0.00    -0.374 OA
ATOM     26  H1  UNL     1      -3.233  24.292  55.371  1.00  0.00     0.212 HD
ENDBRANCH  22  25
ENDBRANCH   8  17
TORSDOF 8
ENDMDL