MODEL 3
REMARK VINA RESULT: -8.922770821      3.629      5.657
REMARK  5 active torsions:
REMARK  status: ('A' for Active; 'I' for Inactive)
REMARK    1  A    between atoms: C4_5  and  N1_6
REMARK    2  A    between atoms: C7_9  and  C8_10
REMARK    3  A    between atoms: C8_10  and  O1_11
REMARK    4  A    between atoms: C12_20  and  C13_21
REMARK    5  A    between atoms: N4_24  and  C16_25
ROOT
HETATM    1  C1  UNL     1       5.550  10.433   6.453  1.00  0.00     0.018 C
HETATM    2  C2  UNL     1       5.003   9.884   7.373  1.00  0.00    -0.069 C
HETATM    3  C3  UNL     1       4.369   9.215   8.488  1.00  0.00     0.074 A
HETATM    4  S1  UNL     1       4.888   9.251  10.100  1.00  0.00    -0.060 SA
HETATM    5  C4  UNL     1       3.675   8.235  10.816  1.00  0.00     0.102 A
HETATM    6  C11 UNL     1       2.906   7.912   9.729  1.00  0.00     0.096 A
HETATM    7  N2  UNL     1       1.777   7.158   9.494  1.00  0.00    -0.297 N
ATOM      8  H2  UNL     1       1.264   6.645  10.210  1.00  0.00     0.187 HD
HETATM    9  N3  UNL     1       1.452   7.190   8.218  1.00  0.00    -0.303 N
ATOM     10  H3  UNL     1       0.659   6.711   7.792  1.00  0.00     0.186 HD
HETATM   11  C12 UNL     1       2.340   7.959   7.574  1.00  0.00     0.045 A
HETATM   12  C21 UNL     1       3.257   8.411   8.539  1.00  0.00     0.045 A
ENDROOT
BRANCH   5  13
HETATM   13  N1  UNL     1       3.596   7.903  12.200  1.00  0.00    -0.373 N
HETATM   14  C5  UNL     1       3.203   6.651  12.760  1.00  0.00     0.124 C
HETATM   15  C6  UNL     1       1.793   6.728  13.328  1.00  0.00     0.026 C
HETATM   16  C7  UNL     1       1.600   8.170  13.766  1.00  0.00     0.012 C
HETATM   17  C9  UNL     1       2.881   8.745  14.297  1.00  0.00     0.026 C
HETATM   18  C10 UNL     1       3.918   8.947  13.180  1.00  0.00     0.124 C
BRANCH  16  19
HETATM   19  C8  UNL     1       0.549   8.278  14.840  1.00  0.00     0.168 C
BRANCH  19  20
HETATM   20  O1  UNL     1       1.100   7.858  16.054  1.00  0.00    -0.400 OA
ATOM     21  H1  UNL     1       0.548   8.164  16.764  1.00  0.00     0.209 HD
ENDBRANCH  19  20
ENDBRANCH  16  19
ENDBRANCH   5  13
BRANCH  11  22
HETATM   22  C13 UNL     1       2.256   8.231   6.131  1.00  0.00     0.044 C
HETATM   23  C14 UNL     1       3.364   7.505   5.375  1.00  0.00     0.031 C
HETATM   24  C15 UNL     1       3.362   8.077   3.972  1.00  0.00     0.123 C
HETATM   25  N4  UNL     1       2.138   7.715   3.357  1.00  0.00    -0.389 N
HETATM   26  C19 UNL     1       1.161   7.104   4.168  1.00  0.00     0.059 C
HETATM   27  C20 UNL     1       0.952   7.780   5.507  1.00  0.00     0.055 C
BRANCH  25  28
HETATM   28  C16 UNL     1       2.150   7.427   1.989  1.00  0.00     0.075 C
HETATM   29  C17 UNL     1       0.998   6.495   1.647  1.00  0.00     0.032 C
HETATM   30  C18 UNL     1       3.423   6.699   1.559  1.00  0.00     0.032 C
ENDBRANCH  25  28
ENDBRANCH  11  22
TORSDOF 5
ENDMDL