MODEL 1
REMARK VINA RESULT: -8.719199876      0.000      0.000
REMARK  5 active torsions:
REMARK  status: ('A' for Active; 'I' for Inactive)
REMARK    1  A    between atoms: C9_13  and  N3_14
REMARK    2  A    between atoms: C16_21  and  C17_22
REMARK    3  A    between atoms: C17_22  and  C18_23
REMARK    4  A    between atoms: C18_23  and  C19_24
REMARK    5  A    between atoms: C19_24  and  O2_25
ROOT
HETATM    1  N3  UNL     1       1.378   7.291   8.581  1.00  0.00     0.100 N
HETATM    2  C10 UNL     1       1.274   8.718   8.377  1.00  0.00     0.273 C
HETATM    3  C11 UNL     1       2.572   9.339   8.789  1.00  0.00     0.033 C
HETATM    4  C12 UNL     1       3.684   8.321   8.494  1.00  0.00     0.039 C
HETATM    5  C13 UNL     1       3.698   8.164   7.013  1.00  0.00     0.063 C
HETATM    6  C14 UNL     1       5.047   7.527   6.641  1.00  0.00     0.040 C
HETATM    7  C15 UNL     1       5.126   8.027   5.194  1.00  0.00     0.035 C
HETATM    8  C16 UNL     1       4.564   9.408   5.368  1.00  0.00     0.122 C
HETATM    9  O3  UNL     1       3.754   9.445   6.460  1.00  0.00    -0.375 OA
HETATM   10  C20 UNL     1       2.557   7.436   6.428  1.00  0.00     0.068 C
HETATM   11  C21 UNL     1       1.727   6.631   7.383  1.00  0.00     0.276 C
ENDROOT
BRANCH   1  12
HETATM   12  C9  UNL     1       0.228   6.850   9.284  1.00  0.00     0.287 C
HETATM   13  C1  UNL     1       0.156   7.293  10.710  1.00  0.00     0.129 C
HETATM   14  N1  UNL     1       1.369   7.014  11.486  1.00  0.00    -0.085 NA
HETATM   15  N2  UNL     1      -0.790   7.865  11.293  1.00  0.00    -0.317 N
HETATM   16  C2  UNL     1      -2.052   8.335  11.085  1.00  0.00     0.222 C
ATOM     17  H2  UNL     1      -0.526   8.041  12.263  1.00  0.00     0.169 HD
HETATM   18  O1  UNL     1      -2.316   9.459  10.567  1.00  0.00    -0.273 OA
HETATM   19  C3  UNL     1      -3.254   7.533  11.470  1.00  0.00     0.103 C
HETATM   20  C4  UNL     1      -3.821   6.647  10.434  1.00  0.00     0.009 C
HETATM   21  C5  UNL     1      -3.385   6.839   9.030  1.00  0.00     0.000 C
HETATM   22  C6  UNL     1      -2.536   5.722   8.483  1.00  0.00     0.000 C
HETATM   23  C7  UNL     1      -1.569   5.100   9.403  1.00  0.00     0.002 C
HETATM   24  C8  UNL     1      -0.120   5.409   9.091  1.00  0.00     0.043 C
ENDBRANCH   1  12
BRANCH   8  25
HETATM   25  C17 UNL     1       5.623  10.472   5.489  1.00  0.00     0.034 C
BRANCH  25  26
HETATM   26  C18 UNL     1       5.608  11.468   4.349  1.00  0.00     0.028 C
BRANCH  26  27
HETATM   27  C19 UNL     1       7.057  11.952   4.186  1.00  0.00     0.164 C
BRANCH  27  28
HETATM   28  O2  UNL     1       7.272  12.442   2.907  1.00  0.00    -0.401 OA
ATOM     29  H2  UNL     1       7.716  11.797   2.368  1.00  0.00     0.209 HD
ENDBRANCH  27  28
ENDBRANCH  26  27
ENDBRANCH  25  26
ENDBRANCH   8  25
TORSDOF 5
ENDMDL