MODEL 3
REMARK VINA RESULT: -9.204326860      2.450      6.305
REMARK  5 active torsions:
REMARK  status: ('A' for Active; 'I' for Inactive)
REMARK    1  A    between atoms: C5_5  and  C6_6
REMARK       I    between atoms: C6_6  and  N1_8
REMARK    2  A    between atoms: N1_8  and  C7_10
REMARK    3  A    between atoms: C7_10  and  C8_11
REMARK    4  A    between atoms: C8_11  and  O2_12
REMARK    5  A    between atoms: C12_21  and  C13_22
ROOT
HETATM    1  C8  UNL     1       4.705   7.658   8.157  1.00  0.00     0.090 C
HETATM    2  C9  UNL     1       5.030   9.041   8.715  1.00  0.00     0.048 C
HETATM    3  C10 UNL     1       4.725   9.114  10.178  1.00  0.00     0.081 C
HETATM    4  C11 UNL     1       3.366   8.576  10.405  1.00  0.00     0.099 A
HETATM    5  N2  UNL     1       2.577   8.742  11.505  1.00  0.00    -0.287 N
ATOM      6  H2  UNL     1       2.816   9.270  12.344  1.00  0.00     0.188 HD
HETATM    7  N3  UNL     1       1.462   8.101  11.290  1.00  0.00    -0.287 N
ATOM      8  H3  UNL     1       0.680   8.049  11.943  1.00  0.00     0.188 HD
HETATM    9  C12 UNL     1       1.495   7.520  10.078  1.00  0.00     0.103 A
HETATM   10  N4  UNL     1       2.678   7.825   9.549  1.00  0.00    -0.321 N
HETATM   11  C20 UNL     1       3.193   7.422   8.235  1.00  0.00     0.171 C
ENDROOT
BRANCH   1  12
HETATM   12  C7  UNL     1       5.085   7.678   6.716  1.00  0.00     0.162 C
BRANCH  12  13
HETATM   13  N1  UNL     1       3.982   7.501   5.832  1.00  0.00    -0.358 N
HETATM   14  C6  UNL     1       3.752   8.277   4.685  1.00  0.00     0.221 C
HETATM   15  O1  UNL     1       4.483   9.181   4.316  1.00  0.00    -0.273 OA
ATOM     16  H1  UNL     1       3.315   6.759   6.046  1.00  0.00     0.162 HD
BRANCH  14  17
HETATM   17  C5  UNL     1       2.522   7.966   3.868  1.00  0.00     0.078 C
HETATM   18  C4  UNL     1       1.591   7.163   4.728  1.00  0.00     0.014 C
HETATM   19  C3  UNL     1       0.299   6.835   4.001  1.00  0.00     0.005 C
HETATM   20  C2  UNL     1       0.520   6.827   2.498  1.00  0.00    -0.019 C
HETATM   21  C1  UNL     1      -0.580   6.092   1.787  1.00  0.00     0.010 C
HETATM   22  C22 UNL     1       1.878   6.245   2.227  1.00  0.00     0.005 C
HETATM   23  C21 UNL     1       2.924   7.268   2.602  1.00  0.00     0.014 C
ENDBRANCH  14  17
ENDBRANCH  12  13
ENDBRANCH   1  12
BRANCH   1  24
HETATM   24  O2  UNL     1       5.338   6.745   8.921  1.00  0.00    -0.386 OA
ATOM     25  H2  UNL     1       4.782   6.208   9.473  1.00  0.00     0.210 HD
ENDBRANCH   1  24
BRANCH   9  26
HETATM   26  C13 UNL     1       0.359   6.717   9.554  1.00  0.00     0.055 C
HETATM   27  C14 UNL     1      -0.479   7.651   8.714  1.00  0.00     0.012 C
HETATM   28  C15 UNL     1      -1.502   6.953   7.885  1.00  0.00     0.001 C
HETATM   29  C16 UNL     1      -1.386   5.457   7.904  1.00  0.00     0.000 C
HETATM   30  C17 UNL     1      -1.699   4.838   9.228  1.00  0.00     0.000 C
HETATM   31  C18 UNL     1      -1.839   5.846  10.341  1.00  0.00     0.001 C
HETATM   32  C19 UNL     1      -0.424   6.228  10.774  1.00  0.00     0.012 C
ENDBRANCH   9  26
TORSDOF 5
ENDMDL