MODEL 2
REMARK VINA RESULT: -8.464359590      2.150      6.100
REMARK  7 active torsions:
REMARK  status: ('A' for Active; 'I' for Inactive)
REMARK    1  A    between atoms: C2_2  and  C4_4
REMARK    2  A    between atoms: C8_8  and  O1_9
REMARK    3  A    between atoms: C17_19  and  C18_20
REMARK    4  A    between atoms: C18_20  and  O2_21
REMARK    5  A    between atoms: O2_21  and  C19_22
REMARK    6  A    between atoms: C19_22  and  C20_24
REMARK    7  A    between atoms: C20_24  and  O4_25
ROOT
HETATM    1  C4  UNL     1       2.666   7.488   3.602  1.00  0.00    -0.077 C
HETATM    2  C5  UNL     1       1.917   6.835   4.435  1.00  0.00    -0.011 C
HETATM    3  C6  UNL     1       1.183   7.229   5.655  1.00  0.00     0.004 C
HETATM    4  C7  UNL     1       0.270   6.009   6.015  1.00  0.00     0.022 C
HETATM    5  C8  UNL     1       0.182   8.312   5.465  1.00  0.00     0.130 C
HETATM    6  C9  UNL     1       0.060   9.268   6.616  1.00  0.00     0.033 C
HETATM    7  C10 UNL     1       0.263   8.628   7.943  1.00  0.00     0.012 C
HETATM    8  C11 UNL     1       1.542   7.850   8.078  1.00  0.00    -0.043 C
HETATM    9  C12 UNL     1       2.479   8.727   8.886  1.00  0.00     0.015 C
HETATM   10  C13 UNL     1       1.169   6.718   9.061  1.00  0.00     0.015 C
HETATM   11  C14 UNL     1       2.126   7.325   6.798  1.00  0.00     0.008 C
HETATM   12  C15 UNL     1       3.535   7.713   6.538  1.00  0.00     0.009 C
HETATM   13  C16 UNL     1       3.909   9.111   6.319  1.00  0.00     0.043 C
HETATM   14  C17 UNL     1       4.961   9.311   5.231  1.00  0.00     0.110 A
HETATM   15  O5  UNL     1       5.247   8.141   4.564  1.00  0.00    -0.367 OA
HETATM   16  C21 UNL     1       4.529   9.129   3.882  1.00  0.00     0.163 A
HETATM   17  C22 UNL     1       3.060   8.928   3.629  1.00  0.00     0.069 C
ENDROOT
BRANCH  14  18
HETATM   18  C18 UNL     1       6.073  10.320   5.476  1.00  0.00     0.219 C
BRANCH  18  19
HETATM   19  O2  UNL     1       6.789  10.036   6.658  1.00  0.00    -0.317 OA
BRANCH  19  20
HETATM   20  C19 UNL     1       8.173   9.956   6.613  1.00  0.00     0.282 C
HETATM   21  O3  UNL     1       8.731   9.127   7.374  1.00  0.00    -0.263 OA
BRANCH  20  22
HETATM   22  C20 UNL     1       9.002  10.801   5.714  1.00  0.00     0.275 C
BRANCH  22  23
HETATM   23  O4  UNL     1       9.472  11.932   6.334  1.00  0.00    -0.391 OA
ATOM     24  H4  UNL     1       9.400  12.707   5.788  1.00  0.00     0.210 HD
ENDBRANCH  22  23
ENDBRANCH  20  22
ENDBRANCH  19  20
ENDBRANCH  18  19
ENDBRANCH  14  18
BRANCH   1  25
HETATM   25  C2  UNL     1       3.274   6.735   2.422  1.00  0.00     0.006 C
HETATM   26  C1  UNL     1       2.899   7.482   1.161  1.00  0.00     0.014 C
HETATM   27  C3  UNL     1       2.867   5.303   2.394  1.00  0.00     0.014 C
ENDBRANCH   1  25
BRANCH   5  28
HETATM   28  O1  UNL     1      -1.143   7.799   5.320  1.00  0.00    -0.394 OA
ATOM     29  H1  UNL     1      -1.347   7.587   4.417  1.00  0.00     0.210 HD
ENDBRANCH   5  28
TORSDOF 7
ENDMDL