MODEL 1
REMARK VINA RESULT: -8.692428710      0.000      0.000
REMARK  7 active torsions:
REMARK  status: ('A' for Active; 'I' for Inactive)
REMARK    1  A    between atoms: O1_2  and  C2_3
REMARK    2  A    between atoms: C2_3  and  C3_5
REMARK    3  A    between atoms: C3_5  and  C5_7
REMARK    4  A    between atoms: C5_7  and  C6_8
REMARK    5  A    between atoms: C6_8  and  C7_9
REMARK    6  A    between atoms: C13_15  and  O3_16
REMARK    7  A    between atoms: C20_25  and  O5_26
ROOT
HETATM    1  C7  UNL     1       4.870   9.450   7.933  1.00  0.00    -0.003 C
HETATM    2  C8  UNL     1       4.179  10.186   9.045  1.00  0.00     0.006 C
HETATM    3  C9  UNL     1       3.528   9.089   9.911  1.00  0.00     0.006 C
HETATM    4  C10 UNL     1       3.147   8.021   8.901  1.00  0.00     0.002 C
HETATM    5  C11 UNL     1       2.009   8.355   8.061  1.00  0.00     0.009 C
HETATM    6  C12 UNL     1       0.644   8.299   8.697  1.00  0.00     0.038 C
HETATM    7  C13 UNL     1      -0.206   8.507   7.459  1.00  0.00     0.127 C
HETATM    8  C14 UNL     1       0.556   7.804   6.339  1.00  0.00    -0.007 C
HETATM    9  C15 UNL     1      -0.306   6.633   5.916  1.00  0.00     0.018 C
HETATM   10  C16 UNL     1       0.761   8.693   5.155  1.00  0.00     0.018 C
HETATM   11  C17 UNL     1       1.828   7.316   6.975  1.00  0.00     0.033 C
HETATM   12  C18 UNL     1       1.651   5.918   7.512  1.00  0.00     0.025 C
HETATM   13  C19 UNL     1       3.018   7.346   6.139  1.00  0.00     0.165 C
HETATM   14  O4  UNL     1       3.058   7.483   4.943  1.00  0.00    -0.294 OA
HETATM   15  C20 UNL     1       4.327   7.189   6.866  1.00  0.00     0.197 C
HETATM   16  C21 UNL     1       4.431   8.050   8.055  1.00  0.00    -0.004 C
HETATM   17  C22 UNL     1       5.447   7.349   8.981  1.00  0.00     0.019 C
ENDROOT
BRANCH   1  18
HETATM   18  C6  UNL     1       4.893  10.113   6.636  1.00  0.00     0.006 C
BRANCH  18  19
HETATM   19  C5  UNL     1       6.183  10.576   6.080  1.00  0.00     0.014 C
BRANCH  19  20
HETATM   20  C3  UNL     1       6.291  10.929   4.637  1.00  0.00     0.081 C
HETATM   21  C4  UNL     1       5.036  11.740   4.220  1.00  0.00     0.020 C
BRANCH  20  22
HETATM   22  C2  UNL     1       7.463  11.807   4.344  1.00  0.00     0.262 C
HETATM   23  O2  UNL     1       7.626  12.286   3.203  1.00  0.00    -0.265 OA
BRANCH  22  24
HETATM   24  O1  UNL     1       8.392  12.113   5.325  1.00  0.00    -0.326 OA
HETATM   25  C1  UNL     1       9.757  11.747   5.251  1.00  0.00     0.213 C
ENDBRANCH  22  24
ENDBRANCH  20  22
ENDBRANCH  19  20
ENDBRANCH  18  19
ENDBRANCH   1  18
BRANCH  15  26
HETATM   26  O5  UNL     1       5.429   7.186   6.072  1.00  0.00    -0.387 OA
ATOM     27  H5  UNL     1       6.248   7.357   6.521  1.00  0.00     0.210 HD
ENDBRANCH  15  26
BRANCH   7  28
HETATM   28  O3  UNL     1      -1.486   8.035   7.598  1.00  0.00    -0.395 OA
ATOM     29  H3  UNL     1      -2.043   8.241   6.856  1.00  0.00     0.210 HD
ENDBRANCH   7  28
TORSDOF 7
ENDMDL