MODEL 1
REMARK VINA RESULT: -9.613207970      0.000      0.000
REMARK  6 active torsions:
REMARK  status: ('A' for Active; 'I' for Inactive)
REMARK    1  A    between atoms: C9_11  and  O3_12
REMARK    2  A    between atoms: C10_14  and  O4_15
REMARK    3  A    between atoms: O4_15  and  C11_16
REMARK    4  A    between atoms: C11_16  and  C12_17
REMARK    5  A    between atoms: C12_17  and  C13_18
REMARK    6  A    between atoms: C18_23  and  O5_24
ROOT
HETATM    1  C1  UNL     1      -0.133   7.390   5.117  1.00  0.00     0.025 C
HETATM    2  C2  UNL     1       0.318   7.543   6.321  1.00  0.00     0.013 C
HETATM    3  C3  UNL     1      -0.607   7.372   7.426  1.00  0.00     0.288 C
HETATM    4  O1  UNL     1      -1.810   7.144   7.200  1.00  0.00    -0.260 OA
HETATM    5  O2  UNL     1      -0.137   7.464   8.717  1.00  0.00    -0.317 OA
HETATM    6  C4  UNL     1       1.265   7.465   9.027  1.00  0.00     0.189 C
HETATM    7  C5  UNL     1       2.083   6.982   7.815  1.00  0.00    -0.010 C
HETATM    8  C6  UNL     1       1.491   5.609   7.463  1.00  0.00     0.018 C
HETATM    9  C7  UNL     1       3.470   6.743   8.239  1.00  0.00     0.002 C
HETATM   10  C8  UNL     1       4.214   7.501   9.236  1.00  0.00     0.040 C
HETATM   11  C9  UNL     1       5.544   8.094   8.845  1.00  0.00     0.150 C
HETATM   12  C10 UNL     1       5.746   8.522   7.381  1.00  0.00     0.184 C
HETATM   13  C18 UNL     1       4.443   8.301   6.771  1.00  0.00     0.086 C
HETATM   14  C19 UNL     1       3.902   8.594   5.485  1.00  0.00     0.041 C
HETATM   15  C20 UNL     1       2.481   8.008   5.472  1.00  0.00     0.013 C
HETATM   16  C21 UNL     1       1.729   7.895   6.710  1.00  0.00     0.034 C
HETATM   17  C22 UNL     1       4.254   6.847   6.958  1.00  0.00     0.046 C
ENDROOT
BRANCH  12  18
HETATM   18  O4  UNL     1       6.272   9.780   7.288  1.00  0.00    -0.380 OA
BRANCH  18  19
HETATM   19  C11 UNL     1       7.142   9.916   6.218  1.00  0.00     0.168 C
BRANCH  19  20
HETATM   20  C12 UNL     1       6.914  11.125   5.369  1.00  0.00     0.031 C
BRANCH  20  21
HETATM   21  C13 UNL     1       8.123  12.028   5.309  1.00  0.00    -0.013 C
HETATM   22  C14 UNL     1       9.352  11.414   5.896  1.00  0.00     0.005 C
HETATM   23  C15 UNL     1      10.463  12.137   5.153  1.00  0.00     0.000 C
HETATM   24  C16 UNL     1       9.958  12.142   3.739  1.00  0.00     0.000 C
HETATM   25  C17 UNL     1       8.470  12.329   3.880  1.00  0.00     0.005 C
ENDBRANCH  20  21
ENDBRANCH  19  20
ENDBRANCH  18  19
ENDBRANCH  12  18
BRANCH  11  26
HETATM   26  O3  UNL     1       5.686   9.273   9.598  1.00  0.00    -0.393 OA
ATOM     27  H3  UNL     1       5.304   9.969   9.077  1.00  0.00     0.210 HD
ENDBRANCH  11  26
BRANCH  13  28
HETATM   28  O5  UNL     1       3.728   9.220   7.578  1.00  0.00    -0.387 OA
ATOM     29  H5  UNL     1       3.077   8.604   7.894  1.00  0.00     0.210 HD
ENDBRANCH  13  28
TORSDOF 6
ENDMDL