MODEL 3
REMARK VINA RESULT: -8.463716019      1.002      1.731
REMARK  6 active torsions:
REMARK  status: ('A' for Active; 'I' for Inactive)
REMARK    1  A    between atoms: C2_2  and  O1_3
REMARK    2  A    between atoms: C2_2  and  C3_5
REMARK    3  A    between atoms: C2_2  and  C14_18
REMARK    4  A    between atoms: C3_5  and  C4_6
REMARK    5  A    between atoms: C5_7  and  C6_8
REMARK    6  A    between atoms: C6_8  and  O2_9
ROOT
HETATM    1  C1  UNL     1       0.480   6.785   3.900  1.00  0.00     0.047 C
HETATM    2  C2  UNL     1       0.881   7.015   5.360  1.00  0.00     0.068 C
ENDROOT
BRANCH   2   3
HETATM    3  O1  UNL     1       0.070   7.993   5.887  1.00  0.00    -0.389 OA
ATOM      4  H1  UNL     1      -0.400   7.627   6.627  1.00  0.00     0.210 HD
ENDBRANCH   2   3
BRANCH   2   5
HETATM    5  C3  UNL     1       0.670   5.697   6.116  1.00  0.00     0.065 C
BRANCH   5   6
HETATM    6  C4  UNL     1       0.442   5.892   7.555  1.00  0.00    -0.025 C
HETATM    7  C5  UNL     1      -0.700   5.597   8.123  1.00  0.00     0.007 C
BRANCH   7   8
HETATM    8  C6  UNL     1      -0.967   5.782   9.580  1.00  0.00     0.082 C
HETATM    9  C7  UNL     1      -1.452   4.479  10.120  1.00  0.00     0.043 C
HETATM   10  C8  UNL     1      -2.587   4.625  11.104  1.00  0.00     0.003 C
HETATM   11  C9  UNL     1      -2.359   5.845  11.960  1.00  0.00     0.001 C
HETATM   12  C10 UNL     1      -2.539   7.057  11.075  1.00  0.00     0.012 C
HETATM   13  C11 UNL     1      -1.933   6.913   9.723  1.00  0.00    -0.013 C
HETATM   14  C12 UNL     1      -1.154   8.203   9.437  1.00  0.00     0.018 C
HETATM   15  C13 UNL     1      -3.035   6.857   8.681  1.00  0.00     0.018 C
BRANCH   8  16
HETATM   16  O2  UNL     1       0.256   6.134  10.178  1.00  0.00    -0.385 OA
ATOM     17  H2  UNL     1       0.066   6.815  10.814  1.00  0.00     0.211 HD
ENDBRANCH   8  16
ENDBRANCH   7   8
ENDBRANCH   5   6
ENDBRANCH   2   5
BRANCH   2  18
HETATM   18  C14 UNL     1       2.324   7.337   5.361  1.00  0.00     0.098 C
HETATM   19  C15 UNL     1       2.783   7.814   3.979  1.00  0.00     0.094 C
HETATM   20  C16 UNL     1       4.185   8.300   4.068  1.00  0.00     0.133 C
HETATM   21  O3  UNL     1       4.977   7.937   3.227  1.00  0.00    -0.297 OA
HETATM   22  C17 UNL     1       4.574   9.186   5.144  1.00  0.00     0.079 C
HETATM   23  C18 UNL     1       6.021   9.417   5.377  1.00  0.00     0.021 C
HETATM   24  C21 UNL     1       4.218   8.478   6.472  1.00  0.00     0.088 C
HETATM   25  C19 UNL     1       6.031   9.930   6.825  1.00  0.00     0.080 C
HETATM   26  C20 UNL     1       4.700   9.496   7.404  1.00  0.00     0.143 C
HETATM   27  O4  UNL     1       4.186   9.914   8.405  1.00  0.00    -0.297 OA
HETATM   28  C22 UNL     1       4.936   7.165   6.568  1.00  0.00     0.032 C
HETATM   29  C23 UNL     1       2.744   8.331   6.387  1.00  0.00     0.150 C
HETATM   30  O5  UNL     1       2.007   8.950   7.072  1.00  0.00    -0.296 OA
ENDBRANCH   2  18
TORSDOF 6
ENDMDL