MODEL 5
REMARK VINA RESULT: -8.265776373      3.038      5.165
REMARK  6 active torsions:
REMARK  status: ('A' for Active; 'I' for Inactive)
REMARK    1  A    between atoms: C3_6  and  O1_7
REMARK    2  A    between atoms: C4_9  and  C6_11
REMARK    3  A    between atoms: C6_11  and  C7_12
REMARK    4  A    between atoms: C7_12  and  O3_14
REMARK    5  A    between atoms: O3_14  and  C8_15
REMARK    6  A    between atoms: N2_20  and  C13_21
ROOT
HETATM    1  C1  UNL     1       0.486   5.935   9.859  1.00  0.00     0.063 C
HETATM    2  C2  UNL     1       0.061   6.897   8.827  1.00  0.00     0.282 C
HETATM    3  N1  UNL     1      -0.952   6.154   8.080  1.00  0.00    -0.026 N
ATOM      4  H11 UNL     1      -1.724   5.755   8.615  1.00  0.00     0.282 HD
ATOM      5  H12 UNL     1      -0.676   5.251   7.695  1.00  0.00     0.282 HD
HETATM    6  C3  UNL     1      -1.280   7.214   7.125  1.00  0.00     0.349 C
HETATM    7  C4  UNL     1       0.177   7.452   6.637  1.00  0.00     0.087 C
HETATM    8  C5  UNL     1       0.074   8.723   5.873  1.00  0.00     0.043 C
HETATM    9  N2  UNL     1       0.865   7.448   7.870  1.00  0.00    -0.364 N
ENDROOT
BRANCH   9  10
HETATM   10  C13 UNL     1       2.217   7.721   8.044  1.00  0.00     0.031 C
HETATM   11  C14 UNL     1       2.318   8.520   9.366  1.00  0.00     0.031 C
HETATM   12  C15 UNL     1       3.511   8.144  10.173  1.00  0.00     0.007 C
HETATM   13  C16 UNL     1       4.825   8.148   9.488  1.00  0.00    -0.014 C
HETATM   14  C17 UNL     1       4.848   9.226   8.432  1.00  0.00     0.009 C
HETATM   15  C21 UNL     1       5.282   6.844   8.920  1.00  0.00     0.009 C
HETATM   16  C18 UNL     1       4.325   8.786   7.133  1.00  0.00    -0.012 C
HETATM   17  C19 UNL     1       4.798   7.453   6.638  1.00  0.00     0.009 C
HETATM   18  C23 UNL     1       2.793   8.730   7.059  1.00  0.00     0.035 C
HETATM   19  C20 UNL     1       4.429   6.484   7.694  1.00  0.00    -0.012 C
HETATM   20  C22 UNL     1       3.000   6.465   8.110  1.00  0.00     0.035 C
ENDBRANCH   9  10
BRANCH   7  21
HETATM   21  C6  UNL     1       0.520   6.326   5.701  1.00  0.00     0.146 C
BRANCH  21  22
HETATM   22  C7  UNL     1       0.114   6.444   4.318  1.00  0.00     0.261 C
HETATM   23  O2  UNL     1      -1.058   6.086   3.950  1.00  0.00    -0.265 OA
BRANCH  22  24
HETATM   24  O3  UNL     1       0.886   6.925   3.278  1.00  0.00    -0.316 OA
BRANCH  24  25
HETATM   25  C8  UNL     1       2.239   6.689   3.077  1.00  0.00     0.132 C
HETATM   26  C9  UNL     1       3.019   7.899   3.543  1.00  0.00     0.032 C
HETATM   27  C10 UNL     1       4.369   7.685   2.910  1.00  0.00     0.002 C
HETATM   28  C11 UNL     1       4.148   6.725   1.748  1.00  0.00     0.002 C
HETATM   29  C12 UNL     1       2.636   6.618   1.622  1.00  0.00     0.032 C
ENDBRANCH  24  25
ENDBRANCH  22  24
ENDBRANCH  21  22
ENDBRANCH   7  21
BRANCH   6  30
HETATM   30  O1  UNL     1      -1.780   8.260   7.833  1.00  0.00    -0.368 OA
ATOM     31  H1  UNL     1      -1.847   9.000   7.240  1.00  0.00     0.212 HD
ENDBRANCH   6  30
TORSDOF 6
ENDMDL