MODEL 1
REMARK VINA RESULT: -9.533362437      0.000      0.000
REMARK  5 active torsions:
REMARK  status: ('A' for Active; 'I' for Inactive)
REMARK    1  A    between atoms: C2_2  and  C3_4
REMARK    2  A    between atoms: C3_4  and  C4_5
REMARK    3  A    between atoms: C5_6  and  C6_7
REMARK    4  A    between atoms: C6_7  and  C8_9
REMARK    5  A    between atoms: C20_22  and  O3_23
ROOT
HETATM    1  C3  UNL     1       4.696   8.740   6.274  1.00  0.00     0.037 C
HETATM    2  C14 UNL     1       5.476   7.710   7.043  1.00  0.00     0.021 C
HETATM    3  C15 UNL     1       4.721   6.441   7.290  1.00  0.00     0.004 C
HETATM    4  C16 UNL     1       3.505   6.590   8.128  1.00  0.00     0.041 C
HETATM    5  C17 UNL     1       3.588   7.700   9.149  1.00  0.00     0.096 C
HETATM    6  C18 UNL     1       2.298   7.590   9.974  1.00  0.00     0.046 C
HETATM    7  C19 UNL     1       2.471   8.206  11.339  1.00  0.00     0.066 C
HETATM    8  C20 UNL     1       3.809   7.840  11.899  1.00  0.00     0.293 C
HETATM    9  O4  UNL     1       4.778   8.244  10.974  1.00  0.00    -0.207 OA
HETATM   10  O5  UNL     1       4.700   7.414   9.958  1.00  0.00    -0.227 OA
HETATM   11  C21 UNL     1       3.709   9.059   8.556  1.00  0.00     0.042 C
HETATM   12  C22 UNL     1       3.475   9.125   7.082  1.00  0.00     0.024 C
ENDROOT
BRANCH   1  13
HETATM   13  C2  UNL     1       5.587   9.916   6.075  1.00  0.00     0.135 C
HETATM   14  C1  UNL     1       5.328  10.921   4.998  1.00  0.00     0.092 C
HETATM   15  O1  UNL     1       6.543  10.040   6.820  1.00  0.00    -0.297 OA
ENDBRANCH   1  13
BRANCH   1  16
HETATM   16  C4  UNL     1       4.314   8.255   4.918  1.00  0.00    -0.013 C
HETATM   17  C5  UNL     1       3.076   8.045   4.515  1.00  0.00    -0.025 C
BRANCH  17  18
HETATM   18  C6  UNL     1       2.606   7.574   3.223  1.00  0.00     0.008 C
HETATM   19  C7  UNL     1       3.746   7.016   2.360  1.00  0.00     0.014 C
BRANCH  18  20
HETATM   20  C8  UNL     1       1.506   6.588   3.183  1.00  0.00    -0.005 C
HETATM   21  C9  UNL     1       0.662   6.939   1.945  1.00  0.00     0.008 C
HETATM   22  C10 UNL     1      -0.482   5.933   1.931  1.00  0.00     0.035 C
HETATM   23  C11 UNL     1      -1.466   6.485   2.963  1.00  0.00     0.151 A
HETATM   24  O2  UNL     1      -1.748   5.781   4.104  1.00  0.00    -0.375 OA
HETATM   25  C12 UNL     1      -0.826   6.976   4.104  1.00  0.00     0.151 A
HETATM   26  C13 UNL     1       0.591   6.622   4.374  1.00  0.00     0.039 C
ENDBRANCH  18  20
ENDBRANCH  17  18
ENDBRANCH   1  16
BRANCH   8  27
HETATM   27  O3  UNL     1       3.991   8.460  13.132  1.00  0.00    -0.368 OA
ATOM     28  H3  UNL     1       4.177   7.807  13.798  1.00  0.00     0.212 HD
ENDBRANCH   8  27
TORSDOF 5
ENDMDL