MODEL 4
REMARK VINA RESULT: -7.211243076      3.327      5.508
REMARK  6 active torsions:
REMARK  status: ('A' for Active; 'I' for Inactive)
REMARK    1  A    between atoms: S1_2  and  C2_3
REMARK    2  A    between atoms: C2_3  and  C3_4
REMARK    3  A    between atoms: C3_4  and  N1_5
REMARK    4  A    between atoms: C12_14  and  O1_15
REMARK    5  A    between atoms: C12_14  and  C13_17
REMARK    6  A    between atoms: C13_17  and  O2_18
ROOT
HETATM    1  C2  UNL     1      -0.167   6.300   5.377  1.00  0.00     0.044 C
HETATM    2  C8  UNL     1       0.017   6.703   6.656  1.00  0.00     0.068 C
HETATM    3  C9  UNL     1      -1.176   6.987   7.473  1.00  0.00     0.066 C
HETATM    4  C10 UNL     1      -0.801   6.627   8.914  1.00  0.00     0.012 C
HETATM    5  C11 UNL     1       0.272   7.576   9.347  1.00  0.00     0.072 C
HETATM    6  C12 UNL     1       1.341   7.790   8.321  1.00  0.00     0.199 C
HETATM    7  O3  UNL     1       1.245   6.865   7.241  1.00  0.00    -0.314 OA
ENDROOT
BRANCH   6   8
HETATM    8  O1  UNL     1       1.147   9.074   7.781  1.00  0.00    -0.363 OA
ATOM      9  H1  UNL     1       1.755   9.657   8.221  1.00  0.00     0.213 HD
ENDBRANCH   6   8
BRANCH   6  10
HETATM   10  C13 UNL     1       2.676   7.788   8.986  1.00  0.00     0.118 C
HETATM   11  C14 UNL     1       2.628   8.346  10.410  1.00  0.00     0.044 C
HETATM   12  C15 UNL     1       4.063   8.539  10.829  1.00  0.00     0.009 C
HETATM   13  C16 UNL     1       4.926   9.143   9.762  1.00  0.00    -0.006 C
HETATM   14  C17 UNL     1       3.980   9.926   8.834  1.00  0.00     0.014 C
HETATM   15  C19 UNL     1       5.120   8.251   8.565  1.00  0.00    -0.037 C
HETATM   16  C18 UNL     1       3.686   8.550   8.212  1.00  0.00     0.034 C
HETATM   17  C20 UNL     1       5.545   6.868   8.755  1.00  0.00     0.015 C
HETATM   18  C21 UNL     1       6.030   8.976   7.564  1.00  0.00     0.015 C
BRANCH  10  19
HETATM   19  O2  UNL     1       3.014   6.434   9.176  1.00  0.00    -0.384 OA
ATOM     20  H2  UNL     1       2.207   5.992   9.414  1.00  0.00     0.210 HD
ENDBRANCH  10  19
ENDBRANCH   6  10
BRANCH   1  21
HETATM   21  S1  UNL     1      -1.802   6.159   4.826  1.00  0.00    -0.131 SA
HETATM   22  C1  UNL     1      -2.217   6.756   3.208  1.00  0.00     0.095 C
ENDBRANCH   1  21
BRANCH   1  23
HETATM   23  C3  UNL     1       1.053   6.141   4.591  1.00  0.00     0.106 C
BRANCH  23  24
HETATM   24  N1  UNL     1       1.329   6.980   3.539  1.00  0.00    -0.389 N
HETATM   25  C4  UNL     1       1.498   6.652   2.205  1.00  0.00     0.122 C
HETATM   26  C5  UNL     1       3.011   6.603   1.944  1.00  0.00     0.021 C
HETATM   27  C6  UNL     1       3.578   7.339   3.137  1.00  0.00     0.021 C
HETATM   28  C7  UNL     1       2.363   7.991   3.751  1.00  0.00     0.122 C
ENDBRANCH  23  24
ENDBRANCH   1  23
TORSDOF 6
ENDMDL