MODEL 4
REMARK VINA RESULT: -4.510613449      4.264      6.552
REMARK  5 active torsions:
REMARK  status: ('A' for Active; 'I' for Inactive)
REMARK    1  A    between atoms: O1_2  and  C2_3
REMARK    2  A    between atoms: C2_3  and  C3_5
REMARK    3  A    between atoms: C4_8  and  C5_9
REMARK    4  A    between atoms: C11_24  and  O4_25
REMARK    5  A    between atoms: N5_27  and  N6_28
ROOT
HETATM    1  C5  UNL     1      -2.048  -8.896  -9.182  1.00  0.00     0.046 C
HETATM    2  C6  UNL     1      -1.452 -10.067  -9.072  1.00  0.00     0.004 C
HETATM    3  C7  UNL     1      -0.355 -10.366  -8.148  1.00  0.00     0.108 C
HETATM    4  N2  UNL     1      -0.109  -9.866  -6.995  1.00  0.00    -0.391 N
ATOM      5  H21 UNL     1       0.654 -10.074  -6.352  1.00  0.00     0.157 HD
ATOM      6  H22 UNL     1      -0.662  -9.151  -6.522  1.00  0.00     0.157 HD
HETATM    7  S1  UNL     1       0.603 -11.606  -8.968  1.00  0.00     0.115 S
HETATM    8  O3  UNL     1       0.748 -12.934  -7.973  1.00  0.00    -0.245 OA
HETATM    9  C8  UNL     1      -0.498 -11.897 -10.311  1.00  0.00     0.100 C
HETATM   10  N3  UNL     1      -0.304 -12.455 -11.436  1.00  0.00    -0.393 N
ATOM     11  H31 UNL     1      -0.943 -12.623 -12.214  1.00  0.00     0.156 HD
ATOM     12  H32 UNL     1       0.577 -12.844 -11.769  1.00  0.00     0.156 HD
HETATM   13  C9  UNL     1      -1.780 -11.331  -9.827  1.00  0.00     0.187 C
HETATM   14  C10 UNL     1      -2.304 -12.266  -8.798  1.00  0.00     0.075 C
HETATM   15  N4  UNL     1      -2.696 -12.996  -7.985  1.00  0.00    -0.196 NA
ENDROOT
BRANCH   1  16
HETATM   16  C4  UNL     1      -3.133  -8.580 -10.090  1.00  0.00     0.087 A
HETATM   17  N1  UNL     1      -4.437  -8.464  -9.886  1.00  0.00    -0.332 N
HETATM   18  C3  UNL     1      -5.106  -8.146 -11.012  1.00  0.00     0.206 A
ATOM     19  H1  UNL     1      -4.884  -8.601  -8.980  1.00  0.00     0.168 HD
HETATM   20  N5  UNL     1      -4.143  -8.063 -11.966  1.00  0.00    -0.216 N
HETATM   21  C11 UNL     1      -2.942  -8.324 -11.429  1.00  0.00     0.190 A
BRANCH  18  22
HETATM   22  C2  UNL     1      -6.537  -7.932 -11.230  1.00  0.00     0.329 C
HETATM   23  O2  UNL     1      -7.300  -7.873 -10.238  1.00  0.00    -0.256 OA
BRANCH  22  24
HETATM   24  O1  UNL     1      -7.073  -7.795 -12.505  1.00  0.00    -0.320 OA
HETATM   25  C1  UNL     1      -7.864  -6.669 -12.845  1.00  0.00     0.213 C
ENDBRANCH  22  24
ENDBRANCH  18  22
BRANCH  20  26
HETATM   26  N6  UNL     1      -4.390  -7.745 -13.299  1.00  0.00    -0.335 N
ATOM     27  H62 UNL     1      -5.283  -7.438 -13.686  1.00  0.00     0.177 HD
ATOM     28  H61 UNL     1      -3.690  -7.792 -14.039  1.00  0.00     0.177 HD
ENDBRANCH  20  26
BRANCH  21  29
HETATM   29  O4  UNL     1      -1.719  -8.338 -12.078  1.00  0.00    -0.343 OA
ATOM     30  H4  UNL     1      -1.536  -8.791 -12.892  1.00  0.00     0.219 HD
ENDBRANCH  21  29
ENDBRANCH   1  16
TORSDOF 5
ENDMDL