MODEL 3
REMARK VINA RESULT: -6.742030527      4.313      7.931
REMARK  6 active torsions:
REMARK  status: ('A' for Active; 'I' for Inactive)
REMARK    1  A    between atoms: C4_10  and  O2_11
REMARK    2  A    between atoms: C5_13  and  C6_14
REMARK    3  A    between atoms: C6_14  and  N4_15
REMARK    4  A    between atoms: N4_15  and  N5_17
REMARK    5  A    between atoms: N5_17  and  C7_19
REMARK    6  A    between atoms: C8_23  and  N7_24
ROOT
HETATM    1  C1  UNL     1      -7.132 -20.014  -9.703  1.00  0.00     0.181 C
HETATM    2  N1  UNL     1      -7.399 -19.303  -8.472  1.00  0.00    -0.265 N
HETATM    3  N2  UNL     1      -8.047 -19.737  -7.422  1.00  0.00    -0.239 N
ATOM      4  H2  UNL     1      -8.456 -20.668  -7.351  1.00  0.00     0.208 HD
HETATM    5  N3  UNL     1      -8.111 -18.827  -6.463  1.00  0.00    -0.279 N
ATOM      6  H3  UNL     1      -8.566 -18.944  -5.557  1.00  0.00     0.189 HD
HETATM    7  C2  UNL     1      -7.475 -17.726  -6.887  1.00  0.00     0.148 A
HETATM    8  C3  UNL     1      -7.218 -16.485  -6.344  1.00  0.00     0.239 A
HETATM    9  O1  UNL     1      -7.622 -16.180  -5.170  1.00  0.00    -0.283 OA
HETATM   10  C4  UNL     1      -6.513 -15.600  -7.113  1.00  0.00     0.147 A
HETATM   11  C5  UNL     1      -6.048 -15.870  -8.388  1.00  0.00     0.088 A
HETATM   12  N8  UNL     1      -6.313 -17.087  -8.892  1.00  0.00    -0.336 N
ATOM     13  H8  UNL     1      -5.978 -17.303  -9.831  1.00  0.00     0.168 HD
HETATM   14  C9  UNL     1      -6.997 -18.038  -8.228  1.00  0.00     0.156 A
ENDROOT
BRANCH  11  15
HETATM   15  C6  UNL     1      -5.305 -14.873  -9.142  1.00  0.00     0.139 C
BRANCH  15  16
HETATM   16  N4  UNL     1      -5.835 -13.750  -9.452  1.00  0.00    -0.308 N
ATOM     17  H4  UNL     1      -6.455 -13.731 -10.261  1.00  0.00     0.186 HD
BRANCH  16  18
HETATM   18  N5  UNL     1      -5.636 -12.566  -8.780  1.00  0.00    -0.279 N
ATOM     19  H5  UNL     1      -6.265 -12.311  -8.019  1.00  0.00     0.189 HD
BRANCH  18  20
HETATM   20  C7  UNL     1      -4.651 -11.758  -9.101  1.00  0.00     0.172 A
HETATM   21  N6  UNL     1      -3.351 -11.925  -8.821  1.00  0.00    -0.303 N
HETATM   22  S1  UNL     1      -2.376 -10.701  -9.383  1.00  0.00     0.013 SA
ATOM     23  H6  UNL     1      -2.992 -12.731  -8.309  1.00  0.00     0.176 HD
HETATM   24  C8  UNL     1      -3.356  -9.578 -10.167  1.00  0.00     0.129 A
HETATM   25  S2  UNL     1      -4.864 -10.318  -9.957  1.00  0.00    -0.026 SA
BRANCH  24  26
HETATM   26  N7  UNL     1      -3.052  -8.455 -10.766  1.00  0.00    -0.387 N
ATOM     27  H72 UNL     1      -2.192  -7.910 -10.730  1.00  0.00     0.157 HD
ATOM     28  H71 UNL     1      -3.599  -7.874 -11.403  1.00  0.00     0.157 HD
ENDBRANCH  24  26
ENDBRANCH  18  20
ENDBRANCH  16  18
ENDBRANCH  15  16
ENDBRANCH  11  15
BRANCH  10  29
HETATM   29  O2  UNL     1      -6.228 -14.335  -6.610  1.00  0.00    -0.355 OA
ATOM     30  H2  UNL     1      -5.323 -14.058  -6.532  1.00  0.00     0.218 HD
ENDBRANCH  10  29
TORSDOF 6
ENDMDL