MODEL 3
REMARK VINA RESULT: -6.373030683      2.733      7.664
REMARK  3 active torsions:
REMARK  status: ('A' for Active; 'I' for Inactive)
REMARK    1  A    between atoms: N3_7  and  C3_8
REMARK    2  A    between atoms: C5_12  and  N5_13
REMARK    3  A    between atoms: C6_18  and  N7_19
ROOT
HETATM    1  C3  UNL     1      -5.753 -14.370  -8.183  1.00  0.00     0.180 A
HETATM    2  N4  UNL     1      -4.532 -13.893  -8.114  1.00  0.00    -0.329 N
ATOM      3  H4  UNL     1      -3.817 -14.414  -7.606  1.00  0.00     0.168 HD
HETATM    4  C4  UNL     1      -4.223 -12.768  -8.681  1.00  0.00     0.113 A
HETATM    5  C5  UNL     1      -2.960 -12.150  -8.683  1.00  0.00     0.144 A
HETATM    6  N6  UNL     1      -2.811 -10.995  -9.313  1.00  0.00    -0.175 N
ATOM      7  H6  UNL     1      -1.882 -10.575  -9.293  1.00  0.00     0.186 HD
HETATM    8  C6  UNL     1      -3.761 -10.330  -9.972  1.00  0.00     0.678 A
HETATM    9  N8  UNL     1      -4.985 -10.908  -9.983  1.00  0.00    -0.183 N
ATOM     10  H8  UNL     1      -5.752 -10.445 -10.472  1.00  0.00     0.185 HD
HETATM   11  C7  UNL     1      -5.212 -12.101  -9.352  1.00  0.00     0.124 A
HETATM   12  S2  UNL     1      -6.542 -13.151  -9.119  1.00  0.00    -0.031 SA
ENDROOT
BRANCH   1  13
HETATM   13  N3  UNL     1      -6.305 -15.585  -7.632  1.00  0.00    -0.186 N
HETATM   14  S1  UNL     1      -7.292 -15.726  -6.277  1.00  0.00     0.054 SA
HETATM   15  C2  UNL     1      -7.075 -17.301  -6.865  1.00  0.00     0.207 A
HETATM   16  N2  UNL     1      -7.390 -18.567  -6.654  1.00  0.00    -0.272 N
HETATM   17  N9  UNL     1      -6.291 -16.872  -7.884  1.00  0.00    -0.174 N
HETATM   18  N1  UNL     1      -6.946 -19.519  -7.447  1.00  0.00    -0.255 N
ATOM     19  H2  UNL     1      -7.986 -18.811  -5.863  1.00  0.00     0.189 HD
HETATM   20  C1  UNL     1      -7.266 -20.923  -7.254  1.00  0.00     0.181 C
HETATM   21  C9  UNL     1      -6.158 -19.151  -8.482  1.00  0.00     0.332 A
HETATM   22  C8  UNL     1      -5.823 -17.833  -8.714  1.00  0.00     0.339 A
HETATM   23  O2  UNL     1      -5.724 -20.058  -9.254  1.00  0.00    -0.260 OA
HETATM   24  O1  UNL     1      -5.078 -17.537  -9.701  1.00  0.00    -0.260 OA
ENDBRANCH   1  13
BRANCH   5  25
HETATM   25  N5  UNL     1      -1.944 -12.675  -8.087  1.00  0.00    -0.383 N
ATOM     26  H52 UNL     1      -1.709 -13.650  -8.273  1.00  0.00     0.157 HD
ATOM     27  H51 UNL     1      -1.366 -12.143  -7.436  1.00  0.00     0.157 HD
ENDBRANCH   5  25
BRANCH   8  28
HETATM   28  N7  UNL     1      -3.529  -9.211 -10.558  1.00  0.00    -0.234 N
ATOM     29  H72 UNL     1      -2.829  -8.555 -10.214  1.00  0.00     0.174 HD
ATOM     30  H71 UNL     1      -4.033  -8.924 -11.397  1.00  0.00     0.174 HD
ENDBRANCH   8  28
TORSDOF 3
ENDMDL