MODEL 1
REMARK VINA RESULT: -7.311342611      0.000      0.000
REMARK  5 active torsions:
REMARK  status: ('A' for Active; 'I' for Inactive)
REMARK    1  A    between atoms: N1_2  and  C2_5
REMARK    2  A    between atoms: C3_10  and  N4_11
REMARK    3  A    between atoms: N4_11  and  N5_13
REMARK    4  A    between atoms: C4_18  and  N7_19
REMARK    5  A    between atoms: N7_19  and  C5_21
ROOT
HETATM    1  C5  UNL     1      -6.645 -18.783  -8.314  1.00  0.00     0.153 A
HETATM    2  N8  UNL     1      -5.384 -18.885  -7.876  1.00  0.00    -0.224 N
ATOM      3  H8  UNL     1      -4.837 -18.038  -7.720  1.00  0.00     0.198 HD
HETATM    4  O3  UNL     1      -4.842 -20.052  -7.645  1.00  0.00    -0.154 OA
HETATM    5  N9  UNL     1      -5.466 -21.178  -7.817  1.00  0.00    -0.230 N
ATOM      6  H9  UNL     1      -4.991 -22.059  -7.620  1.00  0.00     0.197 HD
HETATM    7  C6  UNL     1      -6.736 -21.182  -8.252  1.00  0.00     0.161 A
HETATM    8  C7  UNL     1      -7.467 -22.421  -8.456  1.00  0.00     0.121 C
HETATM    9  N10 UNL     1      -8.035 -23.416  -8.608  1.00  0.00    -0.190 NA
HETATM   10  C8  UNL     1      -7.337 -19.973  -8.506  1.00  0.00     0.116 A
HETATM   11  S1  UNL     1      -8.885 -19.922  -9.040  1.00  0.00    -0.073 SA
ENDROOT
BRANCH   1  12
HETATM   12  N7  UNL     1      -7.172 -17.644  -8.537  1.00  0.00    -0.326 N
ATOM     13  H7  UNL     1      -7.636 -17.489  -9.433  1.00  0.00     0.169 HD
BRANCH  12  14
HETATM   14  C4  UNL     1      -7.144 -16.579  -7.596  1.00  0.00     0.151 A
HETATM   15  C2  UNL     1      -7.948 -16.714  -6.396  1.00  0.00     0.367 A
HETATM   16  N2  UNL     1      -7.817 -15.584  -5.532  1.00  0.00    -0.285 N
HETATM   17  N3  UNL     1      -7.015 -14.513  -5.866  1.00  0.00    -0.133 N
ATOM     18  H2  UNL     1      -8.329 -15.568  -4.650  1.00  0.00     0.183 HD
HETATM   19  C3  UNL     1      -6.316 -14.429  -6.942  1.00  0.00     0.717 A
ATOM     20  H3  UNL     1      -6.973 -13.732  -5.212  1.00  0.00     0.205 HD
HETATM   21  N6  UNL     1      -6.423 -15.553  -7.822  1.00  0.00    -0.174 N
ATOM     22  H6  UNL     1      -5.885 -15.532  -8.688  1.00  0.00     0.185 HD
BRANCH  15  23
HETATM   23  N1  UNL     1      -7.721 -17.975  -5.699  1.00  0.00    -0.050 N
HETATM   24  C1  UNL     1      -7.106 -17.755  -4.405  1.00  0.00     0.270 C
ATOM     25  H12 UNL     1      -7.179 -18.626  -6.267  1.00  0.00     0.279 HD
ATOM     26  H11 UNL     1      -8.581 -18.519  -5.618  1.00  0.00     0.279 HD
ENDBRANCH  15  23
BRANCH  19  27
HETATM   27  N4  UNL     1      -5.503 -13.310  -7.250  1.00  0.00    -0.070 N
ATOM     28  H4  UNL     1      -5.750 -12.383  -6.906  1.00  0.00     0.212 HD
BRANCH  27  29
HETATM   29  N5  UNL     1      -4.366 -13.489  -8.026  1.00  0.00    -0.024 N
HETATM   30  O1  UNL     1      -4.356 -14.176  -9.075  1.00  0.00    -0.516 OA
HETATM   31  O2  UNL     1      -3.146 -12.904  -7.681  1.00  0.00    -0.516 OA
ENDBRANCH  27  29
ENDBRANCH  19  27
ENDBRANCH  12  14
ENDBRANCH   1  12
TORSDOF 5
ENDMDL