MODEL 3
REMARK VINA RESULT: -4.611924766      2.112      5.018
REMARK  5 active torsions:
REMARK  status: ('A' for Active; 'I' for Inactive)
REMARK    1  A    between atoms: O1_2  and  C2_3
REMARK    2  A    between atoms: C2_3  and  C3_5
REMARK    3  A    between atoms: N4_16  and  N5_17
REMARK    4  A    between atoms: C9_20  and  N6_21
REMARK    5  A    between atoms: N8_28  and  N9_30
ROOT
HETATM    1  C3  UNL     1       0.074 -11.870 -11.226  1.00  0.00     0.141 A
HETATM    2  N1  UNL     1       0.849 -11.351 -12.236  1.00  0.00    -0.291 N
ATOM      3  H1  UNL     1       1.694 -11.801 -12.590  1.00  0.00     0.187 HD
HETATM    4  N2  UNL     1       0.388 -10.232 -12.688  1.00  0.00    -0.280 N
HETATM    5  C4  UNL     1       0.927  -9.403 -13.735  1.00  0.00     0.179 C
HETATM    6  C5  UNL     1      -0.742  -9.937 -11.986  1.00  0.00     0.140 A
HETATM    7  N3  UNL     1      -1.573  -8.885 -12.084  1.00  0.00    -0.324 N
ATOM      8  H3  UNL     1      -1.405  -8.145 -12.765  1.00  0.00     0.169 HD
HETATM    9  C6  UNL     1      -2.628  -8.837 -11.262  1.00  0.00     0.142 A
HETATM   10  C7  UNL     1      -3.480  -7.736 -11.381  1.00  0.00     0.076 A
HETATM   11  C8  UNL     1      -3.188  -6.681 -12.394  1.00  0.00     0.074 C
HETATM   12  N4  UNL     1      -4.558  -7.598 -10.607  1.00  0.00    -0.243 N
HETATM   13  C9  UNL     1      -4.818  -8.544  -9.700  1.00  0.00     0.190 A
HETATM   14  C10 UNL     1      -3.961  -9.635  -9.592  1.00  0.00     0.300 A
HETATM   15  O3  UNL     1      -4.258 -10.465  -8.740  1.00  0.00    -0.263 OA
HETATM   16  N7  UNL     1      -2.867  -9.804 -10.357  1.00  0.00    -0.242 N
HETATM   17  C11 UNL     1      -2.067 -10.902 -10.199  1.00  0.00     0.147 A
HETATM   18  N8  UNL     1      -2.248 -11.779  -9.407  1.00  0.00    -0.291 N
ATOM     19  H8  UNL     1      -1.448 -12.375  -9.615  1.00  0.00     0.188 HD
HETATM   20  C12 UNL     1      -0.950 -10.948 -11.073  1.00  0.00     0.090 A
ENDROOT
BRANCH  18  21
HETATM   21  N9  UNL     1      -2.809 -12.475  -8.440  1.00  0.00    -0.344 N
ATOM     22  H92 UNL     1      -3.636 -11.888  -8.331  1.00  0.00     0.176 HD
ATOM     23  H91 UNL     1      -2.947 -13.207  -7.744  1.00  0.00     0.176 HD
ENDBRANCH  18  21
BRANCH   1  24
HETATM   24  C2  UNL     1       0.341 -13.103 -10.536  1.00  0.00     0.312 C
HETATM   25  O2  UNL     1       0.358 -13.420  -9.370  1.00  0.00    -0.258 OA
BRANCH  24  26
HETATM   26  O1  UNL     1       0.652 -14.189 -11.401  1.00  0.00    -0.321 OA
HETATM   27  C1  UNL     1       1.834 -14.919 -11.200  1.00  0.00     0.213 C
ENDBRANCH  24  26
ENDBRANCH   1  24
BRANCH  13  28
HETATM   28  N6  UNL     1      -5.857  -8.448  -8.926  1.00  0.00    -0.379 N
ATOM     29  H62 UNL     1      -6.337  -9.287  -8.602  1.00  0.00     0.158 HD
ATOM     30  H61 UNL     1      -6.203  -7.533  -8.636  1.00  0.00     0.158 HD
ENDBRANCH  13  28
BRANCH  12  31
HETATM   31  N5  UNL     1      -5.390  -6.493 -10.743  1.00  0.00    -0.337 N
ATOM     32  H52 UNL     1      -6.041  -6.421 -11.524  1.00  0.00     0.177 HD
ATOM     33  H51 UNL     1      -5.361  -5.734 -10.061  1.00  0.00     0.177 HD
ENDBRANCH  12  31
TORSDOF 5
ENDMDL