MODEL 5
REMARK VINA RESULT: -4.383635289      2.659      6.647
REMARK  5 active torsions:
REMARK  status: ('A' for Active; 'I' for Inactive)
REMARK    1  A    between atoms: N2_7  and  O2_8
REMARK    2  A    between atoms: C6_14  and  O4_15
REMARK    3  A    between atoms: C6_14  and  N4_17
REMARK    4  A    between atoms: N4_17  and  C7_19
REMARK    5  A    between atoms: C12_24  and  N5_25
ROOT
HETATM    1  C1  UNL     1      -5.732  -6.990 -11.898  1.00  0.00     0.165 C
HETATM    2  N1  UNL     1      -4.672  -7.801 -11.346  1.00  0.00    -0.266 N
HETATM    3  C2  UNL     1      -4.853  -8.971 -10.712  1.00  0.00     0.289 A
HETATM    4  O1  UNL     1      -6.018  -9.408 -10.586  1.00  0.00    -0.265 OA
HETATM    5  C3  UNL     1      -3.797  -9.718 -10.191  1.00  0.00     0.190 A
HETATM    6  C4  UNL     1      -2.526  -9.251 -10.325  1.00  0.00     0.178 A
HETATM    7  N2  UNL     1      -2.352  -8.062 -10.967  1.00  0.00    -0.152 N
HETATM    8  C5  UNL     1      -3.398  -7.365 -11.459  1.00  0.00     0.357 A
HETATM    9  O3  UNL     1      -3.156  -6.272 -12.040  1.00  0.00    -0.244 OA
HETATM   10  N3  UNL     1      -1.416  -9.984  -9.823  1.00  0.00    -0.317 N
ATOM     11  H3  UNL     1      -0.480  -9.604  -9.963  1.00  0.00     0.166 HD
HETATM   12  C6  UNL     1      -1.548 -11.233  -9.128  1.00  0.00     0.266 A
HETATM   13  C11 UNL     1      -2.988 -11.658  -9.026  1.00  0.00     0.152 A
HETATM   14  C12 UNL     1      -3.245 -12.787  -8.408  1.00  0.00     0.207 C
HETATM   15  O7  UNL     1      -4.023 -10.904  -9.551  1.00  0.00    -0.297 OA
ENDROOT
BRANCH  12  16
HETATM   16  O4  UNL     1      -1.237 -10.953  -7.769  1.00  0.00    -0.349 OA
ATOM     17  H4  UNL     1      -0.776 -10.122  -7.776  1.00  0.00     0.215 HD
ENDBRANCH  12  16
BRANCH  12  18
HETATM   18  N4  UNL     1      -0.833 -12.322  -9.632  1.00  0.00    -0.361 N
ATOM     19  H4  UNL     1      -1.277 -12.933 -10.317  1.00  0.00     0.159 HD
BRANCH  18  20
HETATM   20  C7  UNL     1       0.471 -12.593  -9.222  1.00  0.00     0.019 C
HETATM   21  C8  UNL     1       1.108 -13.454 -10.339  1.00  0.00     0.037 C
HETATM   22  C9  UNL     1       0.678 -13.400  -7.981  1.00  0.00     0.037 C
HETATM   23  C10 UNL     1       1.395 -11.369  -9.163  1.00  0.00     0.037 C
ENDBRANCH  18  20
ENDBRANCH  12  18
BRANCH  14  24
HETATM   24  N5  UNL     1      -4.570 -13.263  -8.265  1.00  0.00    -0.125 N
HETATM   25  O5  UNL     1      -5.226 -13.021  -7.256  1.00  0.00    -0.532 OA
HETATM   26  O6  UNL     1      -5.188 -14.018  -9.253  1.00  0.00    -0.532 OA
ENDBRANCH  14  24
BRANCH   7  27
HETATM   27  O2  UNL     1      -1.093  -7.552 -11.123  1.00  0.00    -0.277 OA
ATOM     28  H2  UNL     1      -0.387  -7.861 -10.569  1.00  0.00     0.245 HD
ENDBRANCH   7  27
TORSDOF 5
ENDMDL