MODEL 2
REMARK VINA RESULT: -4.457272805      2.044      3.964
REMARK  6 active torsions:
REMARK  status: ('A' for Active; 'I' for Inactive)
REMARK    1  A    between atoms: S1_2  and  C2_3
REMARK    2  A    between atoms: C3_4  and  O1_5
REMARK    3  A    between atoms: C4_7  and  O2_8
REMARK    4  A    between atoms: C5_10  and  O3_11
REMARK    5  A    between atoms: N1_17  and  C9_18
REMARK    6  A    between atoms: C9_18  and  N2_19
ROOT
HETATM    1  C9  UNL     1      -0.961  -8.757 -14.164  1.00  0.00     0.402 C
HETATM    2  C10 UNL     1      -2.102  -9.211 -14.998  1.00  0.00     0.114 C
HETATM    3  N3  UNL     1      -2.985  -9.569 -15.638  1.00  0.00    -0.193 NA
ENDROOT
BRANCH   1   4
HETATM    4  N1  UNL     1      -0.792  -9.639 -13.023  1.00  0.00    -0.223 N
HETATM    5  C8  UNL     1      -1.777  -9.759 -12.133  1.00  0.00     0.268 A
HETATM    6  C7  UNL     1      -1.561 -10.613 -11.066  1.00  0.00     0.082 A
HETATM    7  O4  UNL     1      -2.869  -9.155 -12.206  1.00  0.00    -0.267 OA
HETATM    8  C2  UNL     1      -2.552 -10.755 -10.141  1.00  0.00     0.054 A
HETATM    9  C6  UNL     1      -0.357 -11.306 -10.947  1.00  0.00     0.091 A
HETATM   10  C3  UNL     1      -2.382 -11.588  -9.073  1.00  0.00     0.119 A
HETATM   11  C4  UNL     1      -1.193 -12.273  -8.955  1.00  0.00     0.136 A
HETATM   12  C5  UNL     1      -0.158 -12.151  -9.881  1.00  0.00     0.130 A
HETATM   13  N4  UNL     1       0.620 -11.166 -11.857  1.00  0.00    -0.300 N
HETATM   14  C11 UNL     1       0.364 -10.309 -12.901  1.00  0.00     0.334 A
HETATM   15  C12 UNL     1       1.868 -11.864 -11.765  1.00  0.00     0.161 C
HETATM   16  O5  UNL     1       1.262 -10.156 -13.774  1.00  0.00    -0.246 OA
BRANCH   8  17
HETATM   17  S1  UNL     1      -4.105  -9.845 -10.318  1.00  0.00    -0.130 SA
HETATM   18  C1  UNL     1      -4.105  -8.490  -9.089  1.00  0.00     0.095 C
ENDBRANCH   8  17
BRANCH  10  19
HETATM   19  O1  UNL     1      -3.402 -11.723  -8.139  1.00  0.00    -0.357 OA
ATOM     20  H1  UNL     1      -3.292 -11.362  -7.267  1.00  0.00     0.218 HD
ENDBRANCH  10  19
BRANCH  11  21
HETATM   21  O2  UNL     1      -0.975 -13.125  -7.892  1.00  0.00    -0.356 OA
ATOM     22  H2  UNL     1      -0.099 -13.426  -7.684  1.00  0.00     0.218 HD
ENDBRANCH  11  21
BRANCH  12  23
HETATM   23  O3  UNL     1       1.015 -12.860  -9.718  1.00  0.00    -0.356 OA
ATOM     24  H3  UNL     1       1.800 -12.607 -10.189  1.00  0.00     0.218 HD
ENDBRANCH  12  23
ENDBRANCH   1   4
BRANCH   1  25
HETATM   25  N2  UNL     1      -1.318  -7.419 -13.710  1.00  0.00    -0.045 N
ATOM     26  H23 UNL     1      -1.130  -7.290 -12.715  1.00  0.00     0.278 HD
ATOM     27  H22 UNL     1      -0.682  -6.709 -14.074  1.00  0.00     0.278 HD
ATOM     28  H21 UNL     1      -2.290  -7.219 -13.945  1.00  0.00     0.278 HD
ENDBRANCH   1  25
TORSDOF 6
ENDMDL