MODEL 2
REMARK VINA RESULT: -7.189167471      1.605      2.233
REMARK  3 active torsions:
REMARK  status: ('A' for Active; 'I' for Inactive)
REMARK       I    between atoms: C2_2  and  N1_4
REMARK    1  A    between atoms: C3_5  and  O2_6
REMARK    2  A    between atoms: C4_8  and  O3_9
REMARK    3  A    between atoms: C5_16  and  C6_17
ROOT
HETATM    1  C1  UNL     1      -7.689 -16.796  -4.440  1.00  0.00     0.118 C
HETATM    2  C2  UNL     1      -7.085 -17.380  -5.664  1.00  0.00     0.227 C
HETATM    3  O1  UNL     1      -6.962 -18.611  -5.723  1.00  0.00    -0.273 OA
HETATM    4  N1  UNL     1      -6.657 -16.565  -6.741  1.00  0.00    -0.240 N
HETATM    5  C3  UNL     1      -6.764 -15.190  -6.701  1.00  0.00     0.205 A
HETATM    6  C4  UNL     1      -6.245 -14.759  -7.895  1.00  0.00     0.217 A
HETATM    7  N2  UNL     1      -5.840 -15.775  -8.642  1.00  0.00    -0.196 N
HETATM    8  N3  UNL     1      -5.291 -16.102  -9.794  1.00  0.00    -0.232 N
ATOM      9  H3  UNL     1      -4.997 -15.454 -10.526  1.00  0.00     0.209 HD
HETATM   10  N4  UNL     1      -5.188 -17.414  -9.834  1.00  0.00    -0.282 N
ATOM     11  H4  UNL     1      -4.795 -17.944 -10.612  1.00  0.00     0.188 HD
HETATM   12  C5  UNL     1      -5.673 -17.957  -8.702  1.00  0.00     0.097 A
HETATM   13  C11 UNL     1      -6.099 -16.905  -7.919  1.00  0.00     0.171 A
ENDROOT
BRANCH  12  14
HETATM   14  C6  UNL     1      -5.722 -19.363  -8.387  1.00  0.00     0.057 C
HETATM   15  C7  UNL     1      -6.715 -20.202  -8.459  1.00  0.00     0.102 A
HETATM   16  C8  UNL     1      -8.034 -19.851  -8.903  1.00  0.00     0.265 A
HETATM   17  C10 UNL     1      -6.503 -21.609  -8.040  1.00  0.00     0.265 A
HETATM   18  O4  UNL     1      -8.316 -18.688  -9.282  1.00  0.00    -0.267 OA
HETATM   19  N5  UNL     1      -9.118 -20.805  -8.946  1.00  0.00    -0.275 N
HETATM   20  C9  UNL     1      -8.902 -22.136  -8.544  1.00  0.00     0.329 A
ATOM     21  H5  UNL     1     -10.041 -20.513  -9.268  1.00  0.00     0.173 HD
HETATM   22  O5  UNL     1      -9.817 -23.015  -8.563  1.00  0.00    -0.246 OA
HETATM   23  N6  UNL     1      -7.603 -22.502  -8.103  1.00  0.00    -0.275 N
ATOM     24  H6  UNL     1      -7.452 -23.469  -7.814  1.00  0.00     0.173 HD
HETATM   25  O6  UNL     1      -5.375 -22.009  -7.635  1.00  0.00    -0.267 OA
ENDBRANCH  12  14
BRANCH   5  26
HETATM   26  O2  UNL     1      -7.281 -14.411  -5.678  1.00  0.00    -0.342 OA
ATOM     27  H2  UNL     1      -7.568 -13.506  -5.726  1.00  0.00     0.219 HD
ENDBRANCH   5  26
BRANCH   6  28
HETATM   28  O3  UNL     1      -6.151 -13.425  -8.291  1.00  0.00    -0.342 OA
ATOM     29  H3  UNL     1      -5.646 -13.111  -9.032  1.00  0.00     0.219 HD
ENDBRANCH   6  28
TORSDOF 3
ENDMDL