MODEL 3
REMARK VINA RESULT: -6.922010916      0.992      2.135
REMARK  4 active torsions:
REMARK  status: ('A' for Active; 'I' for Inactive)
REMARK    1  A    between atoms: C3_7  and  N3_8
REMARK    2  A    between atoms: N3_8  and  C4_10
REMARK       I    between atoms: N7_19  and  C6_20
REMARK    3  A    between atoms: C6_20  and  O2_22
REMARK    4  A    between atoms: O2_22  and  C7_23
ROOT
HETATM    1  C4  UNL     1      -6.319 -17.043  -7.643  1.00  0.00     0.738 A
HETATM    2  N4  UNL     1      -6.993 -17.181  -6.463  1.00  0.00    -0.019 N
ATOM      3  H4  UNL     1      -7.205 -18.048  -5.970  1.00  0.00     0.203 HD
HETATM    4  C5  UNL     1      -7.319 -15.918  -6.084  1.00  0.00     0.706 A
HETATM    5  N5  UNL     1      -7.962 -15.540  -5.034  1.00  0.00    -0.233 N
ATOM      6  H51 UNL     1      -8.207 -14.591  -4.749  1.00  0.00     0.174 HD
ATOM      7  H52 UNL     1      -8.325 -16.167  -4.317  1.00  0.00     0.174 HD
HETATM    8  N6  UNL     1      -6.841 -15.095  -7.025  1.00  0.00    -0.106 N
ATOM      9  H6  UNL     1      -6.939 -14.079  -7.003  1.00  0.00     0.207 HD
HETATM   10  N7  UNL     1      -6.229 -15.758  -7.985  1.00  0.00    -0.009 N
HETATM   11  C6  UNL     1      -5.591 -15.243  -9.157  1.00  0.00     0.402 C
HETATM   12  O1  UNL     1      -5.044 -16.011  -9.989  1.00  0.00    -0.235 OA
ENDROOT
BRANCH   1  13
HETATM   13  N3  UNL     1      -5.793 -18.118  -8.402  1.00  0.00    -0.016 N
ATOM     14  H3  UNL     1      -5.089 -17.894  -9.105  1.00  0.00     0.203 HD
BRANCH  13  15
HETATM   15  C3  UNL     1      -6.130 -19.352  -8.276  1.00  0.00     0.735 A
HETATM   16  N2  UNL     1      -5.264 -20.251  -7.745  1.00  0.00    -0.129 N
HETATM   17  N1  UNL     1      -5.557 -21.530  -7.593  1.00  0.00    -0.287 N
ATOM     18  H2  UNL     1      -4.344 -19.925  -7.449  1.00  0.00     0.205 HD
HETATM   19  C2  UNL     1      -6.750 -22.030  -7.962  1.00  0.00     0.070 A
ATOM     20  H1  UNL     1      -4.861 -22.155  -7.187  1.00  0.00     0.187 HD
HETATM   21  C1  UNL     1      -7.067 -23.470  -7.787  1.00  0.00     0.074 C
HETATM   22  C11 UNL     1      -7.649 -21.137  -8.505  1.00  0.00     0.183 A
HETATM   23  N8  UNL     1      -7.334 -19.816  -8.656  1.00  0.00    -0.052 N
HETATM   24  N11 UNL     1      -8.895 -21.332  -8.958  1.00  0.00    -0.264 N
HETATM   25  N9  UNL     1      -8.379 -19.251  -9.189  1.00  0.00    -0.203 N
HETATM   26  N10 UNL     1      -9.324 -20.154  -9.375  1.00  0.00    -0.004 NA
ATOM     27  H9  UNL     1      -8.455 -18.262  -9.426  1.00  0.00     0.207 HD
ATOM     28  H11 UNL     1      -9.409 -22.212  -8.977  1.00  0.00     0.186 HD
ENDBRANCH  13  15
ENDBRANCH   1  13
BRANCH  11  29
HETATM   29  O2  UNL     1      -5.537 -13.898  -9.446  1.00  0.00    -0.292 OA
BRANCH  29  30
HETATM   30  C7  UNL     1      -4.766 -12.954  -8.776  1.00  0.00     0.061 C
HETATM   31  C8  UNL     1      -5.091 -13.053  -7.294  1.00  0.00     0.046 C
HETATM   32  C9  UNL     1      -5.201 -11.568  -9.236  1.00  0.00     0.046 C
HETATM   33  C10 UNL     1      -3.294 -13.068  -8.996  1.00  0.00     0.046 C
ENDBRANCH  29  30
ENDBRANCH  11  29
TORSDOF 4
ENDMDL