MODEL 2
REMARK VINA RESULT: -5.258064608      1.484      4.838
REMARK  3 active torsions:
REMARK  status: ('A' for Active; 'I' for Inactive)
REMARK    1  A    between atoms: N2_4  and  C1_6
REMARK    2  A    between atoms: C4_10  and  N3_11
REMARK    3  A    between atoms: N5_24  and  N6_25
ROOT
HETATM    1  C1  UNL     1      -3.504  -8.394 -13.612  1.00  0.00     0.142 A
HETATM    2  C2  UNL     1      -2.595  -8.343 -14.572  1.00  0.00     0.192 A
HETATM    3  O1  UNL     1      -1.349  -8.937 -14.440  1.00  0.00    -0.314 OA
HETATM    4  C3  UNL     1      -0.992  -9.610 -13.298  1.00  0.00     0.137 A
HETATM    5  C4  UNL     1       0.226 -10.224 -13.128  1.00  0.00     0.140 A
HETATM    6  C5  UNL     1       0.524 -10.894 -11.954  1.00  0.00     0.058 A
HETATM    7  C6  UNL     1      -0.382 -10.964 -10.927  1.00  0.00     0.066 A
HETATM    8  C7  UNL     1       0.013 -11.703  -9.850  1.00  0.00     0.261 C
HETATM    9  O4  UNL     1       1.231 -11.850  -9.736  1.00  0.00    -0.267 OA
HETATM   10  N4  UNL     1      -0.804 -12.278  -8.920  1.00  0.00    -0.285 N
ATOM     11  H4  UNL     1      -0.355 -12.906  -8.253  1.00  0.00     0.172 HD
HETATM   12  C8  UNL     1      -2.145 -12.111  -8.777  1.00  0.00     0.318 C
HETATM   13  O5  UNL     1      -2.709 -13.023  -8.129  1.00  0.00    -0.262 OA
HETATM   14  C9  UNL     1      -2.942 -11.063  -9.260  1.00  0.00     0.335 C
HETATM   15  O6  UNL     1      -4.102 -10.970  -8.849  1.00  0.00    -0.260 OA
HETATM   16  N5  UNL     1      -2.556 -10.126 -10.145  1.00  0.00    -0.219 N
HETATM   17  C10 UNL     1      -1.635 -10.325 -11.106  1.00  0.00     0.105 A
HETATM   18  C11 UNL     1      -1.953  -9.668 -12.257  1.00  0.00     0.101 A
HETATM   19  N7  UNL     1      -3.216  -9.074 -12.395  1.00  0.00    -0.336 N
ATOM     20  H7  UNL     1      -3.906  -9.127 -11.645  1.00  0.00     0.168 HD
ENDROOT
BRANCH   1  21
HETATM   21  N2  UNL     1      -4.762  -7.756 -13.829  1.00  0.00    -0.290 N
HETATM   22  N1  UNL     1      -5.716  -7.747 -13.024  1.00  0.00    -0.344 N
ATOM     23  H12 UNL     1      -5.568  -8.241 -12.144  1.00  0.00     0.176 HD
ATOM     24  H11 UNL     1      -6.615  -7.291 -13.179  1.00  0.00     0.176 HD
ATOM     25  H2  UNL     1      -4.892  -7.267 -14.714  1.00  0.00     0.188 HD
ENDBRANCH   1  21
BRANCH   5  26
HETATM   26  N3  UNL     1       1.177 -10.153 -14.190  1.00  0.00    -0.113 N
HETATM   27  O2  UNL     1       1.869  -9.127 -14.280  1.00  0.00    -0.532 OA
HETATM   28  O3  UNL     1       1.326 -11.181 -15.083  1.00  0.00    -0.532 OA
ENDBRANCH   5  26
BRANCH  16  29
HETATM   29  N6  UNL     1      -3.033  -8.824 -10.049  1.00  0.00    -0.335 N
ATOM     30  H62 UNL     1      -3.869  -8.713  -9.474  1.00  0.00     0.177 HD
ATOM     31  H61 UNL     1      -2.600  -8.072 -10.584  1.00  0.00     0.177 HD
ENDBRANCH  16  29
TORSDOF 3
ENDMDL