MODEL 5
REMARK VINA RESULT: -6.929149892      0.807      1.189
REMARK  14 active torsions:
REMARK  status: ('A' for Active; 'I' for Inactive)
REMARK    1  A    between atoms: C4_7  and  C5_8
REMARK    2  A    between atoms: C5_8  and  C6_9
REMARK    3  A    between atoms: C6_9  and  C7_10
REMARK    4  A    between atoms: C7_10  and  C8_11
REMARK    5  A    between atoms: C8_11  and  C9_12
REMARK    6  A    between atoms: C9_12  and  C10_13
REMARK    7  A    between atoms: C10_13  and  C11_14
REMARK    8  A    between atoms: C11_14  and  C12_15
REMARK    9  A    between atoms: C12_15  and  C13_16
REMARK   10  A    between atoms: C13_16  and  C14_17
REMARK   11  A    between atoms: C14_17  and  C15_18
REMARK   12  A    between atoms: C15_18  and  C16_19
REMARK   13  A    between atoms: C16_19  and  C17_20
REMARK   14  A    between atoms: C17_20  and  N2_21
ROOT
HETATM    1  C8  UNL     1      19.498  -5.950   9.664  1.00  0.00     0.000 C
ENDROOT
BRANCH   1   2
HETATM    2  C7  UNL     1      20.355  -5.835   8.455  1.00  0.00     0.000 C
BRANCH   2   3
HETATM    3  C6  UNL     1      21.518  -4.913   8.629  1.00  0.00     0.006 C
BRANCH   3   4
HETATM    4  C5  UNL     1      21.234  -3.458   8.615  1.00  0.00     0.057 C
BRANCH   4   5
HETATM    5  C4  UNL     1      21.683  -2.705   9.806  1.00  0.00     0.007 A
HETATM    6  C3  UNL     1      22.604  -3.153  10.661  1.00  0.00     0.006 A
HETATM    7  C2  UNL     1      22.865  -2.215  11.754  1.00  0.00     0.105 A
HETATM    8  C1  UNL     1      21.939  -1.091  11.499  1.00  0.00     0.078 A
HETATM    9  N1  UNL     1      21.779  -0.025  12.207  1.00  0.00    -0.389 N
HETATM   10  N3  UNL     1      21.248  -1.442  10.284  1.00  0.00    -0.350 N
ATOM     11  H12 UNL     1      22.268   0.224  13.067  1.00  0.00     0.157 HD
ATOM     12  H11 UNL     1      21.141   0.751  12.032  1.00  0.00     0.157 HD
ATOM     13  H3  UNL     1      20.543  -0.861   9.830  1.00  0.00     0.167 HD
ENDBRANCH   4   5
ENDBRANCH   3   4
ENDBRANCH   2   3
ENDBRANCH   1   2
BRANCH   1  14
HETATM   14  C9  UNL     1      20.143  -6.811  10.722  1.00  0.00     0.000 C
BRANCH  14  15
HETATM   15  C10 UNL     1      20.533  -8.124  10.151  1.00  0.00     0.000 C
BRANCH  15  16
HETATM   16  C11 UNL     1      21.795  -8.641  10.750  1.00  0.00     0.000 C
BRANCH  16  17
HETATM   17  C12 UNL     1      22.646  -7.508  11.255  1.00  0.00     0.000 C
BRANCH  17  18
HETATM   18  C13 UNL     1      23.056  -7.886  12.674  1.00  0.00     0.000 C
BRANCH  18  19
HETATM   19  C14 UNL     1      22.056  -8.815  13.313  1.00  0.00     0.000 C
BRANCH  19  20
HETATM   20  C15 UNL     1      22.763  -9.926  14.088  1.00  0.00     0.002 C
BRANCH  20  21
HETATM   21  C16 UNL     1      23.764  -9.250  15.025  1.00  0.00     0.030 C
BRANCH  21  22
HETATM   22  C17 UNL     1      24.973 -10.104  15.218  1.00  0.00     0.272 C
BRANCH  22  23
HETATM   23  N2  UNL     1      25.001 -10.745  16.485  1.00  0.00     0.088 N
HETATM   24  C18 UNL     1      26.030 -10.394  17.419  1.00  0.00     0.274 C
HETATM   25  C19 UNL     1      25.852 -11.805  18.003  1.00  0.00     0.060 C
HETATM   26  C20 UNL     1      25.504 -12.100  16.533  1.00  0.00     0.274 C
ENDBRANCH  22  23
ENDBRANCH  21  22
ENDBRANCH  20  21
ENDBRANCH  19  20
ENDBRANCH  18  19
ENDBRANCH  17  18
ENDBRANCH  16  17
ENDBRANCH  15  16
ENDBRANCH  14  15
ENDBRANCH   1  14
TORSDOF 14
ENDMDL