MODEL 2
REMARK VINA RESULT: -7.455021135      0.948      1.584
REMARK  14 active torsions:
REMARK  status: ('A' for Active; 'I' for Inactive)
REMARK    1  A    between atoms: C2_4  and  C3_5
REMARK    2  A    between atoms: C3_5  and  C4_6
REMARK    3  A    between atoms: C4_6  and  C5_7
REMARK    4  A    between atoms: C5_7  and  C6_8
REMARK    5  A    between atoms: C6_8  and  C7_9
REMARK    6  A    between atoms: C7_9  and  C8_10
REMARK    7  A    between atoms: C8_10  and  C9_11
REMARK    8  A    between atoms: C9_11  and  C10_12
REMARK    9  A    between atoms: C10_12  and  C11_13
REMARK   10  A    between atoms: C11_13  and  C12_14
REMARK   11  A    between atoms: C12_14  and  C13_15
REMARK   12  A    between atoms: C13_15  and  C14_16
REMARK   13  A    between atoms: C14_16  and  N2_17
REMARK   14  A    between atoms: N2_17  and  C15_20
ROOT
HETATM    1  C9  UNL     1      21.741  -8.790  10.821  1.00  0.00     0.000 C
ENDROOT
BRANCH   1   2
HETATM    2  C8  UNL     1      22.734  -7.642  10.987  1.00  0.00     0.000 C
BRANCH   2   3
HETATM    3  C7  UNL     1      23.072  -7.419  12.440  1.00  0.00     0.000 C
BRANCH   3   4
HETATM    4  C6  UNL     1      22.649  -8.652  13.221  1.00  0.00     0.000 C
BRANCH   4   5
HETATM    5  C5  UNL     1      23.450  -8.878  14.463  1.00  0.00     0.000 C
BRANCH   5   6
HETATM    6  C4  UNL     1      23.577 -10.388  14.656  1.00  0.00     0.006 C
BRANCH   6   7
HETATM    7  C3  UNL     1      24.926 -10.720  15.267  1.00  0.00     0.058 C
BRANCH   7   8
HETATM    8  C2  UNL     1      25.002 -12.219  15.332  1.00  0.00     0.025 A
HETATM    9  N1  UNL     1      24.082 -13.126  14.973  1.00  0.00    -0.355 N
HETATM   10  C1  UNL     1      24.567 -14.375  15.197  1.00  0.00     0.180 A
ATOM     11  H1  UNL     1      23.160 -12.912  14.591  1.00  0.00     0.166 HD
HETATM   12  N3  UNL     1      25.802 -14.264  15.698  1.00  0.00    -0.360 N
HETATM   13  C20 UNL     1      26.092 -12.961  15.792  1.00  0.00     0.113 A
ATOM     14  H3  UNL     1      26.414 -15.037  15.962  1.00  0.00     0.166 HD
ENDBRANCH   7   8
ENDBRANCH   6   7
ENDBRANCH   5   6
ENDBRANCH   4   5
ENDBRANCH   3   4
ENDBRANCH   2   3
ENDBRANCH   1   2
BRANCH   1  15
HETATM   15  C10 UNL     1      20.495  -8.297  10.176  1.00  0.00     0.000 C
BRANCH  15  16
HETATM   16  C11 UNL     1      20.033  -6.921  10.420  1.00  0.00     0.000 C
BRANCH  16  17
HETATM   17  C12 UNL     1      19.913  -5.932   9.341  1.00  0.00     0.002 C
BRANCH  17  18
HETATM   18  C13 UNL     1      20.927  -5.819   8.278  1.00  0.00     0.027 C
BRANCH  18  19
HETATM   19  C14 UNL     1      21.625  -4.449   8.316  1.00  0.00     0.232 C
BRANCH  19  20
HETATM   20  N2  UNL     1      20.955  -3.496   9.130  1.00  0.00    -0.071 N
ATOM     21  H22 UNL     1      20.286  -2.951   8.584  1.00  0.00     0.277 HD
ATOM     22  H21 UNL     1      20.308  -3.952   9.773  1.00  0.00     0.277 HD
BRANCH  20  23
HETATM   23  C15 UNL     1      21.872  -2.632   9.840  1.00  0.00     0.185 C
HETATM   24  C16 UNL     1      21.160  -1.548  10.595  1.00  0.00     0.033 C
HETATM   25  C17 UNL     1      22.170  -1.111  11.620  1.00  0.00     0.002 C
HETATM   26  C18 UNL     1      23.152  -2.251  11.771  1.00  0.00     0.002 C
HETATM   27  C19 UNL     1      22.575  -3.390  10.963  1.00  0.00     0.033 C
ENDBRANCH  20  23
ENDBRANCH  19  20
ENDBRANCH  18  19
ENDBRANCH  17  18
ENDBRANCH  16  17
ENDBRANCH  15  16
ENDBRANCH   1  15
TORSDOF 14
ENDMDL