MODEL 3
REMARK VINA RESULT: -7.559567572      1.147      1.621
REMARK  14 active torsions:
REMARK  status: ('A' for Active; 'I' for Inactive)
REMARK    1  A    between atoms: C4_4  and  C5_5
REMARK    2  A    between atoms: C5_5  and  N1_6
REMARK    3  A    between atoms: N1_6  and  C6_9
REMARK    4  A    between atoms: C6_9  and  C7_10
REMARK    5  A    between atoms: C7_10  and  C8_11
REMARK    6  A    between atoms: C8_11  and  C9_12
REMARK    7  A    between atoms: C9_12  and  C10_13
REMARK    8  A    between atoms: C10_13  and  C11_14
REMARK    9  A    between atoms: C11_14  and  C12_15
REMARK   10  A    between atoms: C12_15  and  C13_16
REMARK   11  A    between atoms: C13_16  and  C14_17
REMARK   12  A    between atoms: C14_17  and  C15_18
REMARK   13  A    between atoms: C15_18  and  C16_19
REMARK   14  A    between atoms: C16_19  and  C17_20
ROOT
HETATM    1  C9  UNL     1      22.717  -7.661  12.798  1.00  0.00     0.000 C
ENDROOT
BRANCH   1   2
HETATM    2  C8  UNL     1      22.660  -7.271  11.353  1.00  0.00     0.002 C
BRANCH   2   3
HETATM    3  C7  UNL     1      22.007  -8.327  10.532  1.00  0.00     0.027 C
BRANCH   3   4
HETATM    4  C6  UNL     1      20.542  -8.160  10.318  1.00  0.00     0.232 C
BRANCH   4   5
HETATM    5  N1  UNL     1      20.242  -7.422   9.111  1.00  0.00    -0.071 N
ATOM      6  H12 UNL     1      19.820  -8.032   8.411  1.00  0.00     0.277 HD
ATOM      7  H11 UNL     1      21.099  -7.168   8.621  1.00  0.00     0.277 HD
BRANCH   5   8
HETATM    8  C5  UNL     1      19.420  -6.258   9.337  1.00  0.00     0.270 C
BRANCH   8   9
HETATM    9  C4  UNL     1      20.273  -5.084   9.545  1.00  0.00    -0.033 A
HETATM   10  C3  UNL     1      21.008  -4.581   8.504  1.00  0.00     0.009 A
HETATM   11  C2  UNL     1      21.824  -3.487   8.646  1.00  0.00     0.001 A
HETATM   12  C1  UNL     1      21.907  -2.869   9.885  1.00  0.00     0.000 A
HETATM   13  C21 UNL     1      21.184  -3.343  10.955  1.00  0.00     0.001 A
HETATM   14  C20 UNL     1      20.378  -4.441  10.777  1.00  0.00     0.009 A
ENDBRANCH   8   9
ENDBRANCH   5   8
ENDBRANCH   4   5
ENDBRANCH   3   4
ENDBRANCH   2   3
ENDBRANCH   1   2
BRANCH   1  15
HETATM   15  C10 UNL     1      22.725  -9.186  12.940  1.00  0.00     0.000 C
BRANCH  15  16
HETATM   16  C11 UNL     1      22.650  -9.462  14.422  1.00  0.00     0.000 C
BRANCH  16  17
HETATM   17  C12 UNL     1      23.931  -9.105  15.144  1.00  0.00     0.000 C
BRANCH  17  18
HETATM   18  C13 UNL     1      24.888 -10.268  15.191  1.00  0.00     0.000 C
BRANCH  18  19
HETATM   19  C14 UNL     1      24.192 -11.562  15.557  1.00  0.00     0.000 C
BRANCH  19  20
HETATM   20  C15 UNL     1      24.949 -12.769  15.164  1.00  0.00     0.006 C
BRANCH  20  21
HETATM   21  C16 UNL     1      24.101 -13.978  15.025  1.00  0.00     0.058 C
BRANCH  21  22
HETATM   22  C17 UNL     1      24.215 -14.988  16.080  1.00  0.00     0.025 A
HETATM   23  C18 UNL     1      25.391 -15.273  16.738  1.00  0.00     0.113 A
HETATM   24  N2  UNL     1      25.171 -16.258  17.634  1.00  0.00    -0.360 N
HETATM   25  C19 UNL     1      23.882 -16.589  17.546  1.00  0.00     0.180 A
ATOM     26  H2  UNL     1      25.861 -16.672  18.262  1.00  0.00     0.166 HD
HETATM   27  N3  UNL     1      23.301 -15.805  16.590  1.00  0.00    -0.355 N
ATOM     28  H3  UNL     1      22.319 -15.842  16.313  1.00  0.00     0.166 HD
ENDBRANCH  21  22
ENDBRANCH  20  21
ENDBRANCH  19  20
ENDBRANCH  18  19
ENDBRANCH  17  18
ENDBRANCH  16  17
ENDBRANCH  15  16
ENDBRANCH   1  15
TORSDOF 14
ENDMDL