MODEL 5
REMARK VINA RESULT: -6.969999688      1.176      1.456
REMARK  16 active torsions:
REMARK  status: ('A' for Active; 'I' for Inactive)
REMARK    1  A    between atoms: N1_1  and  C1_5
REMARK    2  A    between atoms: C3_7  and  N2_8
REMARK    3  A    between atoms: C3_7  and  C4_12
REMARK    4  A    between atoms: C4_12  and  C5_13
REMARK    5  A    between atoms: C5_13  and  C6_14
REMARK    6  A    between atoms: C6_14  and  C7_15
REMARK    7  A    between atoms: C7_15  and  C8_16
REMARK    8  A    between atoms: C8_16  and  C9_17
REMARK    9  A    between atoms: C9_17  and  C10_18
REMARK   10  A    between atoms: C10_18  and  C11_19
REMARK   11  A    between atoms: C11_19  and  C12_20
REMARK   12  A    between atoms: C12_20  and  C13_21
REMARK   13  A    between atoms: C13_21  and  C14_22
REMARK   14  A    between atoms: C14_22  and  C15_23
REMARK   15  A    between atoms: C15_23  and  C16_24
REMARK   16  A    between atoms: C16_24  and  C17_25
ROOT
HETATM    1  C7  UNL     1      22.072  -8.637  13.286  1.00  0.00     0.000 C
ENDROOT
BRANCH   1   2
HETATM    2  C6  UNL     1      22.627  -9.900  13.939  1.00  0.00     0.000 C
BRANCH   2   3
HETATM    3  C5  UNL     1      23.447  -9.560  15.117  1.00  0.00     0.002 C
BRANCH   3   4
HETATM    4  C4  UNL     1      24.877  -9.900  15.114  1.00  0.00     0.041 C
BRANCH   4   5
HETATM    5  C3  UNL     1      25.351 -10.802  16.199  1.00  0.00     0.153 A
HETATM    6  C1  UNL     1      24.336 -11.908  16.590  1.00  0.00     0.221 A
HETATM    7  C2  UNL     1      25.529 -12.296  15.792  1.00  0.00     0.076 A
BRANCH   6   8
HETATM    8  N1  UNL     1      24.259 -12.255  17.994  1.00  0.00    -0.072 N
ATOM      9  H13 UNL     1      23.307 -12.557  18.199  1.00  0.00     0.274 HD
ATOM     10  H12 UNL     1      24.783 -13.118  18.142  1.00  0.00     0.274 HD
ATOM     11  H11 UNL     1      24.543 -11.580  18.703  1.00  0.00     0.274 HD
ENDBRANCH   6   8
BRANCH   5  12
HETATM   12  N2  UNL     1      26.232 -10.377  17.248  1.00  0.00    -0.068 N
ATOM     13  H23 UNL     1      26.423  -9.379  17.161  1.00  0.00     0.275 HD
ATOM     14  H22 UNL     1      25.742 -10.391  18.143  1.00  0.00     0.275 HD
ATOM     15  H21 UNL     1      27.108 -10.895  17.320  1.00  0.00     0.275 HD
ENDBRANCH   5  12
ENDBRANCH   4   5
ENDBRANCH   3   4
ENDBRANCH   2   3
ENDBRANCH   1   2
BRANCH   1  16
HETATM   16  C8  UNL     1      23.081  -8.004  12.393  1.00  0.00     0.000 C
BRANCH  16  17
HETATM   17  C9  UNL     1      22.669  -7.938  10.945  1.00  0.00     0.000 C
BRANCH  17  18
HETATM   18  C10 UNL     1      21.582  -8.911  10.625  1.00  0.00     0.000 C
BRANCH  18  19
HETATM   19  C11 UNL     1      20.386  -8.273   9.933  1.00  0.00     0.000 C
BRANCH  19  20
HETATM   20  C12 UNL     1      20.076  -6.925  10.484  1.00  0.00     0.000 C
BRANCH  20  21
HETATM   21  C13 UNL     1      19.433  -5.987   9.492  1.00  0.00     0.000 C
BRANCH  21  22
HETATM   22  C14 UNL     1      20.412  -5.626   8.428  1.00  0.00     0.000 C
BRANCH  22  23
HETATM   23  C15 UNL     1      21.658  -4.927   8.927  1.00  0.00     0.001 C
BRANCH  23  24
HETATM   24  C16 UNL     1      21.401  -3.471   9.053  1.00  0.00     0.010 C
BRANCH  24  25
HETATM   25  C17 UNL     1      21.490  -2.955  10.466  1.00  0.00     0.025 C
HETATM   26  C18 UNL     1      22.834  -2.987  11.044  1.00  0.00     0.060 C
HETATM   27  N3  UNL     1      23.008  -2.000  11.842  1.00  0.00    -0.402 N
HETATM   28  C19 UNL     1      21.831  -1.175  11.918  1.00  0.00     0.119 C
ATOM     29  H3  UNL     1      23.869  -1.821  12.358  1.00  0.00     0.158 HD
HETATM   30  C20 UNL     1      21.072  -1.516  10.621  1.00  0.00     0.029 C
ENDBRANCH  24  25
ENDBRANCH  23  24
ENDBRANCH  22  23
ENDBRANCH  21  22
ENDBRANCH  20  21
ENDBRANCH  19  20
ENDBRANCH  18  19
ENDBRANCH  17  18
ENDBRANCH  16  17
ENDBRANCH   1  16
TORSDOF 16
ENDMDL