MODEL 5
REMARK VINA RESULT: -6.844587992      1.632      3.746
REMARK  14 active torsions:
REMARK  status: ('A' for Active; 'I' for Inactive)
REMARK    1  A    between atoms: N1_1  and  C1_5
REMARK    2  A    between atoms: C1_5  and  C2_6
REMARK    3  A    between atoms: C2_6  and  C3_7
REMARK    4  A    between atoms: C3_7  and  C4_8
REMARK    5  A    between atoms: C4_8  and  C5_9
REMARK    6  A    between atoms: C5_9  and  C6_10
REMARK    7  A    between atoms: C6_10  and  C7_11
REMARK    8  A    between atoms: C7_11  and  C8_12
REMARK    9  A    between atoms: C8_12  and  C9_13
REMARK   10  A    between atoms: C9_13  and  C10_14
REMARK   11  A    between atoms: C10_14  and  C11_15
REMARK   12  A    between atoms: C11_15  and  C12_16
REMARK   13  A    between atoms: C12_16  and  C13_17
REMARK   14  A    between atoms: C13_17  and  C14_18
ROOT
HETATM    1  C9  UNL     1      22.103  -8.758  11.448  1.00  0.00     0.000 C
ENDROOT
BRANCH   1   2
HETATM    2  C8  UNL     1      21.697  -8.851  12.927  1.00  0.00     0.000 C
BRANCH   2   3
HETATM    3  C7  UNL     1      22.450  -9.946  13.621  1.00  0.00     0.000 C
BRANCH   3   4
HETATM    4  C6  UNL     1      23.322  -9.420  14.740  1.00  0.00     0.000 C
BRANCH   4   5
HETATM    5  C5  UNL     1      24.567 -10.239  14.926  1.00  0.00     0.000 C
BRANCH   5   6
HETATM    6  C4  UNL     1      24.252 -11.406  15.827  1.00  0.00     0.000 C
BRANCH   6   7
HETATM    7  C3  UNL     1      24.404 -12.728  15.143  1.00  0.00     0.002 C
BRANCH   7   8
HETATM    8  C2  UNL     1      25.764 -13.347  15.379  1.00  0.00     0.027 C
BRANCH   8   9
HETATM    9  C1  UNL     1      25.549 -14.616  16.178  1.00  0.00     0.229 C
BRANCH   9  10
HETATM   10  N1  UNL     1      26.836 -15.158  16.624  1.00  0.00    -0.079 N
ATOM     11  H13 UNL     1      27.293 -14.548  17.301  1.00  0.00     0.274 HD
ATOM     12  H12 UNL     1      26.719 -15.979  17.218  1.00  0.00     0.274 HD
ATOM     13  H11 UNL     1      27.435 -15.353  15.822  1.00  0.00     0.274 HD
ENDBRANCH   9  10
ENDBRANCH   8   9
ENDBRANCH   7   8
ENDBRANCH   6   7
ENDBRANCH   5   6
ENDBRANCH   4   5
ENDBRANCH   3   4
ENDBRANCH   2   3
ENDBRANCH   1   2
BRANCH   1  14
HETATM   14  C10 UNL     1      23.157  -7.740  11.219  1.00  0.00     0.000 C
BRANCH  14  15
HETATM   15  C11 UNL     1      22.994  -6.594  12.201  1.00  0.00     0.000 C
BRANCH  15  16
HETATM   16  C12 UNL     1      23.663  -5.370  11.697  1.00  0.00     0.002 C
BRANCH  16  17
HETATM   17  C13 UNL     1      22.807  -4.165  11.508  1.00  0.00     0.036 C
BRANCH  17  18
HETATM   18  C14 UNL     1      21.361  -4.363  11.268  1.00  0.00     0.223 C
HETATM   19  C15 UNL     1      20.693  -3.079  10.765  1.00  0.00     0.036 C
HETATM   20  C16 UNL     1      21.371  -2.708   9.493  1.00  0.00     0.004 C
HETATM   21  C17 UNL     1      21.530  -3.820   8.509  1.00  0.00     0.036 C
HETATM   22  C18 UNL     1      21.154  -5.162   8.978  1.00  0.00     0.223 C
HETATM   23  C19 UNL     1      19.855  -5.622   8.300  1.00  0.00     0.037 C
HETATM   24  N2  UNL     1      20.994  -5.376  10.354  1.00  0.00     0.097 N
HETATM   25  C20 UNL     1      19.350  -6.640   9.298  1.00  0.00     0.032 C
HETATM   26  C21 UNL     1      19.706  -5.980  10.610  1.00  0.00     0.273 C
ENDBRANCH  17  18
ENDBRANCH  16  17
ENDBRANCH  15  16
ENDBRANCH  14  15
ENDBRANCH   1  14
TORSDOF 14
ENDMDL