MODEL 2
REMARK VINA RESULT: -7.583071403      0.825      1.538
REMARK  13 active torsions:
REMARK  status: ('A' for Active; 'I' for Inactive)
REMARK    1  A    between atoms: C4_4  and  C5_5
REMARK    2  A    between atoms: C5_5  and  C6_6
REMARK    3  A    between atoms: C6_6  and  C7_7
REMARK    4  A    between atoms: C7_7  and  N1_8
REMARK    5  A    between atoms: N1_8  and  C8_11
REMARK    6  A    between atoms: C8_11  and  C9_12
REMARK    7  A    between atoms: C9_12  and  C10_13
REMARK    8  A    between atoms: C10_13  and  C11_14
REMARK    9  A    between atoms: C11_14  and  C12_15
REMARK   10  A    between atoms: C12_15  and  C13_16
REMARK   11  A    between atoms: C13_16  and  C14_17
REMARK   12  A    between atoms: C14_17  and  N2_18
REMARK   13  A    between atoms: N2_18  and  C15_20
ROOT
HETATM    1  C8  UNL     1      20.503  -8.781  10.230  1.00  0.00     0.232 C
ENDROOT
BRANCH   1   2
HETATM    2  N1  UNL     1      20.531  -7.352  10.325  1.00  0.00    -0.075 N
ATOM      3  H12 UNL     1      21.433  -7.027  10.671  1.00  0.00     0.277 HD
ATOM      4  H11 UNL     1      19.934  -7.025  11.085  1.00  0.00     0.277 HD
BRANCH   2   5
HETATM    5  C7  UNL     1      20.191  -6.703   9.093  1.00  0.00     0.232 C
BRANCH   5   6
HETATM    6  C6  UNL     1      20.884  -5.350   9.054  1.00  0.00     0.032 C
BRANCH   6   7
HETATM    7  C5  UNL     1      21.658  -5.197  10.337  1.00  0.00     0.040 C
BRANCH   7   8
HETATM    8  C4  UNL     1      21.876  -3.784  10.723  1.00  0.00    -0.058 A
HETATM    9  C3  UNL     1      23.009  -3.375  11.384  1.00  0.00     0.007 A
HETATM   10  C2  UNL     1      23.205  -2.053  11.736  1.00  0.00     0.001 A
HETATM   11  C1  UNL     1      22.250  -1.104  11.426  1.00  0.00     0.000 A
HETATM   12  C21 UNL     1      21.103  -1.493  10.762  1.00  0.00     0.001 A
HETATM   13  C20 UNL     1      20.934  -2.831  10.421  1.00  0.00     0.007 A
ENDBRANCH   7   8
ENDBRANCH   6   7
ENDBRANCH   5   6
ENDBRANCH   2   5
ENDBRANCH   1   2
BRANCH   1  14
HETATM   14  C9  UNL     1      21.277  -9.375  11.373  1.00  0.00     0.027 C
BRANCH  14  15
HETATM   15  C10 UNL     1      21.565  -8.318  12.422  1.00  0.00     0.002 C
BRANCH  15  16
HETATM   16  C11 UNL     1      22.900  -8.483  13.038  1.00  0.00     0.000 C
BRANCH  16  17
HETATM   17  C12 UNL     1      22.946  -9.662  13.978  1.00  0.00     0.002 C
BRANCH  17  18
HETATM   18  C13 UNL     1      23.899  -9.393  15.096  1.00  0.00     0.019 C
BRANCH  18  19
HETATM   19  C14 UNL     1      24.899 -10.525  15.319  1.00  0.00     0.114 C
BRANCH  19  20
HETATM   20  N2  UNL     1      24.200 -11.738  15.504  1.00  0.00    -0.417 N
ATOM     21  H2  UNL     1      23.298 -11.779  15.978  1.00  0.00     0.153 HD
BRANCH  20  22
HETATM   22  C15 UNL     1      24.844 -12.907  14.980  1.00  0.00     0.076 C
HETATM   23  C16 UNL     1      26.065 -13.165  15.841  1.00  0.00     0.024 C
HETATM   24  C17 UNL     1      25.967 -14.619  16.260  1.00  0.00     0.002 C
HETATM   25  C18 UNL     1      24.451 -14.852  16.259  1.00  0.00     0.002 C
HETATM   26  C19 UNL     1      24.042 -14.153  15.000  1.00  0.00     0.024 C
ENDBRANCH  20  22
ENDBRANCH  19  20
ENDBRANCH  18  19
ENDBRANCH  17  18
ENDBRANCH  16  17
ENDBRANCH  15  16
ENDBRANCH  14  15
ENDBRANCH   1  14
TORSDOF 13
ENDMDL