MODEL 4
REMARK VINA RESULT: -7.358706663      1.047      1.581
REMARK  13 active torsions:
REMARK  status: ('A' for Active; 'I' for Inactive)
REMARK    1  A    between atoms: C1_1  and  C2_2
REMARK    2  A    between atoms: C1_1  and  C11_11
REMARK    3  A    between atoms: C2_2  and  C3_3
REMARK    4  A    between atoms: C3_3  and  C4_4
REMARK    5  A    between atoms: C4_4  and  C5_5
REMARK    6  A    between atoms: C5_5  and  C6_6
REMARK    7  A    between atoms: C7_7  and  C8_8
REMARK    8  A    between atoms: C11_11  and  C12_12
REMARK    9  A    between atoms: C12_12  and  C13_13
REMARK   10  A    between atoms: C13_13  and  C14_14
REMARK   11  A    between atoms: C14_14  and  C15_15
REMARK   12  A    between atoms: C15_15  and  N1_16
REMARK   13  A    between atoms: N1_16  and  C16_18
ROOT
HETATM    1  C13 UNL     1      23.440  -8.951  14.399  1.00  0.00     0.002 C
ENDROOT
BRANCH   1   2
HETATM    2  C12 UNL     1      22.340  -9.360  13.522  1.00  0.00     0.000 C
BRANCH   2   3
HETATM    3  C11 UNL     1      22.089  -8.715  12.223  1.00  0.00     0.000 C
BRANCH   3   4
HETATM    4  C1  UNL     1      23.051  -7.740  11.688  1.00  0.00     0.000 C
BRANCH   4   5
HETATM    5  C2  UNL     1      22.356  -6.400  11.365  1.00  0.00     0.000 C
BRANCH   5   6
HETATM    6  C3  UNL     1      20.888  -6.575  11.449  1.00  0.00     0.004 C
BRANCH   6   7
HETATM    7  C4  UNL     1      20.267  -6.233  10.087  1.00  0.00     0.027 C
BRANCH   7   8
HETATM    8  C5  UNL     1      21.236  -5.622   9.180  1.00  0.00    -0.027 C
BRANCH   8   9
HETATM    9  C6  UNL     1      21.076  -4.319   8.564  1.00  0.00    -0.008 C
HETATM   10  C7  UNL     1      21.801  -3.094   8.783  1.00  0.00    -0.022 C
BRANCH  10  11
HETATM   11  C8  UNL     1      21.858  -2.377  10.054  1.00  0.00     0.008 A
HETATM   12  C9  UNL     1      21.261  -2.815  11.340  1.00  0.00     0.009 A
HETATM   13  C10 UNL     1      22.750  -2.700  11.195  1.00  0.00     0.009 A
ENDBRANCH  10  11
ENDBRANCH   8   9
ENDBRANCH   7   8
ENDBRANCH   6   7
ENDBRANCH   5   6
ENDBRANCH   4   5
ENDBRANCH   3   4
ENDBRANCH   2   3
ENDBRANCH   1   2
BRANCH   1  14
HETATM   14  C14 UNL     1      23.515  -9.600  15.735  1.00  0.00     0.019 C
BRANCH  14  15
HETATM   15  C15 UNL     1      24.771 -10.526  15.769  1.00  0.00     0.115 C
BRANCH  15  16
HETATM   16  N1  UNL     1      24.265 -11.841  15.644  1.00  0.00    -0.396 N
ATOM     17  H1  UNL     1      23.309 -12.067  15.918  1.00  0.00     0.155 HD
BRANCH  16  18
HETATM   18  C16 UNL     1      25.140 -12.843  15.121  1.00  0.00     0.279 C
HETATM   19  C17 UNL     1      24.428 -14.168  15.127  1.00  0.00     0.054 C
HETATM   20  C18 UNL     1      24.240 -14.568  16.574  1.00  0.00     0.004 C
HETATM   21  C19 UNL     1      25.230 -15.628  16.992  1.00  0.00     0.002 C
HETATM   22  C20 UNL     1      26.652 -15.197  16.978  1.00  0.00     0.027 C
HETATM   23  C21 UNL     1      26.989 -14.174  15.928  1.00  0.00     0.235 C
HETATM   24  N2  UNL     1      26.248 -12.959  16.055  1.00  0.00    -0.055 N
ATOM     25  H22 UNL     1      26.868 -12.153  15.978  1.00  0.00     0.279 HD
ATOM     26  H21 UNL     1      25.923 -12.836  17.014  1.00  0.00     0.279 HD
ENDBRANCH  16  18
ENDBRANCH  15  16
ENDBRANCH  14  15
ENDBRANCH   1  14
TORSDOF 13
ENDMDL