MODEL 4
REMARK VINA RESULT: -7.534265644      1.652      9.705
REMARK  12 active torsions:
REMARK  status: ('A' for Active; 'I' for Inactive)
REMARK    1  A    between atoms: C4_4  and  C5_5
REMARK    2  A    between atoms: C5_5  and  N1_6
REMARK    3  A    between atoms: N1_6  and  C6_9
REMARK    4  A    between atoms: C6_9  and  C7_10
REMARK    5  A    between atoms: C7_10  and  C8_11
REMARK    6  A    between atoms: C8_11  and  C9_12
REMARK    7  A    between atoms: C9_12  and  C10_13
REMARK    8  A    between atoms: C10_13  and  C11_14
REMARK    9  A    between atoms: C11_14  and  C12_15
REMARK   10  A    between atoms: C12_15  and  C13_16
REMARK   11  A    between atoms: C13_16  and  C14_17
REMARK   12  A    between atoms: C15_18  and  C16_19
ROOT
HETATM    1  C8  UNL     1      22.634  -7.506  12.914  1.00  0.00     0.005 C
ENDROOT
BRANCH   1   2
HETATM    2  C7  UNL     1      23.025  -8.898  13.250  1.00  0.00     0.028 C
BRANCH   2   3
HETATM    3  C6  UNL     1      23.367  -9.223  14.636  1.00  0.00     0.232 C
BRANCH   3   4
HETATM    4  N1  UNL     1      24.676  -9.603  15.023  1.00  0.00    -0.070 N
ATOM      5  H12 UNL     1      25.311  -8.812  15.129  1.00  0.00     0.277 HD
ATOM      6  H11 UNL     1      25.192 -10.083  14.285  1.00  0.00     0.277 HD
BRANCH   4   7
HETATM    7  C5  UNL     1      24.536 -10.401  16.244  1.00  0.00     0.289 C
BRANCH   7   8
HETATM    8  C4  UNL     1      25.265 -11.660  16.256  1.00  0.00     0.034 A
HETATM    9  C3  UNL     1      24.875 -12.613  15.325  1.00  0.00     0.027 A
HETATM   10  C2  UNL     1      25.560 -13.785  15.154  1.00  0.00     0.003 A
HETATM   11  C1  UNL     1      26.697 -14.060  15.931  1.00  0.00     0.017 A
HETATM   12  C20 UNL     1      27.049 -13.084  16.850  1.00  0.00     0.088 A
HETATM   13  N3  UNL     1      26.360 -11.944  16.997  1.00  0.00    -0.368 N
ATOM     14  H3  UNL     1      26.673 -11.267  17.692  1.00  0.00     0.165 HD
ENDBRANCH   7   8
ENDBRANCH   4   7
ENDBRANCH   3   4
ENDBRANCH   2   3
ENDBRANCH   1   2
BRANCH   1  15
HETATM   15  C9  UNL     1      22.990  -7.283  11.406  1.00  0.00     0.027 C
BRANCH  15  16
HETATM   16  C10 UNL     1      22.332  -8.348  10.635  1.00  0.00    -0.031 C
BRANCH  16  17
HETATM   17  C11 UNL     1      20.914  -8.638  10.598  1.00  0.00    -0.030 C
BRANCH  17  18
HETATM   18  C12 UNL     1      19.997  -8.295   9.497  1.00  0.00     0.030 C
BRANCH  18  19
HETATM   19  C13 UNL     1      19.659  -6.846   9.459  1.00  0.00     0.031 C
BRANCH  19  20
HETATM   20  C14 UNL     1      20.315  -5.943   8.519  1.00  0.00    -0.026 C
HETATM   21  C15 UNL     1      21.462  -5.098   8.761  1.00  0.00     0.009 C
BRANCH  21  22
HETATM   22  C16 UNL     1      21.424  -3.982   9.697  1.00  0.00    -0.020 A
HETATM   23  C17 UNL     1      21.286  -3.956  11.058  1.00  0.00     0.029 A
HETATM   24  C18 UNL     1      21.295  -2.637  11.505  1.00  0.00     0.088 A
HETATM   25  N2  UNL     1      21.438  -1.876  10.408  1.00  0.00    -0.374 N
HETATM   26  C19 UNL     1      21.519  -2.627   9.312  1.00  0.00     0.099 A
ATOM     27  H2  UNL     1      21.480  -0.857  10.414  1.00  0.00     0.164 HD
ENDBRANCH  21  22
ENDBRANCH  19  20
ENDBRANCH  18  19
ENDBRANCH  17  18
ENDBRANCH  16  17
ENDBRANCH  15  16
ENDBRANCH   1  15
TORSDOF 12
ENDMDL