MODEL 2
REMARK VINA RESULT: -7.837684246      1.188      2.117
REMARK  13 active torsions:
REMARK  status: ('A' for Active; 'I' for Inactive)
REMARK    1  A    between atoms: C4_4  and  C5_5
REMARK    2  A    between atoms: C5_5  and  C6_6
REMARK    3  A    between atoms: C6_6  and  C7_7
REMARK    4  A    between atoms: C7_7  and  C8_8
REMARK    5  A    between atoms: C8_8  and  C9_9
REMARK    6  A    between atoms: C9_9  and  C10_10
REMARK    7  A    between atoms: C10_10  and  C11_11
REMARK    8  A    between atoms: C11_11  and  C12_12
REMARK    9  A    between atoms: C12_12  and  C13_13
REMARK   10  A    between atoms: C13_13  and  C14_14
REMARK   11  A    between atoms: C14_14  and  C15_15
REMARK   12  A    between atoms: C15_15  and  C16_16
REMARK   13  A    between atoms: C16_16  and  C17_17
ROOT
HETATM    1  C11 UNL     1      21.609  -8.688  10.690  1.00  0.00     0.000 C
ENDROOT
BRANCH   1   2
HETATM    2  C10 UNL     1      20.463  -8.144   9.872  1.00  0.00     0.000 C
BRANCH   2   3
HETATM    3  C9  UNL     1      20.054  -6.822  10.454  1.00  0.00     0.000 C
BRANCH   3   4
HETATM    4  C8  UNL     1      19.544  -5.857   9.413  1.00  0.00     0.000 C
BRANCH   4   5
HETATM    5  C7  UNL     1      20.616  -5.821   8.309  1.00  0.00     0.000 C
BRANCH   5   6
HETATM    6  C6  UNL     1      21.684  -4.826   8.635  1.00  0.00     0.005 C
BRANCH   6   7
HETATM    7  C5  UNL     1      21.168  -3.417   8.672  1.00  0.00     0.038 C
BRANCH   7   8
HETATM    8  C4  UNL     1      21.662  -2.705   9.865  1.00  0.00    -0.058 A
HETATM    9  C3  UNL     1      22.777  -3.152  10.558  1.00  0.00     0.007 A
HETATM   10  C2  UNL     1      23.237  -2.513  11.676  1.00  0.00     0.001 A
HETATM   11  C1  UNL     1      22.573  -1.387  12.131  1.00  0.00     0.000 A
HETATM   12  C21 UNL     1      21.462  -0.912  11.472  1.00  0.00     0.001 A
HETATM   13  C20 UNL     1      21.034  -1.583  10.352  1.00  0.00     0.007 A
ENDBRANCH   7   8
ENDBRANCH   6   7
ENDBRANCH   5   6
ENDBRANCH   4   5
ENDBRANCH   3   4
ENDBRANCH   2   3
ENDBRANCH   1   2
BRANCH   1  14
HETATM   14  C12 UNL     1      22.771  -7.738  10.755  1.00  0.00     0.000 C
BRANCH  14  15
HETATM   15  C13 UNL     1      23.095  -7.273  12.135  1.00  0.00     0.000 C
BRANCH  15  16
HETATM   16  C14 UNL     1      22.454  -8.133  13.176  1.00  0.00     0.000 C
BRANCH  16  17
HETATM   17  C15 UNL     1      23.439  -8.742  14.131  1.00  0.00     0.006 C
BRANCH  17  18
HETATM   18  C16 UNL     1      23.143 -10.226  14.334  1.00  0.00     0.058 C
BRANCH  18  19
HETATM   19  C17 UNL     1      24.160 -10.841  15.224  1.00  0.00     0.025 A
HETATM   20  C18 UNL     1      24.624 -12.120  15.232  1.00  0.00     0.113 A
HETATM   21  N1  UNL     1      25.542 -12.248  16.206  1.00  0.00    -0.360 N
HETATM   22  C19 UNL     1      25.636 -11.048  16.791  1.00  0.00     0.180 A
ATOM     23  H1  UNL     1      26.061 -13.090  16.450  1.00  0.00     0.166 HD
HETATM   24  N2  UNL     1      24.809 -10.169  16.219  1.00  0.00    -0.355 N
ATOM     25  H2  UNL     1      24.688  -9.189  16.474  1.00  0.00     0.166 HD
ENDBRANCH  18  19
ENDBRANCH  17  18
ENDBRANCH  16  17
ENDBRANCH  15  16
ENDBRANCH  14  15
ENDBRANCH   1  14
TORSDOF 13
ENDMDL