MODEL 1
REMARK VINA RESULT: -6.601208520      0.000      0.000
REMARK  3 active torsions:
REMARK  status: ('A' for Active; 'I' for Inactive)
REMARK       I    between atoms: N1_4  and  C4_5
REMARK    1  A    between atoms: C4_5  and  O2_7
REMARK    2  A    between atoms: O2_7  and  C5_8
REMARK    3  A    between atoms: C10_13  and  C11_14
ROOT
HETATM    1  C1  UNL     1      30.492  11.885  -2.987  1.00  0.00     0.014 C
HETATM    2  C2  UNL     1      30.340  13.282  -2.469  1.00  0.00     0.034 C
HETATM    3  C3  UNL     1      31.467  14.108  -3.082  1.00  0.00     0.135 C
HETATM    4  N1  UNL     1      31.375  15.422  -2.440  1.00  0.00    -0.327 N
HETATM    5  C4  UNL     1      32.440  15.958  -1.705  1.00  0.00     0.363 C
HETATM    6  O1  UNL     1      33.546  15.373  -1.532  1.00  0.00    -0.238 OA
HETATM    7  C9  UNL     1      30.153  16.137  -2.596  1.00  0.00     0.142 C
HETATM    8  C10 UNL     1      28.910  15.336  -2.442  1.00  0.00     0.095 C
HETATM    9  C14 UNL     1      29.018  13.896  -2.794  1.00  0.00     0.187 C
HETATM   10  F1  UNL     1      28.716  13.777  -4.156  1.00  0.00    -0.248 F
ENDROOT
BRANCH   5  11
HETATM   11  O2  UNL     1      32.308  17.205  -1.115  1.00  0.00    -0.294 OA
BRANCH  11  12
HETATM   12  C5  UNL     1      32.513  17.379   0.269  1.00  0.00     0.061 C
HETATM   13  C6  UNL     1      32.438  16.027   0.926  1.00  0.00     0.046 C
HETATM   14  C7  UNL     1      33.840  18.028   0.578  1.00  0.00     0.046 C
HETATM   15  C8  UNL     1      31.425  18.303   0.778  1.00  0.00     0.046 C
ENDBRANCH  11  12
ENDBRANCH   5  11
BRANCH   8  16
HETATM   16  C11 UNL     1      28.485  15.417  -0.992  1.00  0.00     0.059 A
HETATM   17  N2  UNL     1      29.205  15.807   0.050  1.00  0.00    -0.363 N
HETATM   18  C12 UNL     1      28.677  15.814   1.230  1.00  0.00     0.095 A
ATOM     19  H2  UNL     1      30.173  16.101  -0.079  1.00  0.00     0.165 HD
HETATM   20  C13 UNL     1      27.371  15.410   1.350  1.00  0.00     0.068 A
HETATM   21  S1  UNL     1      26.983  15.039  -0.276  1.00  0.00    -0.087 SA
ENDBRANCH   8  16
TORSDOF 3
ENDMDL