MODEL 4
REMARK VINA RESULT: -6.412802706      2.374      4.790
REMARK  1 active torsions:
REMARK  status: ('A' for Active; 'I' for Inactive)
REMARK    1  A    between atoms: C2_2  and  C3_3
ROOT
HETATM    1  C3  UNL     1      28.631  15.963  -4.780  1.00  0.00     0.082 C
HETATM    2 CL1  UNL     1      27.827  15.321  -6.265  1.00  0.00    -0.115 Cl
HETATM    3  C4  UNL     1      30.146  15.864  -5.161  1.00  0.00     0.037 C
HETATM    4  C5  UNL     1      30.761  15.874  -3.825  1.00  0.00     0.029 C
HETATM    5  C6  UNL     1      31.996  15.167  -3.512  1.00  0.00     0.008 C
HETATM    6  C7  UNL     1      32.319  15.635  -2.085  1.00  0.00     0.005 C
HETATM    7  C8  UNL     1      31.241  15.820  -1.152  1.00  0.00    -0.011 C
HETATM    8  C9  UNL     1      31.570  16.911  -0.152  1.00  0.00     0.010 C
HETATM    9  C10 UNL     1      29.827  16.146  -1.700  1.00  0.00     0.033 C
HETATM   10  C11 UNL     1      28.924  15.988  -0.546  1.00  0.00     0.034 C
HETATM   11  C12 UNL     1      27.573  15.437  -0.780  1.00  0.00     0.172 C
HETATM   12  O1  UNL     1      27.126  15.471  -2.071  1.00  0.00    -0.350 OA
HETATM   13  C13 UNL     1      27.760  14.486  -2.785  1.00  0.00     0.235 C
HETATM   14  C14 UNL     1      26.688  13.535  -3.303  1.00  0.00     0.086 C
HETATM   15  O2  UNL     1      28.679  13.766  -1.967  1.00  0.00    -0.196 OA
HETATM   16  O3  UNL     1      29.911  14.029  -2.401  1.00  0.00    -0.222 OA
HETATM   17  C15 UNL     1      29.768  15.333  -2.856  1.00  0.00     0.147 C
HETATM   18  C16 UNL     1      28.659  15.001  -3.759  1.00  0.00     0.217 C
HETATM   19  F1  UNL     1      29.077  13.830  -4.481  1.00  0.00    -0.231 F
ENDROOT
BRANCH   1  20
HETATM   20  C2  UNL     1      28.189  17.346  -4.630  1.00  0.00     0.025 C
HETATM   21  C1  UNL     1      26.723  17.494  -4.972  1.00  0.00     0.007 C
ENDBRANCH   1  20
TORSDOF 1
ENDMDL