MODEL 2
REMARK VINA RESULT: -5.672711761      1.537      4.528
REMARK  3 active torsions:
REMARK  status: ('A' for Active; 'I' for Inactive)
REMARK    1  A    between atoms: C2_2  and  O2_4
REMARK    2  A    between atoms: O2_4  and  C3_5
REMARK    3  A    between atoms: C3_5  and  C4_6
ROOT
HETATM    1  C3  UNL     1      29.691  14.972  -3.141  1.00  0.00     0.099 C
HETATM    2  C8  UNL     1      30.987  15.404  -3.817  1.00  0.00     0.032 C
HETATM    3  C9  UNL     1      32.243  15.500  -3.124  1.00  0.00     0.011 C
HETATM    4 CL1  UNL     1      33.276  14.072  -3.008  1.00  0.00    -0.089 Cl
HETATM    5  C10 UNL     1      32.343  16.241  -1.832  1.00  0.00     0.058 C
HETATM    6  C11 UNL     1      31.999  15.417  -0.626  1.00  0.00     0.029 C
HETATM    7  C12 UNL     1      32.056  16.361   0.558  1.00  0.00     0.118 C
HETATM    8  C13 UNL     1      30.833  17.179   0.288  1.00  0.00     0.259 C
HETATM    9  O3  UNL     1      30.455  18.235   0.881  1.00  0.00    -0.265 OA
HETATM   10  O4  UNL     1      30.132  16.590  -0.758  1.00  0.00    -0.316 OA
HETATM   11  C14 UNL     1      30.475  15.245  -0.734  1.00  0.00     0.140 C
HETATM   12  C15 UNL     1      30.057  14.374  -1.815  1.00  0.00     0.076 C
ENDROOT
BRANCH   1  13
HETATM   13  O2  UNL     1      28.937  16.084  -3.136  1.00  0.00    -0.305 OA
BRANCH  13  14
HETATM   14  C2  UNL     1      27.747  16.605  -3.058  1.00  0.00     0.255 C
HETATM   15  C1  UNL     1      27.145  17.505  -4.092  1.00  0.00     0.126 C
HETATM   16  O1  UNL     1      27.075  16.343  -2.075  1.00  0.00    -0.266 OA
ENDBRANCH  13  14
ENDBRANCH   1  13
BRANCH   1  17
HETATM   17  C4  UNL     1      29.015  13.890  -3.938  1.00  0.00    -0.016 C
HETATM   18  C5  UNL     1      28.836  14.266  -5.402  1.00  0.00     0.018 C
HETATM   19  C6  UNL     1      29.849  12.608  -3.986  1.00  0.00     0.018 C
HETATM   20  C7  UNL     1      27.669  13.418  -3.498  1.00  0.00     0.018 C
ENDBRANCH   1  17
TORSDOF 3
ENDMDL