MODEL 3
REMARK VINA RESULT: -6.000817656      2.599      5.300
REMARK  2 active torsions:
REMARK  status: ('A' for Active; 'I' for Inactive)
REMARK    1  A    between atoms: C2_2  and  O2_4
REMARK    2  A    between atoms: O2_4  and  C3_5
ROOT
HETATM    1  C3  UNL     1      31.103  16.277   0.310  1.00  0.00     0.134 C
HETATM    2  C4  UNL     1      32.048  15.133   0.603  1.00  0.00     0.055 C
HETATM    3  C5  UNL     1      31.186  16.682  -1.142  1.00  0.00     0.091 C
HETATM    4  C6  UNL     1      30.215  15.855  -1.968  1.00  0.00     0.103 C
HETATM    5  C7  UNL     1      30.323  16.228  -3.420  1.00  0.00     0.056 C
HETATM    6  C8  UNL     1      30.310  14.902  -4.122  1.00  0.00    -0.014 C
HETATM    7  C9  UNL     1      31.538  14.880  -5.044  1.00  0.00     0.018 C
HETATM    8  C10 UNL     1      29.111  14.704  -5.010  1.00  0.00     0.018 C
HETATM    9  C11 UNL     1      30.437  13.902  -3.036  1.00  0.00     0.062 C
HETATM   10  C12 UNL     1      29.287  12.930  -2.953  1.00  0.00     0.046 C
HETATM   11  C13 UNL     1      31.696  13.056  -3.260  1.00  0.00     0.046 C
HETATM   12  O3  UNL     1      30.579  14.534  -1.836  1.00  0.00    -0.363 OA
HETATM   13  C14 UNL     1      28.836  16.124  -1.489  1.00  0.00     0.050 C
HETATM   14 CL1  UNL     1      27.495  16.456  -2.539  1.00  0.00    -0.086 Cl
HETATM   15  C15 UNL     1      28.630  16.106  -0.185  1.00  0.00     0.076 C
HETATM   16  C16 UNL     1      29.751  15.828   0.687  1.00  0.00     0.185 C
HETATM   17  O4  UNL     1      29.593  15.209   1.763  1.00  0.00    -0.290 OA
ENDROOT
BRANCH   1  18
HETATM   18  O2  UNL     1      31.391  17.398   1.164  1.00  0.00    -0.302 OA
BRANCH  18  19
HETATM   19  C2  UNL     1      32.319  18.367   0.806  1.00  0.00     0.256 C
HETATM   20  C1  UNL     1      33.784  18.077   0.773  1.00  0.00     0.126 C
HETATM   21  O1  UNL     1      31.848  19.502   0.511  1.00  0.00    -0.266 OA
ENDBRANCH  18  19
ENDBRANCH   1  18
TORSDOF 2
ENDMDL