MODEL 3
REMARK VINA RESULT: -5.411692749      2.446      3.907
REMARK  3 active torsions:
REMARK  status: ('A' for Active; 'I' for Inactive)
REMARK    1  A    between atoms: C2_2  and  O1_3
REMARK    2  A    between atoms: O1_3  and  C3_4
REMARK       I    between atoms: C3_4  and  N1_6
REMARK    3  A    between atoms: C7_12  and  C9_14
ROOT
HETATM    1  C3  UNL     1      33.205  18.156   1.154  1.00  0.00     0.364 C
HETATM    2  O2  UNL     1      33.413  19.063   0.307  1.00  0.00    -0.238 OA
HETATM    3  N1  UNL     1      32.696  16.948   0.778  1.00  0.00    -0.306 N
ATOM      4  H1  UNL     1      33.447  16.266   0.679  1.00  0.00     0.170 HD
HETATM    5  C4  UNL     1      31.606  16.423   0.519  1.00  0.00     0.036 C
HETATM    6  C5  UNL     1      31.674  14.948   0.136  1.00  0.00     0.079 C
HETATM    7  C6  UNL     1      30.831  14.650  -1.075  1.00  0.00     0.122 C
HETATM    8 CL1  UNL     1      31.850  14.715  -2.489  1.00  0.00    -0.121 Cl
HETATM    9  C7  UNL     1      29.567  15.415  -1.103  1.00  0.00     0.083 C
HETATM   10  C8  UNL     1      28.640  14.791  -0.044  1.00  0.00     0.048 C
HETATM   11  O3  UNL     1      29.717  16.757  -0.744  1.00  0.00    -0.353 OA
HETATM   12  C13 UNL     1      30.240  16.961   0.511  1.00  0.00     0.274 C
HETATM   13  C14 UNL     1      30.122  18.352   0.832  1.00  0.00     0.097 C
HETATM   14  N2  UNL     1      30.002  19.461   1.087  1.00  0.00    -0.194 NA
ENDROOT
BRANCH   9  15
HETATM   15  C9  UNL     1      28.794  15.422  -2.373  1.00  0.00    -0.019 C
HETATM   16  C10 UNL     1      29.371  16.332  -3.429  1.00  0.00     0.017 C
HETATM   17  C11 UNL     1      28.515  14.039  -2.919  1.00  0.00     0.017 C
HETATM   18  C12 UNL     1      27.412  16.008  -2.036  1.00  0.00     0.017 C
ENDBRANCH   9  15
BRANCH   1  19
HETATM   19  O1  UNL     1      33.516  18.437   2.473  1.00  0.00    -0.304 OA
BRANCH  19  20
HETATM   20  C2  UNL     1      33.415  19.712   3.059  1.00  0.00     0.176 C
HETATM   21  C1  UNL     1      32.215  19.861   3.957  1.00  0.00     0.034 C
ENDBRANCH  19  20
ENDBRANCH   1  19
TORSDOF 3
ENDMDL