MODEL 2
REMARK VINA RESULT: -6.643753591      1.807      6.330
REMARK  3 active torsions:
REMARK  status: ('A' for Active; 'I' for Inactive)
REMARK    1  A    between atoms: C2_2  and  O1_5
REMARK    2  A    between atoms: O1_5  and  C5_6
REMARK    3  A    between atoms: C5_6  and  C6_8
ROOT
HETATM    1  C6  UNL     1      32.661  16.009  -0.729  1.00  0.00     0.091 C
HETATM    2  C7  UNL     1      31.837  15.196   0.206  1.00  0.00     0.052 C
HETATM    3  C8  UNL     1      30.596  15.853   0.695  1.00  0.00     0.173 C
HETATM    4  F1  UNL     1      30.126  15.092   1.775  1.00  0.00    -0.249 F
HETATM    5  C9  UNL     1      30.741  17.280   1.082  1.00  0.00     0.078 C
HETATM    6  C10 UNL     1      31.992  17.940   0.605  1.00  0.00     0.100 C
HETATM    7  C11 UNL     1      33.169  17.770   1.507  1.00  0.00     0.044 C
HETATM    8  C12 UNL     1      32.784  18.195   2.910  1.00  0.00     0.043 C
HETATM    9  C13 UNL     1      32.147  19.563   2.796  1.00  0.00     0.089 C
HETATM   10  C14 UNL     1      31.390  19.812   4.094  1.00  0.00     0.049 C
HETATM   11  C15 UNL     1      33.228  20.609   2.713  1.00  0.00     0.049 C
HETATM   12  O3  UNL     1      31.236  19.639   1.761  1.00  0.00    -0.230 OA
HETATM   13  O4  UNL     1      31.725  19.332   0.601  1.00  0.00    -0.229 OA
HETATM   14  C16 UNL     1      32.279  17.458  -0.794  1.00  0.00     0.056 C
ENDROOT
BRANCH   1  15
HETATM   15  C5  UNL     1      32.621  15.476  -2.123  1.00  0.00     0.264 C
HETATM   16  O2  UNL     1      33.415  14.592  -2.539  1.00  0.00    -0.265 OA
BRANCH  15  17
HETATM   17  O1  UNL     1      31.683  15.939  -3.050  1.00  0.00    -0.311 OA
BRANCH  17  18
HETATM   18  C2  UNL     1      30.434  15.297  -3.245  1.00  0.00     0.060 C
HETATM   19  C1  UNL     1      30.209  15.224  -4.750  1.00  0.00     0.045 C
HETATM   20  C3  UNL     1      29.294  16.101  -2.655  1.00  0.00     0.045 C
HETATM   21  C4  UNL     1      30.430  13.886  -2.709  1.00  0.00     0.045 C
ENDBRANCH  17  18
ENDBRANCH  15  17
ENDBRANCH   1  15
TORSDOF 3
ENDMDL