MODEL 1
REMARK VINA RESULT: -6.188272192      0.000      0.000
REMARK  1 active torsions:
REMARK  status: ('A' for Active; 'I' for Inactive)
REMARK    1  A    between atoms: C2_2  and  C3_3
ROOT
HETATM    1  C3  UNL     1      30.574  15.635  -0.833  1.00  0.00     0.163 C
HETATM    2  O1  UNL     1      30.814  15.600  -2.176  1.00  0.00    -0.320 OA
HETATM    3  C4  UNL     1      32.051  15.118  -2.550  1.00  0.00     0.322 A
HETATM    4  O2  UNL     1      33.083  15.597  -1.689  1.00  0.00    -0.280 OA
HETATM    5  C5  UNL     1      32.811  16.509  -0.659  1.00  0.00     0.126 A
HETATM    6  S1  UNL     1      33.671  17.667   0.257  1.00  0.00    -0.057 SA
HETATM    7  C6  UNL     1      32.405  18.230   1.252  1.00  0.00     0.054 A
HETATM    8 BR1  UNL     1      32.485  19.573   2.614  1.00  0.00    -0.043 Br
HETATM    9  C7  UNL     1      31.341  17.491   0.836  1.00  0.00     0.039 A
HETATM   10  C8  UNL     1      31.543  16.597  -0.154  1.00  0.00     0.013 A
HETATM   11  O3  UNL     1      32.287  15.573  -3.950  1.00  0.00    -0.311 OA
HETATM   12  C9  UNL     1      32.358  14.225  -3.593  1.00  0.00     0.144 A
HETATM   13  C10 UNL     1      33.764  13.673  -3.694  1.00  0.00     0.054 C
HETATM   14  C11 UNL     1      31.309  13.284  -4.165  1.00  0.00     0.054 C
ENDROOT
BRANCH   1  15
HETATM   15  C2  UNL     1      29.168  16.219  -0.672  1.00  0.00     0.033 C
HETATM   16  C1  UNL     1      28.451  16.230  -1.982  1.00  0.00     0.008 C
ENDBRANCH   1  15
TORSDOF 1
ENDMDL