MODEL 1
REMARK VINA RESULT: -5.950906700      0.000      0.000
REMARK  2 active torsions:
REMARK  status: ('A' for Active; 'I' for Inactive)
REMARK    1  A    between atoms: O1_2  and  C2_3
REMARK    2  A    between atoms: C2_3  and  C3_5
ROOT
HETATM    1  C3  UNL     1      32.275  16.779  -0.276  1.00  0.00     0.100 A
HETATM    2  S1  UNL     1      33.747  17.369   0.353  1.00  0.00    -0.058 SA
HETATM    3  C4  UNL     1      33.138  18.401   1.562  1.00  0.00     0.118 A
HETATM    4  C5  UNL     1      31.785  18.260   1.444  1.00  0.00     0.001 A
HETATM    5  C6  UNL     1      31.335  17.415   0.488  1.00  0.00     0.043 A
HETATM    6 BR1  UNL     1      29.434  17.089   0.177  1.00  0.00    -0.049 Br
HETATM    7  C7  UNL     1      30.707  18.944   2.269  1.00  0.00     0.043 C
HETATM    8  C8  UNL     1      31.079  18.925   3.709  1.00  0.00     0.005 C
HETATM    9  C9  UNL     1      31.699  20.182   4.225  1.00  0.00     0.002 C
HETATM   10  C10 UNL     1      32.613  20.869   3.259  1.00  0.00     0.027 C
HETATM   11  C11 UNL     1      33.977  20.237   3.210  1.00  0.00     0.176 C
HETATM   12  O3  UNL     1      34.037  19.129   2.368  1.00  0.00    -0.343 OA
ENDROOT
BRANCH   1  13
HETATM   13  C2  UNL     1      32.064  15.813  -1.379  1.00  0.00     0.301 C
HETATM   14  O2  UNL     1      32.477  16.124  -2.519  1.00  0.00    -0.259 OA
BRANCH  13  15
HETATM   15  O1  UNL     1      31.420  14.607  -1.108  1.00  0.00    -0.322 OA
HETATM   16  C1  UNL     1      30.535  14.109  -2.088  1.00  0.00     0.213 C
ENDBRANCH  13  15
ENDBRANCH   1  13
TORSDOF 2
ENDMDL