MODEL 2
REMARK VINA RESULT: -7.050149016      2.272      3.977
REMARK  2 active torsions:
REMARK  status: ('A' for Active; 'I' for Inactive)
REMARK    1  A    between atoms: C2_2  and  O2_4
REMARK    2  A    between atoms: O2_4  and  C3_5
ROOT
HETATM    1  C3  UNL     1      30.364  16.960  -0.174  1.00  0.00     0.143 C
HETATM    2  C4  UNL     1      29.913  17.044   1.270  1.00  0.00     0.037 C
HETATM    3  C5  UNL     1      29.166  15.820   1.719  1.00  0.00     0.036 C
HETATM    4  C6  UNL     1      28.134  15.521   0.688  1.00  0.00    -0.081 C
HETATM    5  C7  UNL     1      26.695  15.331   1.012  1.00  0.00     0.043 C
HETATM    6  C8  UNL     1      28.543  15.427  -0.564  1.00  0.00    -0.065 C
HETATM    7  C9  UNL     1      27.582  15.133  -1.635  1.00  0.00     0.090 C
HETATM    8  C10 UNL     1      28.235  15.001  -2.979  1.00  0.00     0.144 C
HETATM    9 CL1  UNL     1      27.006  15.481  -4.202  1.00  0.00    -0.087 Cl
HETATM   10  O3  UNL     1      29.260  15.902  -3.069  1.00  0.00    -0.358 OA
HETATM   11  C11 UNL     1      30.346  15.628  -2.253  1.00  0.00     0.134 C
HETATM   12  C12 UNL     1      30.949  14.329  -2.721  1.00  0.00     0.033 C
HETATM   13  C13 UNL     1      29.988  13.206  -2.814  1.00  0.00     0.011 C
HETATM   14  C14 UNL     1      28.616  13.583  -3.288  1.00  0.00     0.032 C
HETATM   15  C15 UNL     1      28.408  13.269  -4.757  1.00  0.00     0.014 C
HETATM   16  C16 UNL     1      30.015  15.634  -0.800  1.00  0.00     0.073 C
ENDROOT
BRANCH   1  17
HETATM   17  O2  UNL     1      31.707  17.325  -0.333  1.00  0.00    -0.316 OA
BRANCH  17  18
HETATM   18  C2  UNL     1      32.753  16.881   0.440  1.00  0.00     0.255 C
HETATM   19  C1  UNL     1      33.212  15.481   0.292  1.00  0.00     0.126 C
HETATM   20  O1  UNL     1      33.284  17.681   1.244  1.00  0.00    -0.266 OA
ENDBRANCH  17  18
ENDBRANCH   1  17
TORSDOF 2
ENDMDL