MODEL 2
REMARK VINA RESULT: -7.291013359      1.798      2.210
REMARK  1 active torsions:
REMARK  status: ('A' for Active; 'I' for Inactive)
REMARK    1  A    between atoms: O1_2  and  C2_3
ROOT
HETATM    1  C2  UNL     1      31.072  18.151   0.880  1.00  0.00     0.260 C
HETATM    2  C3  UNL     1      30.033  17.348   1.624  1.00  0.00     0.067 C
HETATM    3  C4  UNL     1      29.657  16.087   0.915  1.00  0.00     0.018 C
HETATM    4  C5  UNL     1      28.197  15.761   0.970  1.00  0.00     0.012 C
HETATM    5  C6  UNL     1      30.139  16.261  -0.534  1.00  0.00     0.155 C
HETATM    6  O2  UNL     1      29.676  15.195  -1.243  1.00  0.00    -0.371 OA
HETATM    7  C7  UNL     1      30.289  14.943  -2.434  1.00  0.00     0.196 C
HETATM    8  C8  UNL     1      31.337  15.932  -2.834  1.00  0.00     0.169 C
HETATM    9  O3  UNL     1      32.037  15.387  -3.949  1.00  0.00    -0.321 OA
HETATM   10  C9  UNL     1      31.438  14.488  -4.812  1.00  0.00     0.195 A
HETATM   11  O4  UNL     1      31.935  13.824  -5.828  1.00  0.00    -0.300 OA
HETATM   12  C10 UNL     1      31.028  13.071  -6.387  1.00  0.00     0.145 A
HETATM   13  C11 UNL     1      29.852  13.244  -5.695  1.00  0.00     0.040 A
HETATM   14  C12 UNL     1      30.109  14.139  -4.700  1.00  0.00     0.044 A
HETATM   15  C13 UNL     1      29.327  14.777  -3.597  1.00  0.00     0.160 C
HETATM   16  C14 UNL     1      28.867  16.130  -4.132  1.00  0.00     0.060 C
HETATM   17  F1  UNL     1      28.245  13.993  -3.269  1.00  0.00    -0.235 F
HETATM   18  C15 UNL     1      32.335  16.182  -1.753  1.00  0.00     0.045 C
HETATM   19  C16 UNL     1      33.312  15.016  -1.728  1.00  0.00     0.015 C
HETATM   20  C17 UNL     1      31.648  16.306  -0.407  1.00  0.00     0.160 C
HETATM   21  O5  UNL     1      32.051  17.401   0.299  1.00  0.00    -0.353 OA
ENDROOT
BRANCH   1  22
HETATM   22  O1  UNL     1      31.666  19.008   1.805  1.00  0.00    -0.366 OA
HETATM   23  C1  UNL     1      33.028  19.153   1.594  1.00  0.00     0.204 C
ENDBRANCH   1  22
TORSDOF 1
ENDMDL