MODEL 2
REMARK VINA RESULT: -6.572833269      0.831      1.739
REMARK  4 active torsions:
REMARK  status: ('A' for Active; 'I' for Inactive)
REMARK    1  A    between atoms: N1_5  and  C5_6
REMARK    2  A    between atoms: C5_6  and  S1_11
REMARK    3  A    between atoms: S1_11  and  C7_12
REMARK    4  A    between atoms: C7_12  and  C8_13
ROOT
HETATM    1  C5  UNL     1      30.346  16.296   0.019  1.00  0.00     0.151 C
HETATM    2  N2  UNL     1      31.009  17.437   0.147  1.00  0.00    -0.274 N
ATOM      3  H2  UNL     1      31.678  17.697  -0.578  1.00  0.00     0.180 HD
HETATM    4  C6  UNL     1      30.832  18.285   1.218  1.00  0.00     0.183 C
HETATM    5  N3  UNL     1      30.688  18.985   2.130  1.00  0.00    -0.172 NA
ENDROOT
BRANCH   1   6
HETATM    6  N1  UNL     1      30.693  15.592  -1.162  1.00  0.00    -0.357 N
HETATM    7  C4  UNL     1      32.090  15.234  -1.294  1.00  0.00     0.126 C
HETATM    8  C3  UNL     1      32.466  14.712  -2.638  1.00  0.00     0.024 C
HETATM    9  C2  UNL     1      31.584  15.468  -3.643  1.00  0.00    -0.015 C
HETATM   10  C1  UNL     1      32.129  15.347  -5.047  1.00  0.00     0.010 C
HETATM   11  C15 UNL     1      30.206  14.910  -3.492  1.00  0.00     0.029 C
HETATM   12  C13 UNL     1      29.682  15.301  -2.131  1.00  0.00     0.082 C
HETATM   13  C14 UNL     1      28.719  16.453  -2.339  1.00  0.00     0.032 C
ENDBRANCH   1   6
BRANCH   1  14
HETATM   14  S1  UNL     1      29.214  15.876   1.263  1.00  0.00    -0.091 SA
BRANCH  14  15
HETATM   15  C7  UNL     1      27.543  15.519   0.838  1.00  0.00     0.116 C
BRANCH  15  16
HETATM   16  C8  UNL     1      26.667  15.083   1.946  1.00  0.00     0.158 C
HETATM   17  C9  UNL     1      27.447  14.878   3.258  1.00  0.00     0.204 C
HETATM   18  O1  UNL     1      26.465  14.211   4.000  1.00  0.00    -0.353 OA
HETATM   19  C10 UNL     1      25.720  13.460   3.111  1.00  0.00     0.157 C
HETATM   20  C11 UNL     1      25.923  12.004   3.433  1.00  0.00     0.078 C
HETATM   21  C12 UNL     1      24.241  13.760   3.191  1.00  0.00     0.078 C
HETATM   22  O2  UNL     1      26.134  13.809   1.821  1.00  0.00    -0.348 OA
ENDBRANCH  15  16
ENDBRANCH  14  15
ENDBRANCH   1  14
TORSDOF 4
ENDMDL