MODEL 2
REMARK VINA RESULT: -6.964395134      1.452      2.256
REMARK  1 active torsions:
REMARK  status: ('A' for Active; 'I' for Inactive)
REMARK    1  A    between atoms: N1_5  and  C4_6
ROOT
HETATM    1  C4  UNL     1      28.698  15.925   0.485  1.00  0.00     0.118 A
HETATM    2  N2  UNL     1      27.894  15.713   1.533  1.00  0.00    -0.338 N
ATOM      3  H2  UNL     1      28.218  15.998   2.457  1.00  0.00     0.168 HD
HETATM    4  C5  UNL     1      26.700  15.153   1.432  1.00  0.00     0.182 A
HETATM    5  N3  UNL     1      26.278  14.778   0.206  1.00  0.00    -0.346 N
ATOM      6  H3  UNL     1      25.364  14.343   0.090  1.00  0.00     0.167 HD
HETATM    7  C6  UNL     1      27.080  14.986  -0.877  1.00  0.00     0.089 A
HETATM    8  S1  UNL     1      26.868  14.653  -2.542  1.00  0.00    -0.075 SA
HETATM    9  C7  UNL     1      28.337  15.246  -3.123  1.00  0.00    -0.008 A
HETATM   10  C8  UNL     1      28.988  15.708  -1.973  1.00  0.00    -0.028 A
HETATM   11  C9  UNL     1      28.322  15.564  -0.814  1.00  0.00     0.049 A
HETATM   12  C10 UNL     1      30.309  16.297  -2.412  1.00  0.00     0.041 C
HETATM   13  C11 UNL     1      31.057  15.120  -3.051  1.00  0.00     0.005 C
HETATM   14  C12 UNL     1      30.438  14.916  -4.414  1.00  0.00     0.005 C
HETATM   15  C13 UNL     1      28.996  15.347  -4.464  1.00  0.00     0.047 C
ENDROOT
BRANCH   1  16
HETATM   16  N1  UNL     1      29.965  16.472   0.845  1.00  0.00    -0.364 N
HETATM   17  C3  UNL     1      30.001  17.893   0.619  1.00  0.00     0.127 C
HETATM   18  C2  UNL     1      31.139  18.585   1.312  1.00  0.00     0.059 C
HETATM   19  C1  UNL     1      32.459  18.443   0.651  1.00  0.00     0.195 C
HETATM   20  F1  UNL     1      33.440  18.367   1.634  1.00  0.00    -0.247 F
HETATM   21  C16 UNL     1      32.620  17.262  -0.241  1.00  0.00     0.204 C
HETATM   22  O1  UNL     1      32.914  16.091   0.457  1.00  0.00    -0.387 OA
HETATM   23  C15 UNL     1      31.933  15.120   0.282  1.00  0.00     0.187 C
HETATM   24  C14 UNL     1      30.844  15.444   1.315  1.00  0.00     0.150 C
ENDBRANCH   1  16
TORSDOF 1
ENDMDL