MODEL 3
REMARK VINA RESULT: -5.676523026      5.672      7.904
REMARK  1 active torsions:
REMARK  status: ('A' for Active; 'I' for Inactive)
REMARK    1  A    between atoms: C3_5  and  N1_6
ROOT
HETATM    1  O1  UNL     1      30.319  17.523   1.385  1.00  0.00    -0.290 OA
HETATM    2  C1  UNL     1      29.827  16.425   0.971  1.00  0.00     0.192 C
HETATM    3  C2  UNL     1      28.628  15.911   1.615  1.00  0.00     0.110 C
HETATM    4 CL1  UNL     1      28.452  16.110   3.373  1.00  0.00    -0.078 Cl
HETATM    5  C3  UNL     1      27.638  15.296   0.988  1.00  0.00     0.084 C
HETATM    6  C8  UNL     1      27.748  15.117  -0.455  1.00  0.00     0.097 C
HETATM    7  S1  UNL     1      26.386  15.034  -1.349  1.00  0.00    -0.070 SA
HETATM    8  S2  UNL     1      29.350  14.988  -1.253  1.00  0.00    -0.098 SA
HETATM    9  C9  UNL     1      30.544  15.767  -0.148  1.00  0.00     0.080 C
HETATM   10  C10 UNL     1      31.504  14.764   0.458  1.00  0.00     0.029 C
HETATM   11  C11 UNL     1      32.864  15.452   0.632  1.00  0.00     0.002 C
HETATM   12  C12 UNL     1      33.498  15.558  -0.733  1.00  0.00     0.000 C
HETATM   13  C13 UNL     1      32.434  16.008  -1.706  1.00  0.00     0.002 C
HETATM   14  C14 UNL     1      31.329  16.772  -0.970  1.00  0.00     0.029 C
ENDROOT
BRANCH   5  15
HETATM   15  N1  UNL     1      26.481  14.816   1.697  1.00  0.00    -0.374 N
HETATM   16  C4  UNL     1      26.512  13.578   2.434  1.00  0.00     0.149 C
HETATM   17  C5  UNL     1      25.502  13.516   3.537  1.00  0.00     0.187 C
HETATM   18  O2  UNL     1      24.264  14.017   3.217  1.00  0.00    -0.388 OA
HETATM   19  C6  UNL     1      24.152  14.490   1.922  1.00  0.00     0.187 C
HETATM   20  C7  UNL     1      25.224  15.540   1.712  1.00  0.00     0.149 C
ENDBRANCH   5  15
TORSDOF 1
ENDMDL