MODEL 1
REMARK VINA RESULT: -7.480855059      0.000      0.000
REMARK  1 active torsions:
REMARK  status: ('A' for Active; 'I' for Inactive)
REMARK    1  A    between atoms: C4_5  and  C5_6
ROOT
HETATM    1  C5  UNL     1      32.880  15.384  -1.475  1.00  0.00     0.383 C
HETATM    2  O1  UNL     1      32.545  16.666  -1.803  1.00  0.00    -0.195 OA
HETATM    3  O2  UNL     1      32.526  17.529  -0.879  1.00  0.00    -0.195 OA
HETATM    4  C6  UNL     1      32.381  17.137   0.406  1.00  0.00     0.229 C
HETATM    5  C7  UNL     1      33.434  17.796   1.251  1.00  0.00     0.074 C
HETATM    6  C8  UNL     1      33.124  19.206   1.633  1.00  0.00     0.006 C
HETATM    7  C9  UNL     1      31.767  19.220   2.331  1.00  0.00     0.000 C
HETATM    8  C10 UNL     1      30.767  18.884   1.215  1.00  0.00     0.006 C
HETATM    9  C11 UNL     1      30.976  17.449   0.866  1.00  0.00     0.074 C
HETATM   10  O3  UNL     1      32.553  15.757   0.615  1.00  0.00    -0.195 OA
HETATM   11  O4  UNL     1      32.083  15.037  -0.358  1.00  0.00    -0.195 OA
ENDROOT
BRANCH   1  12
HETATM   12  C4  UNL     1      32.718  14.457  -2.590  1.00  0.00     0.070 A
HETATM   13  C3  UNL     1      31.582  13.748  -2.830  1.00  0.00     0.032 A
HETATM   14  C2  UNL     1      31.475  12.883  -3.895  1.00  0.00     0.022 A
HETATM   15  C1  UNL     1      32.569  12.736  -4.750  1.00  0.00     0.026 A
HETATM   16 BR1  UNL     1      32.531  11.570  -6.252  1.00  0.00    -0.050 Br
HETATM   17  C12 UNL     1      33.698  13.452  -4.498  1.00  0.00     0.107 A
HETATM   18  N1  UNL     1      33.754  14.275  -3.455  1.00  0.00    -0.364 N
ATOM     19  H1  UNL     1      34.615  14.796  -3.294  1.00  0.00     0.165 HD
ENDBRANCH   1  12
TORSDOF 1
ENDMDL