MODEL 5
REMARK VINA RESULT: -6.397752341      2.784      6.434
REMARK  1 active torsions:
REMARK  status: ('A' for Active; 'I' for Inactive)
REMARK    1  A    between atoms: O1_2  and  C2_3
ROOT
HETATM    1  C2  UNL     1      31.114  13.781  -6.342  1.00  0.00     0.042 C
HETATM    2  C3  UNL     1      31.078  15.085  -6.190  1.00  0.00     0.008 C
HETATM    3  C4  UNL     1      30.456  15.616  -4.938  1.00  0.00     0.071 C
HETATM    4  C5  UNL     1      30.966  14.888  -3.714  1.00  0.00     0.100 C
HETATM    5  C6  UNL     1      31.188  13.445  -3.986  1.00  0.00     0.048 C
HETATM    6  C7  UNL     1      30.539  12.957  -5.265  1.00  0.00     0.067 C
HETATM    7  C8  UNL     1      29.948  15.118  -2.621  1.00  0.00     0.044 C
HETATM    8  C9  UNL     1      30.389  14.642  -1.281  1.00  0.00     0.047 C
HETATM    9  C10 UNL     1      31.254  15.613  -0.532  1.00  0.00     0.124 C
HETATM   10  C11 UNL     1      31.716  14.919   0.749  1.00  0.00     0.052 C
HETATM   11  O2  UNL     1      30.500  16.743  -0.114  1.00  0.00    -0.322 OA
HETATM   12  C12 UNL     1      31.192  17.808   0.473  1.00  0.00     0.162 C
HETATM   13 CL1  UNL     1      30.434  18.974   1.517  1.00  0.00    -0.055 Cl
HETATM   14  C13 UNL     1      32.497  17.959   0.236  1.00  0.00     0.188 C
HETATM   15  O3  UNL     1      33.135  17.053  -0.588  1.00  0.00    -0.317 OA
HETATM   16  C14 UNL     1      32.471  16.033  -1.293  1.00  0.00     0.229 C
HETATM   17  C15 UNL     1      33.399  14.847  -1.465  1.00  0.00     0.085 C
HETATM   18  O4  UNL     1      32.036  16.497  -2.556  1.00  0.00    -0.197 OA
HETATM   19  O5  UNL     1      32.188  15.514  -3.385  1.00  0.00    -0.226 OA
ENDROOT
BRANCH   1  20
HETATM   20  O1  UNL     1      31.655  13.174  -7.441  1.00  0.00    -0.361 OA
HETATM   21  C1  UNL     1      33.044  13.047  -7.670  1.00  0.00     0.209 C
ENDBRANCH   1  20
TORSDOF 1
ENDMDL