MODEL 4
REMARK VINA RESULT: -8.011524224      1.937      3.513
REMARK  2 active torsions:
REMARK  status: ('A' for Active; 'I' for Inactive)
REMARK    1  A    between atoms: C6_9  and  C7_10
REMARK    2  A    between atoms: C7_10  and  C8_11
ROOT
HETATM    1  C1  UNL     1      30.471  12.871  -4.641  1.00  0.00     0.025 C
HETATM    2  C2  UNL     1      30.817  13.837  -3.560  1.00  0.00     0.114 C
HETATM    3  C3  UNL     1      31.941  14.746  -3.951  1.00  0.00     0.273 C
HETATM    4  O1  UNL     1      32.481  14.528  -5.043  1.00  0.00    -0.264 OA
HETATM    5  O2  UNL     1      32.397  15.799  -3.160  1.00  0.00    -0.252 OA
HETATM    6  C4  UNL     1      31.986  16.218  -1.891  1.00  0.00     0.224 C
HETATM    7  C5  UNL     1      30.800  16.030  -1.370  1.00  0.00     0.152 C
HETATM    8  O3  UNL     1      30.841  16.606  -0.104  1.00  0.00    -0.315 OA
HETATM    9  C6  UNL     1      32.159  16.974   0.225  1.00  0.00     0.275 C
HETATM   10  O4  UNL     1      32.830  16.909  -1.010  1.00  0.00    -0.296 OA
HETATM   11  C13 UNL     1      29.542  15.378  -1.831  1.00  0.00     0.180 C
HETATM   12  F1  UNL     1      29.209  14.454  -0.836  1.00  0.00    -0.230 F
HETATM   13  C14 UNL     1      28.445  16.414  -1.836  1.00  0.00     0.056 C
HETATM   14  C15 UNL     1      27.236  15.758  -2.498  1.00  0.00     0.008 C
HETATM   15  C16 UNL     1      27.571  15.628  -3.948  1.00  0.00     0.027 C
HETATM   16  C17 UNL     1      28.806  14.815  -4.097  1.00  0.00    -0.019 C
HETATM   17  C18 UNL     1      29.695  14.705  -3.138  1.00  0.00    -0.024 C
ENDROOT
BRANCH   9  18
HETATM   18  C7  UNL     1      32.158  18.423   0.686  1.00  0.00     0.066 C
BRANCH  18  19
HETATM   19  C8  UNL     1      32.434  18.538   2.159  1.00  0.00    -0.010 C
HETATM   20  C9  UNL     1      33.596  19.483   2.343  1.00  0.00     0.005 C
HETATM   21  C10 UNL     1      33.010  20.680   3.085  1.00  0.00     0.000 C
HETATM   22  C11 UNL     1      31.934  20.005   3.924  1.00  0.00     0.000 C
HETATM   23  C12 UNL     1      31.258  19.132   2.889  1.00  0.00     0.005 C
ENDBRANCH  18  19
ENDBRANCH   9  18
TORSDOF 2
ENDMDL