MODEL 2
REMARK VINA RESULT: -7.358487372      2.692      3.436
REMARK  2 active torsions:
REMARK  status: ('A' for Active; 'I' for Inactive)
REMARK    1  A    between atoms: O1_2  and  C2_3
REMARK    2  A    between atoms: C2_3  and  C3_6
ROOT
HETATM    1  C3  UNL     1      31.350  15.882  -0.579  1.00  0.00     0.050 A
HETATM    2  C4  UNL     1      32.731  15.897  -0.525  1.00  0.00     0.018 A
HETATM    3  C5  UNL     1      33.463  15.226  -1.468  1.00  0.00     0.024 A
HETATM    4  C6  UNL     1      32.820  14.518  -2.499  1.00  0.00     0.053 A
HETATM    5  C7  UNL     1      33.603  13.847  -3.491  1.00  0.00     0.100 C
HETATM    6  N1  UNL     1      34.274  13.316  -4.303  1.00  0.00    -0.191 NA
HETATM    7  C8  UNL     1      31.449  14.490  -2.568  1.00  0.00    -0.005 A
HETATM    8  C9  UNL     1      30.721  15.186  -1.592  1.00  0.00    -0.029 A
HETATM    9  C10 UNL     1      29.249  15.029  -1.876  1.00  0.00     0.025 C
HETATM   10  C11 UNL     1      28.812  16.180  -2.702  1.00  0.00     0.046 C
HETATM   11  C12 UNL     1      28.144  15.830  -4.010  1.00  0.00     0.054 C
HETATM   12  C13 UNL     1      28.207  17.089  -4.880  1.00  0.00     0.045 C
HETATM   13  C14 UNL     1      26.653  15.585  -3.767  1.00  0.00     0.045 C
HETATM   14  O2  UNL     1      28.723  14.814  -4.712  1.00  0.00    -0.379 OA
HETATM   15  C15 UNL     1      30.087  14.741  -4.611  1.00  0.00     0.198 C
HETATM   16  C16 UNL     1      30.506  13.863  -3.461  1.00  0.00     0.100 C
HETATM   17  C17 UNL     1      30.903  12.528  -3.893  1.00  0.00     0.076 C
HETATM   18  N2  UNL     1      31.186  11.462  -4.233  1.00  0.00    -0.196 NA
HETATM   19  C18 UNL     1      29.258  13.715  -2.567  1.00  0.00     0.041 C
ENDROOT
BRANCH   1  20
HETATM   20  C2  UNL     1      30.579  16.625   0.474  1.00  0.00     0.384 C
HETATM   21  F1  UNL     1      29.602  17.419  -0.056  1.00  0.00    -0.170 F
HETATM   22  F2  UNL     1      30.022  15.745   1.370  1.00  0.00    -0.170 F
BRANCH  20  23
HETATM   23  O1  UNL     1      31.492  17.423   1.176  1.00  0.00    -0.327 OA
HETATM   24  C1  UNL     1      31.059  18.717   1.319  1.00  0.00     0.209 C
ENDBRANCH  20  23
ENDBRANCH   1  20
TORSDOF 2
ENDMDL