MODEL 3
REMARK VINA RESULT: -7.753082356     15.579     18.284
REMARK  12 active torsions:
REMARK  status: ('A' for Active; 'I' for Inactive)
REMARK    1  A    between atoms: C2_2  and  C3_3
REMARK    2  A    between atoms: C4_4  and  C5_5
REMARK    3  A    between atoms: C6_6  and  C7_7
REMARK    4  A    between atoms: C8_8  and  C9_9
REMARK    5  A    between atoms: C9_9  and  C10_10
REMARK    6  A    between atoms: C10_10  and  C11_11
REMARK    7  A    between atoms: C11_11  and  C12_12
REMARK    8  A    between atoms: C11_11  and  C13_20
REMARK    9  A    between atoms: C19_29  and  O2_30
REMARK   10  A    between atoms: O2_30  and  C20_31
REMARK   11  A    between atoms: C20_31  and  C23_34
REMARK   12  A    between atoms: C24_37  and  C25_38
ROOT
HETATM    1  C5  UNL     1      17.374  -6.286  26.377  1.00  0.00     0.050 A
HETATM    2  C6  UNL     1      18.627  -6.748  25.950  1.00  0.00     0.043 A
HETATM    3  C16 UNL     1      19.651  -6.971  26.801  1.00  0.00    -0.039 A
HETATM    4  C17 UNL     1      20.978  -7.472  26.327  1.00  0.00     0.050 C
HETATM    5  C18 UNL     1      19.415  -6.716  28.144  1.00  0.00     0.046 A
HETATM    6  C19 UNL     1      18.211  -6.257  28.601  1.00  0.00     0.083 A
HETATM    7  C24 UNL     1      17.136  -6.026  27.698  1.00  0.00     0.024 A
ENDROOT
BRANCH   2   8
HETATM    8  C7  UNL     1      18.867  -6.792  24.529  1.00  0.00    -0.065 C
HETATM    9  C8  UNL     1      18.984  -6.824  23.320  1.00  0.00    -0.101 C
BRANCH   9  10
HETATM   10  C9  UNL     1      19.028  -6.885  21.847  1.00  0.00     0.095 C
BRANCH  10  11
HETATM   11  C10 UNL     1      20.503  -6.916  21.461  1.00  0.00     0.031 C
BRANCH  11  12
HETATM   12  C11 UNL     1      21.049  -5.525  21.324  1.00  0.00     0.115 C
BRANCH  12  13
HETATM   13  C12 UNL     1      21.513  -5.302  19.896  1.00  0.00     0.120 A
HETATM   14  N1  UNL     1      21.716  -4.134  19.284  1.00  0.00    -0.270 N
HETATM   15  N2  UNL     1      22.108  -4.361  18.030  1.00  0.00    -0.005 NA
ATOM     16  H1  UNL     1      21.591  -3.214  19.707  1.00  0.00     0.185 HD
HETATM   17  N3  UNL     1      22.154  -5.694  17.846  1.00  0.00    -0.225 N
HETATM   18  N4  UNL     1      21.792  -6.230  18.988  1.00  0.00    -0.274 N
ATOM     19  H3  UNL     1      22.418  -6.187  16.992  1.00  0.00     0.205 HD
ATOM     20  H4  UNL     1      21.730  -7.234  19.157  1.00  0.00     0.189 HD
ENDBRANCH  12  13
BRANCH  12  21
HETATM   21  C13 UNL     1      22.311  -5.442  22.150  1.00  0.00     0.081 A
HETATM   22  C14 UNL     1      22.575  -6.137  23.336  1.00  0.00     0.123 A
HETATM   23  N5  UNL     1      23.803  -5.757  23.724  1.00  0.00    -0.354 N
HETATM   24  C15 UNL     1      24.295  -4.873  22.838  1.00  0.00     0.233 A
ATOM     25  H5  UNL     1      24.286  -6.087  24.559  1.00  0.00     0.166 HD
HETATM   26  O1  UNL     1      23.359  -4.729  21.923  1.00  0.00    -0.308 OA
ENDBRANCH  12  21
ENDBRANCH  11  12
ENDBRANCH  10  11
ENDBRANCH   9  10
ENDBRANCH   2   8
BRANCH   1  27
HETATM   27  C4  UNL     1      16.338  -6.121  25.366  1.00  0.00    -0.065 C
HETATM   28  C3  UNL     1      15.480  -6.031  24.497  1.00  0.00    -0.101 C
BRANCH  28  29
HETATM   29  C2  UNL     1      14.415  -5.946  23.464  1.00  0.00     0.090 C
HETATM   30  C1  UNL     1      15.093  -6.320  22.145  1.00  0.00     0.018 C
ENDBRANCH  28  29
ENDBRANCH   1  27
BRANCH   7  31
HETATM   31  C25 UNL     1      15.810  -5.592  28.217  1.00  0.00    -0.041 C
HETATM   32  C26 UNL     1      15.671  -4.338  28.887  1.00  0.00     0.045 C
HETATM   33  C27 UNL     1      14.673  -4.142  29.724  1.00  0.00     0.094 C
HETATM   34  F1  UNL     1      14.562  -2.953  30.347  1.00  0.00    -0.211 F
HETATM   35  C28 UNL     1      13.633  -5.151  30.005  1.00  0.00     0.070 C
HETATM   36  C29 UNL     1      13.599  -6.317  29.090  1.00  0.00     0.011 C
HETATM   37  C30 UNL     1      14.933  -6.728  28.583  1.00  0.00     0.040 C
ENDBRANCH   7  31
BRANCH   6  38
HETATM   38  O2  UNL     1      17.984  -6.019  29.893  1.00  0.00    -0.329 OA
BRANCH  38  39
HETATM   39  C20 UNL     1      17.834  -6.764  31.037  1.00  0.00     0.148 C
HETATM   40  C21 UNL     1      16.811  -6.052  31.980  1.00  0.00     0.058 C
HETATM   41  C22 UNL     1      17.265  -8.150  30.795  1.00  0.00     0.058 C
BRANCH  39  42
HETATM   42  C23 UNL     1      19.064  -6.894  31.881  1.00  0.00     0.209 C
HETATM   43  O3  UNL     1      19.305  -6.315  32.927  1.00  0.00    -0.646 OA
HETATM   44  O4  UNL     1      20.053  -7.797  31.414  1.00  0.00    -0.646 OA
ENDBRANCH  39  42
ENDBRANCH  38  39
ENDBRANCH   6  38
TORSDOF 12
ENDMDL