MODEL 3
REMARK VINA RESULT: -8.939298247      0.851      1.234
REMARK  8 active torsions:
REMARK  status: ('A' for Active; 'I' for Inactive)
REMARK    1  A    between atoms: C2_3  and  C3_4
REMARK    2  A    between atoms: C3_4  and  C4_5
REMARK    3  A    between atoms: C4_5  and  C5_6
REMARK    4  A    between atoms: N2_9  and  C8_10
REMARK    5  A    between atoms: C8_10  and  C9_11
REMARK    6  A    between atoms: N5_19  and  C13_21
REMARK    7  A    between atoms: C16_24  and  O1_25
REMARK    8  A    between atoms: N7_33  and  C20_34
ROOT
HETATM    1  N1  UNL     1      21.572  -6.171  20.638  1.00  0.00    -0.197 NA
HETATM    2  C1  UNL     1      21.821  -6.076  19.516  1.00  0.00     0.059 C
HETATM    3  C2  UNL     1      22.106  -5.965  18.091  1.00  0.00     0.124 C
ENDROOT
BRANCH   3   4
HETATM    4  C3  UNL     1      21.768  -4.516  17.723  1.00  0.00     0.014 C
BRANCH   4   5
HETATM    5  C4  UNL     1      21.770  -4.317  16.244  1.00  0.00     0.005 C
BRANCH   5   6
HETATM    6  C5  UNL     1      23.098  -3.753  15.842  1.00  0.00    -0.012 C
HETATM    7  C6  UNL     1      23.357  -3.950  14.360  1.00  0.00     0.024 C
HETATM    8  C7  UNL     1      24.556  -3.044  14.073  1.00  0.00     0.122 C
HETATM    9  N2  UNL     1      24.252  -1.710  14.238  1.00  0.00    -0.388 N
HETATM   10  C27 UNL     1      23.424  -1.328  15.335  1.00  0.00     0.122 C
HETATM   11  C28 UNL     1      23.405  -2.428  16.389  1.00  0.00     0.024 C
BRANCH   9  12
HETATM   12  C8  UNL     1      24.167  -0.765  13.198  1.00  0.00     0.121 C
BRANCH  12  13
HETATM   13  C9  UNL     1      23.797  -1.449  11.926  1.00  0.00     0.117 A
HETATM   14  N3  UNL     1      24.714  -2.090  11.189  1.00  0.00    -0.347 N
HETATM   15  C10 UNL     1      24.347  -2.818  10.164  1.00  0.00     0.094 A
ATOM     16  H3  UNL     1      25.702  -2.011  11.428  1.00  0.00     0.166 HD
HETATM   17  C11 UNL     1      25.255  -3.510   9.398  1.00  0.00     0.139 A
HETATM   18  C19 UNL     1      22.988  -2.931   9.820  1.00  0.00     0.154 A
HETATM   19  N4  UNL     1      24.899  -4.262   8.382  1.00  0.00    -0.199 N
HETATM   20  C12 UNL     1      23.543  -4.389   8.028  1.00  0.00     0.684 A
ATOM     21  H4  UNL     1      25.610  -4.759   7.845  1.00  0.00     0.183 HD
HETATM   22  N5  UNL     1      23.348  -5.145   7.066  1.00  0.00    -0.192 N
HETATM   23  N6  UNL     1      22.688  -3.688   8.797  1.00  0.00    -0.174 N
ATOM     24  H5  UNL     1      24.227  -5.512   6.700  1.00  0.00     0.184 HD
ATOM     25  H6  UNL     1      21.700  -3.755   8.555  1.00  0.00     0.186 HD
HETATM   26  N7  UNL     1      22.025  -2.283  10.569  1.00  0.00    -0.291 N
HETATM   27  C26 UNL     1      22.507  -1.576  11.581  1.00  0.00     0.277 A
HETATM   28  O2  UNL     1      21.677  -0.941  12.329  1.00  0.00    -0.265 OA
BRANCH  22  29
HETATM   29  C13 UNL     1      22.231  -5.645   6.328  1.00  0.00     0.051 A
HETATM   30  C14 UNL     1      22.207  -5.357   5.001  1.00  0.00     0.033 A
HETATM   31  C15 UNL     1      21.247  -6.005   4.142  1.00  0.00     0.040 A
HETATM   32  C16 UNL     1      20.394  -6.916   4.692  1.00  0.00     0.087 A
HETATM   33  C17 UNL     1      20.466  -7.191   6.099  1.00  0.00     0.069 A
HETATM   34 CL1  UNL     1      19.369  -8.387   6.720  1.00  0.00    -0.081 Cl
HETATM   35  C18 UNL     1      21.381  -6.541   6.878  1.00  0.00     0.056 A
BRANCH  32  36
HETATM   36  O1  UNL     1      19.486  -7.593   3.922  1.00  0.00    -0.359 OA
ATOM     37  H1  UNL     1      19.743  -8.001   3.103  1.00  0.00     0.217 HD
ENDBRANCH  32  36
ENDBRANCH  22  29
BRANCH  26  38
HETATM   38  C20 UNL     1      20.637  -2.280  10.266  1.00  0.00     0.095 C
HETATM   39  C21 UNL     1      20.076  -0.953   9.807  1.00  0.00     0.026 C
HETATM   40  C22 UNL     1      18.917  -0.451  10.594  1.00  0.00     0.002 C
HETATM   41  C23 UNL     1      17.855  -1.455  10.922  1.00  0.00     0.000 C
HETATM   42  C24 UNL     1      18.418  -2.838  11.151  1.00  0.00     0.002 C
HETATM   43  C25 UNL     1      19.862  -2.757  11.518  1.00  0.00     0.026 C
ENDBRANCH  26  38
ENDBRANCH  12  13
ENDBRANCH   9  12
ENDBRANCH   5   6
ENDBRANCH   4   5
ENDBRANCH   3   4
TORSDOF 8
ENDMDL