MODEL 3
REMARK VINA RESULT: -8.315737088      1.546      1.979
REMARK  11 active torsions:
REMARK  status: ('A' for Active; 'I' for Inactive)
REMARK    1  A    between atoms: S1_2  and  C2_3
REMARK    2  A    between atoms: C2_3  and  N1_5
REMARK    3  A    between atoms: N1_5  and  C3_7
REMARK    4  A    between atoms: C3_7  and  C4_8
REMARK    5  A    between atoms: C9_18  and  C10_19
REMARK    6  A    between atoms: C10_19  and  N4_20
REMARK    7  A    between atoms: N4_20  and  C11_23
REMARK    8  A    between atoms: C11_23  and  C12_24
REMARK    9  A    between atoms: C16_29  and  O2_30
REMARK   10  A    between atoms: O2_30  and  C17_31
REMARK   11  A    between atoms: C17_31  and  C18_33
ROOT
HETATM    1  C10 UNL     1      25.568  -4.373   9.310  1.00  0.00     0.240 C
ENDROOT
BRANCH   1   2
HETATM    2  C9  UNL     1      26.242  -3.063   9.495  1.00  0.00     0.048 A
HETATM    3  C3  UNL     1      25.856  -2.108  10.555  1.00  0.00     0.104 A
HETATM    4  C7  UNL     1      27.229  -2.318  11.223  1.00  0.00     0.041 A
HETATM    5  C8  UNL     1      27.629  -3.182  10.073  1.00  0.00     0.012 A
BRANCH   3   6
HETATM    6  N1  UNL     1      24.778  -2.490  11.414  1.00  0.00    -0.358 N
ATOM      7  H1  UNL     1      24.288  -3.335  11.120  1.00  0.00     0.162 HD
BRANCH   6   8
HETATM    8  C2  UNL     1      24.282  -1.920  12.573  1.00  0.00     0.135 C
HETATM    9  S2  UNL     1      24.598  -2.939  13.959  1.00  0.00    -0.053 SA
BRANCH   8  10
HETATM   10  S1  UNL     1      23.441  -0.478  12.995  1.00  0.00    -0.105 SA
HETATM   11  C1  UNL     1      24.183   1.084  13.135  1.00  0.00     0.098 C
ENDBRANCH   8  10
ENDBRANCH   6   8
ENDBRANCH   3   6
BRANCH   3  12
HETATM   12  C4  UNL     1      25.759  -0.687  10.137  1.00  0.00     0.177 A
HETATM   13  N2  UNL     1      26.639   0.317  10.178  1.00  0.00    -0.325 N
HETATM   14  C5  UNL     1      26.081   1.422   9.693  1.00  0.00     0.100 A
ATOM     15  H2  UNL     1      27.594   0.246  10.529  1.00  0.00     0.169 HD
HETATM   16  C6  UNL     1      26.641   2.812   9.589  1.00  0.00     0.091 C
HETATM   17  N3  UNL     1      24.813   1.086   9.331  1.00  0.00    -0.247 N
HETATM   18  O1  UNL     1      24.644  -0.149   9.599  1.00  0.00    -0.220 OA
ATOM     19  H3  UNL     1      24.120   1.712   8.919  1.00  0.00     0.196 HD
ENDBRANCH   3  12
ENDBRANCH   1   2
BRANCH   1  20
HETATM   20  N4  UNL     1      24.697  -4.565   8.227  1.00  0.00    -0.071 N
ATOM     21  H42 UNL     1      24.942  -3.949   7.452  1.00  0.00     0.277 HD
ATOM     22  H41 UNL     1      24.865  -5.468   7.785  1.00  0.00     0.277 HD
BRANCH  20  23
HETATM   23  C11 UNL     1      23.303  -4.417   8.577  1.00  0.00     0.270 C
BRANCH  23  24
HETATM   24  C12 UNL     1      22.319  -4.589   7.524  1.00  0.00    -0.029 A
HETATM   25  C13 UNL     1      21.445  -3.471   7.333  1.00  0.00     0.028 A
HETATM   26  C14 UNL     1      20.469  -3.439   6.381  1.00  0.00     0.014 A
HETATM   27 BR1  UNL     1      19.349  -1.925   6.173  1.00  0.00    -0.051 Br
HETATM   28  C15 UNL     1      20.330  -4.555   5.567  1.00  0.00     0.056 A
HETATM   29  C16 UNL     1      21.151  -5.661   5.715  1.00  0.00     0.081 A
HETATM   30  C22 UNL     1      22.114  -5.642   6.687  1.00  0.00     0.046 A
BRANCH  29  31
HETATM   31  O2  UNL     1      20.909  -6.719   4.825  1.00  0.00    -0.275 OA
BRANCH  31  32
HETATM   32  C17 UNL     1      19.788  -7.526   5.013  1.00  0.00     0.300 C
HETATM   33  O3  UNL     1      19.083  -7.773   3.991  1.00  0.00    -0.259 OA
BRANCH  32  34
HETATM   34  C18 UNL     1      19.405  -8.073   6.296  1.00  0.00     0.064 A
HETATM   35  C19 UNL     1      20.122  -9.042   7.006  1.00  0.00     0.044 A
HETATM   36  C20 UNL     1      19.419  -9.337   8.167  1.00  0.00     0.142 A
HETATM   37  O4  UNL     1      18.349  -8.591   8.164  1.00  0.00    -0.334 OA
HETATM   38  C21 UNL     1      18.303  -7.843   7.091  1.00  0.00     0.159 A
ENDBRANCH  32  34
ENDBRANCH  31  32
ENDBRANCH  29  31
ENDBRANCH  23  24
ENDBRANCH  20  23
ENDBRANCH   1  20
TORSDOF 11
ENDMDL