MODEL 4
REMARK VINA RESULT: -9.283339908      2.565     10.039
REMARK  9 active torsions:
REMARK  status: ('A' for Active; 'I' for Inactive)
REMARK    1  A    between atoms: C4_5  and  C5_6
REMARK    2  A    between atoms: C6_8  and  C7_9
REMARK    3  A    between atoms: C12_18  and  C13_19
REMARK    4  A    between atoms: C13_19  and  N3_20
REMARK    5  A    between atoms: N3_20  and  C14_22
REMARK    6  A    between atoms: N5_32  and  O1_34
REMARK    7  A    between atoms: O1_34  and  C22_35
REMARK    8  A    between atoms: C22_35  and  C23_36
REMARK    9  A    between atoms: C23_36  and  N6_37
ROOT
HETATM    1  N3  UNL     1      21.749  -1.204  12.315  1.00  0.00    -0.407 N
ATOM      2  H3  UNL     1      20.913  -0.780  12.717  1.00  0.00     0.154 HD
ENDROOT
BRANCH   1   3
HETATM    3  C13 UNL     1      22.881  -0.889  13.040  1.00  0.00     0.173 C
BRANCH   3   4
HETATM    4  C12 UNL     1      23.404  -2.054  13.959  1.00  0.00     0.045 A
HETATM    5  C5  UNL     1      24.009  -3.184  13.434  1.00  0.00     0.041 A
HETATM    6  S1  UNL     1      23.789  -4.265  14.708  1.00  0.00    -0.069 SA
HETATM    7  C6  UNL     1      22.963  -3.272  15.831  1.00  0.00     0.086 A
HETATM    8  N2  UNL     1      22.897  -2.128  15.156  1.00  0.00    -0.351 N
ATOM      9  H2  UNL     1      22.451  -1.312  15.575  1.00  0.00     0.166 HD
BRANCH   5  10
HETATM   10  C4  UNL     1      24.598  -3.344  12.102  1.00  0.00    -0.017 A
HETATM   11  C3  UNL     1      24.109  -4.155  11.150  1.00  0.00     0.016 A
HETATM   12  C2  UNL     1      24.663  -4.387   9.895  1.00  0.00     0.043 A
HETATM   13  C1  UNL     1      25.852  -3.684   9.600  1.00  0.00     0.116 A
HETATM   14  F1  UNL     1      26.458  -3.870   8.414  1.00  0.00    -0.206 F
HETATM   15  C30 UNL     1      26.364  -2.841  10.553  1.00  0.00     0.043 A
HETATM   16  C29 UNL     1      25.830  -2.653  11.758  1.00  0.00     0.016 A
ENDBRANCH   5  10
BRANCH   7  17
HETATM   17  C7  UNL     1      22.474  -3.654  17.172  1.00  0.00     0.013 A
HETATM   18  C8  UNL     1      22.273  -2.711  18.144  1.00  0.00     0.017 A
HETATM   19  C9  UNL     1      21.808  -3.089  19.450  1.00  0.00     0.018 A
HETATM   20  C10 UNL     1      21.587  -4.419  19.692  1.00  0.00     0.087 A
HETATM   21  N1  UNL     1      21.812  -5.338  18.704  1.00  0.00    -0.374 N
HETATM   22  C11 UNL     1      22.239  -4.944  17.484  1.00  0.00     0.101 A
ATOM     23  H1  UNL     1      21.656  -6.329  18.889  1.00  0.00     0.164 HD
ENDBRANCH   7  17
ENDBRANCH   3   4
ENDBRANCH   1   3
BRANCH   1  24
HETATM   24  C14 UNL     1      21.451  -1.955  11.169  1.00  0.00     0.115 C
HETATM   25  C15 UNL     1      19.935  -2.096  11.299  1.00  0.00     0.081 C
HETATM   26  N4  UNL     1      19.335  -3.080  10.504  1.00  0.00    -0.385 N
HETATM   27  C16 UNL     1      19.513  -2.979   9.071  1.00  0.00     0.075 A
ATOM     28  H4  UNL     1      18.793  -3.838  10.918  1.00  0.00     0.159 HD
HETATM   29  C17 UNL     1      18.605  -2.354   8.137  1.00  0.00     0.045 A
HETATM   30  C18 UNL     1      19.759  -1.540   8.568  1.00  0.00     0.032 A
HETATM   31  C21 UNL     1      20.826  -3.438   8.677  1.00  0.00     0.043 C
HETATM   32  C19 UNL     1      21.207  -1.996   8.671  1.00  0.00     0.045 C
HETATM   33  C20 UNL     1      21.848  -1.422   9.877  1.00  0.00     0.041 C
HETATM   34  N5  UNL     1      21.274  -4.561   8.269  1.00  0.00    -0.272 N
ATOM     35  H5  UNL     1      22.245  -4.744   8.015  1.00  0.00     0.193 HD
BRANCH  34  36
HETATM   36  O1  UNL     1      20.180  -5.561   8.218  1.00  0.00    -0.279 OA
BRANCH  36  37
HETATM   37  C22 UNL     1      20.114  -6.248   7.011  1.00  0.00     0.231 C
BRANCH  37  38
HETATM   38  C23 UNL     1      19.353  -5.460   5.943  1.00  0.00     0.301 C
BRANCH  38  39
HETATM   39  N6  UNL     1      20.199  -5.425   4.726  1.00  0.00     0.090 N
HETATM   40  C24 UNL     1      19.675  -6.379   3.751  1.00  0.00     0.272 C
HETATM   41  C25 UNL     1      20.763  -6.879   2.838  1.00  0.00     0.030 C
HETATM   42  C26 UNL     1      21.912  -5.863   2.736  1.00  0.00     0.003 C
HETATM   43  C27 UNL     1      22.517  -5.703   4.122  1.00  0.00     0.030 C
HETATM   44  C28 UNL     1      21.481  -6.017   5.151  1.00  0.00     0.272 C
ENDBRANCH  38  39
ENDBRANCH  37  38
ENDBRANCH  36  37
ENDBRANCH  34  36
ENDBRANCH   1  24
TORSDOF 9
ENDMDL