MODEL 3
REMARK VINA RESULT: -6.005118878      2.585      5.544
REMARK  13 active torsions:
REMARK  status: ('A' for Active; 'I' for Inactive)
REMARK    1  A    between atoms: C3_3  and  C4_4
REMARK    2  A    between atoms: C4_4  and  C5_5
REMARK    3  A    between atoms: C5_5  and  O2_7
REMARK    4  A    between atoms: C16_19  and  C17_20
REMARK    5  A    between atoms: C17_20  and  C18_22
REMARK    6  A    between atoms: C18_22  and  O4_25
REMARK    7  A    between atoms: C21_27  and  C22_28
REMARK    8  A    between atoms: C22_28  and  C23_29
REMARK    9  A    between atoms: C23_29  and  C25_31
REMARK   10  A    between atoms: C25_31  and  C26_32
REMARK   11  A    between atoms: C26_32  and  O5_33
REMARK   12  A    between atoms: C28_36  and  O6_37
REMARK   13  A    between atoms: O6_37  and  C29_38
ROOT
HETATM    1  C1  UNL     1      22.416  -0.198  11.720  1.00  0.00     0.020 C
HETATM    2  C2  UNL     1      22.623  -1.379  11.302  1.00  0.00    -0.027 C
HETATM    3  C3  UNL     1      23.609  -1.881  10.358  1.00  0.00     0.163 C
HETATM    4  O3  UNL     1      23.230  -3.114   9.856  1.00  0.00    -0.366 OA
HETATM    5  C7  UNL     1      21.945  -3.375   9.485  1.00  0.00     0.085 C
HETATM    6  C8  UNL     1      21.778  -4.910   9.321  1.00  0.00     0.051 C
HETATM    7  C9  UNL     1      21.890  -2.860   8.092  1.00  0.00     0.046 C
HETATM    8  C10 UNL     1      21.474  -1.456   7.867  1.00  0.00     0.030 C
HETATM    9  C11 UNL     1      20.496  -1.456   6.746  1.00  0.00    -0.024 C
HETATM   10  C12 UNL     1      19.219  -1.345   6.964  1.00  0.00    -0.087 C
HETATM   11  C13 UNL     1      18.289  -1.353   5.770  1.00  0.00     0.043 C
HETATM   12  C14 UNL     1      18.635  -1.217   8.302  1.00  0.00     0.038 C
HETATM   13  C15 UNL     1      17.903  -2.494   8.701  1.00  0.00     0.042 C
HETATM   14  C16 UNL     1      18.764  -3.497   9.368  1.00  0.00    -0.033 C
HETATM   15  C21 UNL     1      19.604  -2.982  10.489  1.00  0.00    -0.022 C
HETATM   16  C27 UNL     1      20.962  -2.961  10.481  1.00  0.00    -0.002 C
HETATM   17  C28 UNL     1      21.650  -2.496  11.750  1.00  0.00     0.195 C
ENDROOT
BRANCH  14  18
HETATM   18  C17 UNL     1      18.070  -4.783   9.556  1.00  0.00     0.233 C
HETATM   19  F1  UNL     1      16.674  -4.607   9.625  1.00  0.00    -0.241 F
BRANCH  18  20
HETATM   20  C18 UNL     1      18.224  -5.881   8.574  1.00  0.00     0.085 C
HETATM   21  C19 UNL     1      18.729  -7.192   9.046  1.00  0.00     0.049 C
HETATM   22  C20 UNL     1      18.839  -5.539   7.254  1.00  0.00     0.049 C
BRANCH  20  23
HETATM   23  O4  UNL     1      16.845  -6.203   8.203  1.00  0.00    -0.387 OA
ATOM     24  H4  UNL     1      16.947  -6.803   7.474  1.00  0.00     0.210 HD
ENDBRANCH  20  23
ENDBRANCH  18  20
ENDBRANCH  14  18
BRANCH  15  25
HETATM   25  C22 UNL     1      18.988  -2.294  11.658  1.00  0.00     0.018 C
BRANCH  25  26
HETATM   26  C23 UNL     1      17.771  -2.705  12.282  1.00  0.00    -0.063 C
HETATM   27  C24 UNL     1      16.540  -1.847  12.392  1.00  0.00     0.048 C
BRANCH  26  28
HETATM   28  C25 UNL     1      17.576  -3.871  12.852  1.00  0.00     0.005 C
BRANCH  28  29
HETATM   29  C26 UNL     1      17.668  -4.224  14.284  1.00  0.00     0.192 C
BRANCH  29  30
HETATM   30  O5  UNL     1      19.030  -4.165  14.643  1.00  0.00    -0.397 OA
ATOM     31  H5  UNL     1      19.075  -4.218  15.591  1.00  0.00     0.209 HD
ENDBRANCH  29  30
ENDBRANCH  28  29
ENDBRANCH  26  28
ENDBRANCH  25  26
ENDBRANCH  15  25
BRANCH  17  32
HETATM   32  O6  UNL     1      22.569  -3.511  12.204  1.00  0.00    -0.307 OA
BRANCH  32  33
HETATM   33  C29 UNL     1      22.831  -3.693  13.540  1.00  0.00     0.255 C
HETATM   34  C30 UNL     1      24.234  -3.658  14.089  1.00  0.00     0.126 C
HETATM   35  O7  UNL     1      21.930  -3.899  14.384  1.00  0.00    -0.266 OA
ENDBRANCH  32  33
ENDBRANCH  17  32
BRANCH   3  36
HETATM   36  C4  UNL     1      24.998  -2.034  10.886  1.00  0.00     0.147 C
BRANCH  36  37
HETATM   37  C5  UNL     1      26.085  -1.257  10.364  1.00  0.00     0.261 C
HETATM   38  O1  UNL     1      26.133  -0.032  10.146  1.00  0.00    -0.265 OA
BRANCH  37  39
HETATM   39  O2  UNL     1      27.265  -1.984  10.054  1.00  0.00    -0.326 OA
HETATM   40  C6  UNL     1      27.868  -2.763  11.066  1.00  0.00     0.213 C
ENDBRANCH  37  39
ENDBRANCH  36  37
ENDBRANCH   3  36
TORSDOF 13
ENDMDL