MODEL 4
REMARK VINA RESULT: -8.089771699      2.354      3.918
REMARK  8 active torsions:
REMARK  status: ('A' for Active; 'I' for Inactive)
REMARK    1  A    between atoms: C2_2  and  C3_3
REMARK    2  A    between atoms: C3_3  and  N1_4
REMARK    3  A    between atoms: C5_6  and  N2_7
REMARK    4  A    between atoms: N2_7  and  C6_9
REMARK    5  A    between atoms: C13_18  and  C14_19
REMARK    6  A    between atoms: N5_25  and  C17_26
REMARK    7  A    between atoms: C17_26  and  C18_27
REMARK    8  A    between atoms: C24_34  and  N6_35
ROOT
HETATM    1  C14 UNL     1      22.324  -2.489  12.579  1.00  0.00     0.153 A
HETATM    2  N4  UNL     1      21.203  -1.898  12.069  1.00  0.00    -0.332 N
ATOM      3  H4  UNL     1      20.658  -1.183  12.551  1.00  0.00     0.168 HD
HETATM    4  C15 UNL     1      20.914  -2.381  10.854  1.00  0.00     0.148 A
HETATM    5  C16 UNL     1      19.902  -2.113   9.948  1.00  0.00     0.292 A
HETATM    6  O1  UNL     1      19.039  -1.262  10.244  1.00  0.00    -0.265 OA
HETATM    7  N5  UNL     1      19.893  -2.800   8.759  1.00  0.00    -0.141 N
HETATM    8  C24 UNL     1      20.848  -3.698   8.522  1.00  0.00     0.687 A
HETATM    9  N7  UNL     1      21.854  -3.957   9.441  1.00  0.00    -0.174 N
ATOM     10  H7  UNL     1      22.571  -4.650   9.226  1.00  0.00     0.186 HD
HETATM   11  C29 UNL     1      21.891  -3.308  10.596  1.00  0.00     0.155 A
HETATM   12  N8  UNL     1      22.724  -3.338  11.670  1.00  0.00    -0.323 N
ATOM     13  H8  UNL     1      23.544  -3.938  11.755  1.00  0.00     0.169 HD
ENDROOT
BRANCH   1  14
HETATM   14  C13 UNL     1      22.841  -2.110  13.898  1.00  0.00     0.154 A
HETATM   15  N1  UNL     1      23.422  -0.973  14.288  1.00  0.00    -0.337 N
HETATM   16  C4  UNL     1      23.698  -1.082  15.629  1.00  0.00     0.140 A
HETATM   17  C5  UNL     1      23.281  -2.309  16.078  1.00  0.00     0.118 A
HETATM   18  N3  UNL     1      22.764  -2.913  15.006  1.00  0.00    -0.324 N
ATOM     19  H3  UNL     1      22.363  -3.851  15.010  1.00  0.00     0.169 HD
BRANCH  15  20
HETATM   20  C3  UNL     1      23.795   0.218  13.563  1.00  0.00     0.130 C
BRANCH  20  21
HETATM   21  C2  UNL     1      24.440  -0.021  12.238  1.00  0.00     0.016 C
HETATM   22  C1  UNL     1      25.138   1.108  11.592  1.00  0.00     0.006 C
ENDBRANCH  20  21
ENDBRANCH  15  20
BRANCH  17  23
HETATM   23  N2  UNL     1      23.379  -2.832  17.411  1.00  0.00    -0.370 N
ATOM     24  H2  UNL     1      24.298  -2.905  17.847  1.00  0.00     0.161 HD
BRANCH  23  25
HETATM   25  C6  UNL     1      22.223  -3.257  18.150  1.00  0.00     0.087 C
HETATM   26  C7  UNL     1      21.992  -4.741  17.989  1.00  0.00     0.030 C
HETATM   27  C8  UNL     1      21.887  -5.291  19.391  1.00  0.00    -0.012 C
HETATM   28  C9  UNL     1      23.268  -5.302  19.967  1.00  0.00     0.005 C
HETATM   29  C12 UNL     1      21.281  -4.077  20.114  1.00  0.00     0.011 C
HETATM   30  C10 UNL     1      23.590  -3.811  20.128  1.00  0.00     0.007 C
HETATM   31  C11 UNL     1      22.359  -3.084  19.640  1.00  0.00     0.009 C
ENDBRANCH  23  25
ENDBRANCH  17  23
ENDBRANCH   1  14
BRANCH   7  32
HETATM   32  C17 UNL     1      18.846  -2.522   7.821  1.00  0.00     0.189 C
BRANCH  32  33
HETATM   33  C18 UNL     1      18.956  -1.359   6.962  1.00  0.00    -0.039 A
HETATM   34  C19 UNL     1      17.944  -0.390   6.996  1.00  0.00     0.010 A
HETATM   35  C20 UNL     1      17.943   0.741   6.231  1.00  0.00     0.024 A
HETATM   36  C21 UNL     1      18.981   0.981   5.364  1.00  0.00     0.034 A
HETATM   37 CL1  UNL     1      18.990   2.430   4.378  1.00  0.00    -0.084 Cl
HETATM   38  C22 UNL     1      19.985   0.061   5.302  1.00  0.00     0.024 A
HETATM   39  C23 UNL     1      19.977  -1.099   6.092  1.00  0.00     0.010 A
ENDBRANCH  32  33
ENDBRANCH   7  32
BRANCH   8  40
HETATM   40  N6  UNL     1      20.897  -4.462   7.329  1.00  0.00    -0.217 N
HETATM   41  C25 UNL     1      21.802  -4.181   6.214  1.00  0.00     0.141 C
HETATM   42  C26 UNL     1      22.432  -5.568   6.051  1.00  0.00     0.022 C
HETATM   43  C27 UNL     1      21.216  -6.465   6.128  1.00  0.00     0.022 C
HETATM   44  C28 UNL     1      20.182  -5.644   6.908  1.00  0.00     0.141 C
ENDBRANCH   8  40
TORSDOF 8
ENDMDL