MODEL 3
REMARK VINA RESULT: -8.227023873      3.269      8.432
REMARK  9 active torsions:
REMARK  status: ('A' for Active; 'I' for Inactive)
REMARK    1  A    between atoms: C2_2  and  C3_3
REMARK    2  A    between atoms: C3_3  and  C4_4
REMARK    3  A    between atoms: C6_10  and  N3_11
REMARK    4  A    between atoms: C11_18  and  N5_19
REMARK    5  A    between atoms: N6_23  and  C13_24
REMARK    6  A    between atoms: C13_24  and  C14_25
REMARK    7  A    between atoms: C18_29  and  N7_30
REMARK    8  A    between atoms: N7_30  and  C20_32
REMARK    9  A    between atoms: C23_35  and  C24_37
ROOT
HETATM    1  C24 UNL     1      17.679  -2.505  12.104  1.00  0.00     0.167 C
HETATM    2  C25 UNL     1      17.687  -3.702  12.973  1.00  0.00     0.062 C
HETATM    3  N8  UNL     1      17.679  -4.627  13.670  1.00  0.00    -0.197 NA
ENDROOT
BRANCH   1   4
HETATM    4  C23 UNL     1      16.825  -2.786  10.889  1.00  0.00     0.115 C
HETATM    5  C22 UNL     1      17.195  -4.039  10.165  1.00  0.00     0.046 C
HETATM    6  C21 UNL     1      18.539  -3.911   9.450  1.00  0.00     0.028 C
HETATM    7  C20 UNL     1      18.394  -2.804   8.453  1.00  0.00     0.084 C
HETATM    8  C27 UNL     1      18.002  -1.495   9.127  1.00  0.00     0.028 C
HETATM    9  C26 UNL     1      16.769  -1.634   9.951  1.00  0.00     0.046 C
HETATM   10  F1  UNL     1      15.509  -2.992  11.348  1.00  0.00    -0.242 F
BRANCH   7  11
HETATM   11  N7  UNL     1      19.570  -2.596   7.710  1.00  0.00    -0.378 N
HETATM   12  C19 UNL     1      19.447  -2.015   6.347  1.00  0.00     0.150 C
BRANCH  11  13
HETATM   13  C18 UNL     1      20.897  -2.886   8.114  1.00  0.00     0.065 A
HETATM   14  C17 UNL     1      21.523  -3.990   7.516  1.00  0.00     0.101 A
HETATM   15  C16 UNL     1      22.822  -4.300   7.836  1.00  0.00    -0.020 A
HETATM   16  O1  UNL     1      21.068  -4.926   6.583  1.00  0.00    -0.348 OA
HETATM   17  C15 UNL     1      23.520  -3.540   8.737  1.00  0.00     0.023 A
HETATM   18  C30 UNL     1      23.199  -5.518   7.044  1.00  0.00     0.068 C
HETATM   19  C14 UNL     1      22.967  -2.458   9.348  1.00  0.00    -0.017 A
HETATM   20  C28 UNL     1      21.640  -2.176   8.995  1.00  0.00     0.045 A
HETATM   21  C29 UNL     1      21.849  -6.090   6.675  1.00  0.00     0.180 C
BRANCH  19  22
HETATM   22  C13 UNL     1      23.648  -1.610  10.276  1.00  0.00     0.110 C
BRANCH  22  23
HETATM   23  N6  UNL     1      24.286  -2.096  11.425  1.00  0.00    -0.304 N
HETATM   24  C4  UNL     1      25.613  -2.315  11.595  1.00  0.00     0.089 A
HETATM   25  N1  UNL     1      25.780  -2.827  12.814  1.00  0.00    -0.329 N
HETATM   26  C5  UNL     1      24.607  -2.949  13.445  1.00  0.00     0.153 A
ATOM     27  H1  UNL     1      26.681  -3.092  13.212  1.00  0.00     0.168 HD
HETATM   28  N2  UNL     1      24.242  -3.408  14.656  1.00  0.00    -0.174 N
HETATM   29  C12 UNL     1      23.642  -2.480  12.556  1.00  0.00     0.129 A
HETATM   30  C6  UNL     1      22.977  -3.449  15.087  1.00  0.00     0.683 A
ATOM     31  H2  UNL     1      24.973  -3.744  15.283  1.00  0.00     0.186 HD
HETATM   32  N4  UNL     1      22.043  -3.004  14.242  1.00  0.00    -0.175 N
HETATM   33  C11 UNL     1      22.337  -2.527  13.006  1.00  0.00     0.146 A
ATOM     34  H4  UNL     1      21.067  -3.022  14.539  1.00  0.00     0.186 HD
BRANCH  24  35
HETATM   35  C3  UNL     1      26.655  -2.048  10.629  1.00  0.00     0.076 C
BRANCH  35  36
HETATM   36  C2  UNL     1      27.838  -3.029  10.724  1.00  0.00     0.003 C
HETATM   37  C1  UNL     1      27.778  -3.899   9.493  1.00  0.00     0.005 C
ENDBRANCH  35  36
ENDBRANCH  24  35
BRANCH  30  38
HETATM   38  N3  UNL     1      22.640  -3.956  16.392  1.00  0.00    -0.217 N
HETATM   39  C7  UNL     1      22.676  -3.158  17.598  1.00  0.00     0.141 C
HETATM   40  C8  UNL     1      22.079  -3.999  18.676  1.00  0.00     0.022 C
HETATM   41  C9  UNL     1      22.004  -5.384  18.125  1.00  0.00     0.022 C
HETATM   42  C10 UNL     1      22.230  -5.298  16.647  1.00  0.00     0.141 C
ENDBRANCH  30  38
BRANCH  33  43
HETATM   43  N5  UNL     1      21.384  -2.126  12.232  1.00  0.00    -0.383 N
ATOM     44  H52 UNL     1      20.418  -2.359  12.464  1.00  0.00     0.157 HD
ATOM     45  H51 UNL     1      21.604  -1.572  11.404  1.00  0.00     0.157 HD
ENDBRANCH  33  43
ENDBRANCH  22  23
ENDBRANCH  19  22
ENDBRANCH  11  13
ENDBRANCH   7  11
ENDBRANCH   1   4
TORSDOF 9
ENDMDL