MODEL 3
REMARK VINA RESULT: -10.604354207      1.511      2.104
REMARK  9 active torsions:
REMARK  status: ('A' for Active; 'I' for Inactive)
REMARK    1  A    between atoms: C2_2  and  N1_5
REMARK       I    between atoms: N1_5  and  C5_7
REMARK       I    between atoms: C5_7  and  N2_9
REMARK    2  A    between atoms: N2_9  and  C6_11
REMARK    3  A    between atoms: C9_14  and  C10_15
REMARK    4  A    between atoms: C11_19  and  C12_20
REMARK       I    between atoms: N4_23  and  C15_24
REMARK    5  A    between atoms: C15_24  and  C16_26
REMARK    6  A    between atoms: C16_26  and  C17_27
REMARK    7  A    between atoms: C17_27  and  C18_28
REMARK    8  A    between atoms: C18_28  and  C19_29
REMARK    9  A    between atoms: C20_32  and  C21_33
ROOT
HETATM    1  C10 UNL     1      21.838  -5.522  20.803  1.00  0.00     0.137 A
HETATM    2  N3  UNL     1      22.275  -6.443  19.961  1.00  0.00    -0.242 N
ATOM      3  H3  UNL     1      22.518  -7.407  20.187  1.00  0.00     0.196 HD
HETATM    4  O2  UNL     1      22.337  -5.885  18.792  1.00  0.00    -0.222 OA
HETATM    5  C11 UNL     1      21.954  -4.626  18.848  1.00  0.00     0.152 A
HETATM    6  N7  UNL     1      21.633  -4.391  20.129  1.00  0.00    -0.322 N
ATOM      7  H7  UNL     1      21.295  -3.510  20.516  1.00  0.00     0.169 HD
ENDROOT
BRANCH   5   8
HETATM    8  C12 UNL     1      21.894  -3.664  17.695  1.00  0.00     0.066 C
HETATM    9  C13 UNL     1      21.169  -4.214  16.526  1.00  0.00     0.033 C
HETATM   10  C14 UNL     1      22.025  -4.458  15.322  1.00  0.00     0.127 C
HETATM   11  N4  UNL     1      22.922  -3.371  15.005  1.00  0.00    -0.349 N
HETATM   12  C15 UNL     1      23.423  -3.219  13.650  1.00  0.00     0.243 C
HETATM   13  C24 UNL     1      23.271  -2.436  16.041  1.00  0.00     0.127 C
HETATM   14  O3  UNL     1      22.976  -4.033  12.829  1.00  0.00    -0.268 OA
HETATM   15  C25 UNL     1      23.267  -3.145  17.371  1.00  0.00     0.033 C
BRANCH  12  16
HETATM   16  C16 UNL     1      24.370  -2.183  13.321  1.00  0.00     0.070 C
BRANCH  16  17
HETATM   17  C17 UNL     1      25.501  -2.412  12.436  1.00  0.00    -0.013 C
BRANCH  17  18
HETATM   18  C18 UNL     1      25.419  -2.442  10.979  1.00  0.00     0.114 C
BRANCH  18  19
HETATM   19  C19 UNL     1      24.954  -1.265  10.256  1.00  0.00     0.151 A
HETATM   20  N5  UNL     1      25.658  -0.073  10.217  1.00  0.00    -0.326 N
HETATM   21  C20 UNL     1      24.994   0.829   9.474  1.00  0.00     0.108 A
ATOM     22  H5  UNL     1      26.549   0.095  10.683  1.00  0.00     0.169 HD
HETATM   23  N6  UNL     1      23.895   0.196   9.058  1.00  0.00    -0.247 N
HETATM   24  O4  UNL     1      23.906  -1.032   9.541  1.00  0.00    -0.223 OA
ATOM     25  H6  UNL     1      23.167   0.595   8.465  1.00  0.00     0.196 HD
BRANCH  21  26
HETATM   26  C21 UNL     1      25.425   2.219   9.213  1.00  0.00     0.055 A
HETATM   27  C22 UNL     1      26.756   2.670   9.723  1.00  0.00     0.013 A
HETATM   28  C23 UNL     1      26.483   2.556   8.259  1.00  0.00     0.013 A
ENDBRANCH  21  26
ENDBRANCH  18  19
ENDBRANCH  17  18
ENDBRANCH  16  17
ENDBRANCH  12  16
ENDBRANCH   5   8
BRANCH   1  29
HETATM   29  C9  UNL     1      21.632  -5.693  22.257  1.00  0.00     0.011 A
HETATM   30  C8  UNL     1      22.655  -5.903  23.122  1.00  0.00     0.017 A
HETATM   31  C7  UNL     1      22.482  -6.089  24.489  1.00  0.00     0.032 A
HETATM   32  C6  UNL     1      21.207  -6.063  25.023  1.00  0.00     0.058 A
HETATM   33  C27 UNL     1      20.158  -5.844  24.119  1.00  0.00     0.061 A
HETATM   34  C26 UNL     1      20.357  -5.663  22.768  1.00  0.00     0.041 A
HETATM   35 CL1  UNL     1      18.509  -5.799  24.761  1.00  0.00    -0.082 Cl
BRANCH  32  36
HETATM   36  N2  UNL     1      20.921  -6.256  26.379  1.00  0.00    -0.307 N
HETATM   37  C5  UNL     1      20.316  -7.317  27.038  1.00  0.00     0.321 C
HETATM   38  N1  UNL     1      20.125  -7.277  28.470  1.00  0.00    -0.335 N
HETATM   39  O1  UNL     1      19.914  -8.342  26.470  1.00  0.00    -0.247 OA
ATOM     40  H1  UNL     1      20.427  -6.453  28.988  1.00  0.00     0.165 HD
ATOM     41  H2  UNL     1      21.204  -5.487  26.986  1.00  0.00     0.170 HD
BRANCH  38  42
HETATM   42  C2  UNL     1      19.516  -8.377  29.189  1.00  0.00     0.023 C
HETATM   43  C1  UNL     1      18.003  -8.255  29.182  1.00  0.00     0.037 C
HETATM   44  C3  UNL     1      19.901  -9.684  28.587  1.00  0.00     0.037 C
HETATM   45  C4  UNL     1      19.983  -8.279  30.643  1.00  0.00     0.037 C
ENDBRANCH  38  42
ENDBRANCH  32  36
ENDBRANCH   1  29
TORSDOF 9
ENDMDL