MODEL 1
REMARK VINA RESULT: -10.035872422      0.000      0.000
REMARK  8 active torsions:
REMARK  status: ('A' for Active; 'I' for Inactive)
REMARK    1  A    between atoms: C1_2  and  C2_4
REMARK    2  A    between atoms: N2_8  and  C6_9
REMARK    3  A    between atoms: C6_9  and  C7_10
REMARK    4  A    between atoms: N3_11  and  C8_13
REMARK    5  A    between atoms: C11_20  and  C12_21
REMARK    6  A    between atoms: C12_21  and  C13_23
REMARK    7  A    between atoms: C13_23  and  S1_24
REMARK    8  A    between atoms: S1_24  and  C14_25
ROOT
HETATM    1  C8  UNL     1      22.361  -2.974  16.462  1.00  0.00     0.048 A
HETATM    2  C9  UNL     1      22.111  -2.019  17.423  1.00  0.00     0.119 A
HETATM    3  N4  UNL     1      21.822  -2.350  18.692  1.00  0.00    -0.349 N
ATOM      4  H4  UNL     1      21.644  -1.606  19.368  1.00  0.00     0.167 HD
HETATM    5  C10 UNL     1      21.757  -3.645  19.106  1.00  0.00     0.116 A
HETATM    6  N5  UNL     1      21.494  -4.210  20.299  1.00  0.00    -0.339 N
ATOM      7  H5  UNL     1      21.282  -3.694  21.153  1.00  0.00     0.167 HD
HETATM    8  C11 UNL     1      21.552  -5.568  20.206  1.00  0.00     0.081 A
HETATM    9  C21 UNL     1      21.868  -5.817  18.879  1.00  0.00     0.048 A
HETATM   10  C22 UNL     1      22.000  -4.636  18.181  1.00  0.00     0.013 A
HETATM   11  C23 UNL     1      22.299  -4.286  16.868  1.00  0.00     0.046 A
ENDROOT
BRANCH   8  12
HETATM   12  C12 UNL     1      21.334  -6.524  21.278  1.00  0.00     0.185 C
HETATM   13  O2  UNL     1      20.337  -7.276  21.216  1.00  0.00    -0.290 OA
BRANCH  12  14
HETATM   14  C13 UNL     1      22.257  -6.614  22.414  1.00  0.00     0.166 C
BRANCH  14  15
HETATM   15  S1  UNL     1      21.781  -5.519  23.777  1.00  0.00    -0.097 SA
BRANCH  15  16
HETATM   16  C14 UNL     1      20.102  -5.980  24.265  1.00  0.00     0.113 A
HETATM   17  N6  UNL     1      18.976  -5.780  23.603  1.00  0.00    -0.344 N
HETATM   18  C15 UNL     1      17.842  -6.184  24.108  1.00  0.00     0.050 A
ATOM     19  H6  UNL     1      18.993  -5.311  22.697  1.00  0.00     0.167 HD
HETATM   20  C16 UNL     1      16.572  -6.036  23.508  1.00  0.00     0.032 A
HETATM   21  C20 UNL     1      17.882  -6.808  25.326  1.00  0.00     0.035 A
HETATM   22  C17 UNL     1      15.468  -6.503  24.140  1.00  0.00     0.026 A
HETATM   23  C18 UNL     1      15.488  -7.131  25.359  1.00  0.00     0.035 A
HETATM   24 CL1  UNL     1      14.014  -7.688  26.072  1.00  0.00    -0.084 Cl
HETATM   25  C19 UNL     1      16.718  -7.281  25.956  1.00  0.00     0.045 A
HETATM   26  S2  UNL     1      19.555  -6.777  25.674  1.00  0.00    -0.063 SA
ENDBRANCH  15  16
ENDBRANCH  14  15
ENDBRANCH  12  14
ENDBRANCH   8  12
BRANCH   1  27
HETATM   27  N3  UNL     1      22.669  -2.656  15.133  1.00  0.00    -0.367 N
HETATM   28  C7  UNL     1      23.287  -1.630  14.709  1.00  0.00     0.091 C
ATOM     29  H3  UNL     1      22.361  -3.322  14.425  1.00  0.00     0.165 HD
BRANCH  28  30
HETATM   30  C6  UNL     1      23.577  -1.357  13.287  1.00  0.00     0.317 C
BRANCH  30  31
HETATM   31  N2  UNL     1      23.791  -2.533  12.512  1.00  0.00     0.093 N
HETATM   32  C5  UNL     1      23.405  -2.473  11.143  1.00  0.00     0.273 C
HETATM   33  C4  UNL     1      23.659  -3.819  10.517  1.00  0.00     0.031 C
HETATM   34  C3  UNL     1      25.062  -4.035  10.076  1.00  0.00     0.015 C
HETATM   35  C2  UNL     1      25.990  -2.888  10.269  1.00  0.00     0.076 C
HETATM   36  C25 UNL     1      26.030  -2.380  11.686  1.00  0.00     0.044 C
HETATM   37  C24 UNL     1      25.108  -3.100  12.616  1.00  0.00     0.273 C
BRANCH  35  38
HETATM   38  C1  UNL     1      27.361  -3.308   9.892  1.00  0.00     0.235 C
HETATM   39  N1  UNL     1      28.400  -3.370  10.842  1.00  0.00    -0.062 NA
HETATM   40  O1  UNL     1      27.610  -3.616   8.702  1.00  0.00    -0.277 OA
ENDBRANCH  35  38
ENDBRANCH  30  31
ENDBRANCH  28  30
ENDBRANCH   1  27
TORSDOF 8
ENDMDL