MODEL 4
REMARK VINA RESULT: -4.553159355      1.920      3.041
REMARK  2 active torsions:
REMARK  status: ('A' for Active; 'I' for Inactive)
REMARK    1  A    between atoms: C2_2  and  C3_3
REMARK    2  A    between atoms: C3_3  and  C4_4
ROOT
HETATM    1  C4  UNL     1     -25.719 -22.940 -29.004  1.00  0.00     0.084 A
HETATM    2  N1  UNL     1     -24.434 -22.548 -28.988  1.00  0.00    -0.354 N
ATOM      3  H1  UNL     1     -24.117 -21.582 -28.907  1.00  0.00     0.166 HD
HETATM    4  C5  UNL     1     -23.623 -23.627 -29.097  1.00  0.00     0.106 A
HETATM    5  C6  UNL     1     -24.439 -24.737 -29.184  1.00  0.00     0.106 A
HETATM    6  N2  UNL     1     -25.715 -24.256 -29.121  1.00  0.00    -0.354 N
ATOM      7  H2  UNL     1     -26.553 -24.836 -29.160  1.00  0.00     0.166 HD
ENDROOT
BRANCH   1   8
HETATM    8  C3  UNL     1     -26.892 -22.029 -28.905  1.00  0.00     0.102 C
BRANCH   8   9
HETATM    9  C2  UNL     1     -27.698 -22.086 -30.148  1.00  0.00    -0.029 C
HETATM   10  C1  UNL     1     -27.199 -21.798 -31.341  1.00  0.00     0.007 C
ENDBRANCH   8   9
ENDBRANCH   1   8
TORSDOF 2
ENDMDL