MODEL 5
REMARK VINA RESULT: -4.517322028      2.086      3.440
REMARK  2 active torsions:
REMARK  status: ('A' for Active; 'I' for Inactive)
REMARK    1  A    between atoms: C2_2  and  C3_3
REMARK    2  A    between atoms: C3_3  and  N1_4
ROOT
HETATM    1  N1  UNL     1     -26.402 -23.103 -30.369  1.00  0.00     0.116 N
HETATM    2  C4  UNL     1     -27.522 -22.919 -31.263  1.00  0.00     0.301 C
HETATM    3  C5  UNL     1     -28.212 -24.285 -31.259  1.00  0.00     0.200 C
HETATM    4  O1  UNL     1     -27.102 -25.115 -30.977  1.00  0.00    -0.361 OA
HETATM    5  C6  UNL     1     -26.594 -24.439 -29.865  1.00  0.00     0.440 C
ENDROOT
BRANCH   1   6
HETATM    6  C3  UNL     1     -26.372 -22.112 -29.318  1.00  0.00     0.302 C
BRANCH   6   7
HETATM    7  C2  UNL     1     -25.233 -22.304 -28.397  1.00  0.00    -0.007 C
HETATM    8  C1  UNL     1     -23.986 -22.314 -28.825  1.00  0.00     0.008 C
ENDBRANCH   6   7
ENDBRANCH   1   6
TORSDOF 2
ENDMDL