MODEL 1
REMARK VINA RESULT: -4.818520950      0.000      0.000
REMARK  3 active torsions:
REMARK  status: ('A' for Active; 'I' for Inactive)
REMARK    1  A    between atoms: N1_1  and  C1_5
REMARK    2  A    between atoms: C1_5  and  C2_6
REMARK    3  A    between atoms: C2_6  and  C3_7
ROOT
HETATM    1  C2  UNL     1     -27.191 -21.985 -29.482  1.00  0.00     0.059 C
ENDROOT
BRANCH   1   2
HETATM    2  C1  UNL     1     -27.816 -21.917 -30.854  1.00  0.00     0.232 C
BRANCH   2   3
HETATM    3  N1  UNL     1     -27.080 -22.758 -31.772  1.00  0.00    -0.079 N
ATOM      4  H13 UNL     1     -26.081 -22.551 -31.763  1.00  0.00     0.274 HD
ATOM      5  H12 UNL     1     -27.035 -23.726 -31.453  1.00  0.00     0.274 HD
ATOM      6  H11 UNL     1     -27.479 -22.681 -32.708  1.00  0.00     0.274 HD
ENDBRANCH   2   3
ENDBRANCH   1   2
BRANCH   1   7
HETATM    7  C3  UNL     1     -25.966 -22.828 -29.433  1.00  0.00     0.123 C
HETATM    8  C4  UNL     1     -24.936 -22.314 -28.445  1.00  0.00     0.034 C
HETATM    9  C5  UNL     1     -23.964 -23.503 -28.486  1.00  0.00     0.029 C
HETATM   10  C6  UNL     1     -24.906 -24.633 -28.774  1.00  0.00     0.168 C
HETATM   11  O1  UNL     1     -26.160 -24.110 -28.989  1.00  0.00    -0.386 OA
ENDBRANCH   1   7
TORSDOF 3
ENDMDL