MODEL 5
REMARK VINA RESULT: -4.342052910      1.219      4.227
REMARK  2 active torsions:
REMARK  status: ('A' for Active; 'I' for Inactive)
REMARK    1  A    between atoms: C2_4  and  C3_5
REMARK    2  A    between atoms: C3_5  and  N2_6
ROOT
HETATM    1  N2  UNL     1     -27.059 -23.384 -30.051  1.00  0.00    -0.349 N
HETATM    2  C4  UNL     1     -28.035 -23.386 -30.967  1.00  0.00     0.108 A
HETATM    3  C5  UNL     1     -28.717 -22.196 -30.934  1.00  0.00     0.106 A
HETATM    4  N3  UNL     1     -28.118 -21.482 -29.966  1.00  0.00    -0.361 N
ATOM      5  H3  UNL     1     -28.384 -20.540 -29.681  1.00  0.00     0.166 HD
HETATM    6  C6  UNL     1     -27.116 -22.197 -29.431  1.00  0.00     0.182 A
ENDROOT
BRANCH   1   7
HETATM    7  C3  UNL     1     -26.102 -24.468 -29.767  1.00  0.00     0.159 C
BRANCH   7   8
HETATM    8  C2  UNL     1     -25.198 -24.088 -28.603  1.00  0.00     0.137 A
HETATM    9  C1  UNL     1     -23.775 -23.784 -28.910  1.00  0.00     0.083 A
HETATM   10  N1  UNL     1     -24.046 -24.904 -28.367  1.00  0.00    -0.390 N
ATOM     11  H1  UNL     1     -23.685 -25.788 -28.006  1.00  0.00     0.159 HD
ENDBRANCH   7   8
ENDBRANCH   1   7
TORSDOF 2
ENDMDL