MODEL 3
REMARK VINA RESULT: -5.241373578      2.128      3.759
REMARK  3 active torsions:
REMARK  status: ('A' for Active; 'I' for Inactive)
REMARK    1  A    between atoms: C3_3  and  C4_4
REMARK    2  A    between atoms: C4_4  and  C5_5
REMARK    3  A    between atoms: C5_5  and  N1_6
ROOT
HETATM    1  C1  UNL     1     -24.268 -24.611 -28.304  1.00  0.00     0.012 C
HETATM    2  C2  UNL     1     -24.703 -24.630 -29.435  1.00  0.00    -0.114 C
HETATM    3  C3  UNL     1     -25.215 -24.666 -30.819  1.00  0.00     0.133 C
ENDROOT
BRANCH   3   4
HETATM    4  C4  UNL     1     -26.598 -24.050 -30.808  1.00  0.00     0.096 C
HETATM    5  C6  UNL     1     -27.468 -24.378 -31.969  1.00  0.00     0.067 C
HETATM    6  C7  UNL     1     -28.507 -24.772 -30.916  1.00  0.00     0.172 C
HETATM    7  O1  UNL     1     -27.485 -24.719 -29.970  1.00  0.00    -0.377 OA
BRANCH   4   8
HETATM    8  C5  UNL     1     -26.501 -22.585 -30.433  1.00  0.00     0.268 C
BRANCH   8   9
HETATM    9  N1  UNL     1     -27.027 -21.733 -31.482  1.00  0.00    -0.076 N
ATOM     10  H13 UNL     1     -26.560 -21.906 -32.373  1.00  0.00     0.274 HD
ATOM     11  H12 UNL     1     -27.974 -22.005 -31.745  1.00  0.00     0.274 HD
ATOM     12  H11 UNL     1     -26.980 -20.747 -31.222  1.00  0.00     0.274 HD
ENDBRANCH   8   9
ENDBRANCH   4   8
ENDBRANCH   3   4
TORSDOF 3
ENDMDL