MODEL 4
REMARK VINA RESULT: -4.347506923      1.432      1.961
REMARK  3 active torsions:
REMARK  status: ('A' for Active; 'I' for Inactive)
REMARK    1  A    between atoms: N1_1  and  C1_5
REMARK    2  A    between atoms: C1_5  and  C2_6
REMARK    3  A    between atoms: C2_6  and  N2_7
ROOT
HETATM    1  C2  UNL     1     -26.628 -24.224 -30.220  1.00  0.00     0.300 C
ENDROOT
BRANCH   1   2
HETATM    2  C1  UNL     1     -26.187 -25.019 -31.428  1.00  0.00     0.259 C
BRANCH   2   3
HETATM    3  N1  UNL     1     -24.815 -25.483 -31.297  1.00  0.00    -0.078 N
ATOM      4  H13 UNL     1     -24.712 -26.439 -31.637  1.00  0.00     0.274 HD
ATOM      5  H12 UNL     1     -24.199 -25.010 -31.958  1.00  0.00     0.274 HD
ATOM      6  H11 UNL     1     -24.474 -25.390 -30.340  1.00  0.00     0.274 HD
ENDBRANCH   2   3
ENDBRANCH   1   2
BRANCH   1   7
HETATM    7  N2  UNL     1     -25.480 -23.669 -29.544  1.00  0.00     0.099 N
HETATM    8  C3  UNL     1     -25.633 -23.204 -28.204  1.00  0.00     0.227 C
HETATM    9  C4  UNL     1     -24.440 -22.314 -28.492  1.00  0.00     0.071 C
HETATM   10  C6  UNL     1     -26.469 -22.100 -28.708  1.00  0.00     0.071 C
HETATM   11  C5  UNL     1     -25.355 -22.228 -29.691  1.00  0.00     0.227 C
ENDBRANCH   1   7
TORSDOF 3
ENDMDL