MODEL 5
REMARK VINA RESULT: -5.122584403      2.266      2.581
REMARK  2 active torsions:
REMARK  status: ('A' for Active; 'I' for Inactive)
REMARK    1  A    between atoms: N1_1  and  N2_4
REMARK    2  A    between atoms: C1_6  and  C2_7
ROOT
HETATM    1  C2  UNL     1     -26.257 -23.770 -30.292  1.00  0.00    -0.004 A
HETATM    2  C3  UNL     1     -24.958 -24.209 -30.169  1.00  0.00     0.015 A
HETATM    3  C4  UNL     1     -24.063 -23.533 -29.350  1.00  0.00     0.018 A
HETATM    4  C5  UNL     1     -24.449 -22.412 -28.643  1.00  0.00     0.087 A
HETATM    5  N3  UNL     1     -25.728 -22.020 -28.794  1.00  0.00    -0.374 N
ATOM      6  H3  UNL     1     -26.041 -21.193 -28.284  1.00  0.00     0.164 HD
HETATM    7  C6  UNL     1     -26.617 -22.652 -29.578  1.00  0.00     0.100 A
ENDROOT
BRANCH   1   8
HETATM    8  C1  UNL     1     -27.194 -24.483 -31.152  1.00  0.00     0.119 C
HETATM    9  N2  UNL     1     -28.344 -24.882 -30.738  1.00  0.00    -0.318 N
ATOM     10  H2  UNL     1     -28.619 -24.695 -29.773  1.00  0.00     0.185 HD
BRANCH   9  11
HETATM   11  N1  UNL     1     -29.220 -25.559 -31.573  1.00  0.00    -0.345 N
ATOM     12  H12 UNL     1     -29.015 -25.580 -32.573  1.00  0.00     0.176 HD
ATOM     13  H11 UNL     1     -30.048 -26.028 -31.208  1.00  0.00     0.176 HD
ENDBRANCH   9  11
ENDBRANCH   1   8
TORSDOF 2
ENDMDL