MODEL 1
REMARK VINA RESULT: -4.836013407      0.000      0.000
REMARK  2 active torsions:
REMARK  status: ('A' for Active; 'I' for Inactive)
REMARK    1  A    between atoms: N1_3  and  C3_5
REMARK    2  A    between atoms: C3_5  and  C4_6
ROOT
HETATM    1  C1  UNL     1     -28.864 -24.817 -31.365  1.00  0.00     0.036 C
HETATM    2  C2  UNL     1     -27.779 -24.293 -31.492  1.00  0.00    -0.006 C
HETATM    3  N1  UNL     1     -26.549 -23.671 -31.643  1.00  0.00    -0.351 N
ATOM      4  H1  UNL     1     -26.511 -22.818 -32.199  1.00  0.00     0.169 HD
ENDROOT
BRANCH   3   5
HETATM    5  C3  UNL     1     -25.319 -24.154 -31.062  1.00  0.00     0.134 C
BRANCH   5   6
HETATM    6  C4  UNL     1     -25.254 -23.690 -29.647  1.00  0.00     0.004 C
HETATM    7  C5  UNL     1     -23.897 -23.317 -29.107  1.00  0.00     0.006 C
HETATM    8  C6  UNL     1     -24.633 -22.215 -28.328  1.00  0.00     0.001 C
HETATM    9  C7  UNL     1     -25.630 -22.211 -29.488  1.00  0.00     0.006 C
ENDBRANCH   5   6
ENDBRANCH   3   5
TORSDOF 2
ENDMDL