MODEL 1
REMARK VINA RESULT: -8.475541371      0.000      0.000
REMARK  9 active torsions:
REMARK  status: ('A' for Active; 'I' for Inactive)
REMARK    1  A    between atoms: O1_2  and  C2_3
REMARK    2  A    between atoms: C3_4  and  O2_5
REMARK    3  A    between atoms: C4_7  and  C5_8
REMARK    4  A    between atoms: N1_9  and  N2_11
REMARK       I    between atoms: N2_11  and  C6_13
REMARK    5  A    between atoms: C10_20  and  O4_21
REMARK    6  A    between atoms: O4_21  and  C11_22
REMARK    7  A    between atoms: C12_23  and  O5_24
REMARK    8  A    between atoms: C12_23  and  C13_26
REMARK    9  A    between atoms: C16_32  and  O8_33
ROOT
HETATM    1  C2  UNL     1     -16.838  -9.198  18.499  1.00  0.00     0.136 A
HETATM    2  C3  UNL     1     -15.757  -8.858  17.627  1.00  0.00     0.116 A
HETATM    3  C4  UNL     1     -15.369  -9.734  16.662  1.00  0.00     0.045 A
HETATM    4  C8  UNL     1     -16.017 -10.974  16.518  1.00  0.00     0.064 A
HETATM    5  N3  UNL     1     -15.688 -11.853  15.572  1.00  0.00    -0.361 N
ATOM      6  H3  UNL     1     -14.919 -11.640  14.936  1.00  0.00     0.165 HD
HETATM    7  C9  UNL     1     -16.353 -13.020  15.440  1.00  0.00     0.130 A
HETATM    8  C10 UNL     1     -17.408 -13.359  16.278  1.00  0.00     0.141 A
HETATM    9  C14 UNL     1     -17.780 -12.490  17.262  1.00  0.00     0.222 A
HETATM   10  O7  UNL     1     -18.721 -12.739  18.059  1.00  0.00    -0.284 OA
HETATM   11  C15 UNL     1     -17.077 -11.289  17.383  1.00  0.00     0.081 A
HETATM   12  C16 UNL     1     -17.461 -10.401  18.352  1.00  0.00     0.118 A
ENDROOT
BRANCH   3  13
HETATM   13  C5  UNL     1     -14.396  -9.386  15.642  1.00  0.00     0.123 C
HETATM   14  N1  UNL     1     -13.257  -9.037  15.973  1.00  0.00    -0.308 N
ATOM     15  H1  UNL     1     -13.172  -9.054  16.990  1.00  0.00     0.186 HD
BRANCH  14  16
HETATM   16  N2  UNL     1     -12.078  -8.636  15.417  1.00  0.00    -0.271 N
HETATM   17  C6  UNL     1     -12.047  -7.373  14.794  1.00  0.00     0.232 C
HETATM   18  C7  UNL     1     -10.823  -6.800  14.217  1.00  0.00     0.119 C
HETATM   19  O3  UNL     1     -13.095  -6.629  14.696  1.00  0.00    -0.272 OA
ATOM     20  H2  UNL     1     -11.249  -9.228  15.452  1.00  0.00     0.190 HD
ENDBRANCH  14  16
ENDBRANCH   3  13
BRANCH   2  21
HETATM   21  O2  UNL     1     -15.198  -7.645  17.866  1.00  0.00    -0.357 OA
ATOM     22  H2  UNL     1     -14.920  -7.177  17.087  1.00  0.00     0.217 HD
ENDBRANCH   2  21
BRANCH   1  23
HETATM   23  O1  UNL     1     -17.205  -8.287  19.446  1.00  0.00    -0.351 OA
HETATM   24  C1  UNL     1     -18.211  -7.363  19.335  1.00  0.00     0.210 C
ENDBRANCH   1  23
BRANCH  12  25
HETATM   25  O8  UNL     1     -18.527 -10.730  19.217  1.00  0.00    -0.357 OA
ATOM     26  H8  UNL     1     -18.415 -11.442  19.836  1.00  0.00     0.217 HD
ENDBRANCH  12  25
BRANCH   8  27
HETATM   27  O4  UNL     1     -18.053 -14.576  16.048  1.00  0.00    -0.314 OA
BRANCH  27  28
HETATM   28  C11 UNL     1     -17.457 -15.716  16.018  1.00  0.00     0.184 C
HETATM   29  C12 UNL     1     -17.584 -16.960  16.721  1.00  0.00     0.153 C
BRANCH  29  30
HETATM   30  O5  UNL     1     -16.942 -18.001  16.267  1.00  0.00    -0.355 OA
ATOM     31  H5  UNL     1     -17.315 -18.863  16.410  1.00  0.00     0.218 HD
ENDBRANCH  29  30
BRANCH  29  32
HETATM   32  C13 UNL     1     -18.376 -17.154  17.925  1.00  0.00     0.289 C
HETATM   33  N4  UNL     1     -18.494 -18.453  18.440  1.00  0.00    -0.055 NA
HETATM   34  O6  UNL     1     -18.915 -16.127  18.425  1.00  0.00    -0.269 OA
ENDBRANCH  29  32
ENDBRANCH  27  28
ENDBRANCH   8  27
TORSDOF 9
ENDMDL