MODEL 5
REMARK VINA RESULT: -7.363191122      4.336      8.407
REMARK  11 active torsions:
REMARK  status: ('A' for Active; 'I' for Inactive)
REMARK    1  A    between atoms: N1_2  and  C2_4
REMARK    2  A    between atoms: C3_7  and  N3_8
REMARK    3  A    between atoms: C7_20  and  S1_21
REMARK    4  A    between atoms: N7_25  and  C8_26
REMARK    5  A    between atoms: C8_26  and  O4_27
REMARK    6  A    between atoms: O4_27  and  C9_28
REMARK    7  A    between atoms: C9_28  and  C10_29
REMARK    8  A    between atoms: C10_29  and  O5_30
REMARK    9  A    between atoms: O5_30  and  C11_31
REMARK   10  A    between atoms: C11_31  and  C12_32
REMARK   11  A    between atoms: C12_32  and  O6_33
ROOT
HETATM    1  C2  UNL     1     -18.327 -16.893  17.545  1.00  0.00     0.133 A
HETATM    2  N2  UNL     1     -19.079 -17.798  18.184  1.00  0.00    -0.176 N
ATOM      3  H2  UNL     1     -18.793 -18.778  18.172  1.00  0.00     0.186 HD
HETATM    4  C3  UNL     1     -20.216 -17.446  18.849  1.00  0.00     0.679 A
HETATM    5  N4  UNL     1     -20.601 -16.164  18.872  1.00  0.00    -0.176 N
ATOM      6  H4  UNL     1     -21.453 -15.913  19.373  1.00  0.00     0.186 HD
HETATM    7  C4  UNL     1     -19.896 -15.191  18.251  1.00  0.00     0.139 A
HETATM    8  N5  UNL     1     -20.024 -13.862  18.103  1.00  0.00    -0.325 N
ATOM      9  H5  UNL     1     -20.788 -13.311  18.496  1.00  0.00     0.169 HD
HETATM   10  C5  UNL     1     -19.013 -13.348  17.366  1.00  0.00     0.141 A
HETATM   11  C6  UNL     1     -18.213 -14.431  17.044  1.00  0.00     0.097 A
HETATM   12  N6  UNL     1     -17.205 -13.918  16.310  1.00  0.00    -0.326 N
ATOM     13  H6  UNL     1     -16.439 -14.461  15.914  1.00  0.00     0.168 HD
HETATM   14  C7  UNL     1     -17.354 -12.587  16.174  1.00  0.00     0.231 A
HETATM   15  N7  UNL     1     -18.482 -12.232  16.833  1.00  0.00    -0.283 N
HETATM   16  C13 UNL     1     -18.746 -15.583  17.584  1.00  0.00     0.083 A
ENDROOT
BRANCH  15  17
HETATM   17  C8  UNL     1     -19.076 -10.927  16.985  1.00  0.00     0.302 C
BRANCH  17  18
HETATM   18  O4  UNL     1     -19.518 -10.657  18.242  1.00  0.00    -0.369 OA
BRANCH  18  19
HETATM   19  C9  UNL     1     -19.236  -9.384  18.711  1.00  0.00     0.196 C
BRANCH  19  20
HETATM   20  C10 UNL     1     -18.262  -9.341  19.846  1.00  0.00     0.193 C
BRANCH  20  21
HETATM   21  O5  UNL     1     -16.955  -9.169  19.469  1.00  0.00    -0.387 OA
BRANCH  21  22
HETATM   22  C11 UNL     1     -16.682  -7.977  18.827  1.00  0.00     0.193 C
BRANCH  22  23
HETATM   23  C12 UNL     1     -15.195  -7.766  18.621  1.00  0.00     0.190 C
BRANCH  23  24
HETATM   24  O6  UNL     1     -14.488  -8.961  18.744  1.00  0.00    -0.399 OA
ATOM     25  H6  UNL     1     -13.876  -8.929  19.469  1.00  0.00     0.209 HD
ENDBRANCH  23  24
ENDBRANCH  22  23
ENDBRANCH  21  22
ENDBRANCH  20  21
ENDBRANCH  19  20
ENDBRANCH  18  19
ENDBRANCH  17  18
ENDBRANCH  15  17
BRANCH  14  26
HETATM   26  S1  UNL     1     -16.311 -11.499  15.317  1.00  0.00     0.172 S
HETATM   27  O1  UNL     1     -15.206 -12.311  14.651  1.00  0.00    -0.589 OA
HETATM   28  O2  UNL     1     -17.004 -10.769  14.218  1.00  0.00    -0.589 OA
HETATM   29  O3  UNL     1     -15.533 -10.459  16.381  1.00  0.00    -0.589 OA
ENDBRANCH  14  26
BRANCH   1  30
HETATM   30  N1  UNL     1     -17.270 -17.283  16.936  1.00  0.00    -0.379 N
HETATM   31  C1  UNL     1     -16.413 -18.290  17.522  1.00  0.00     0.147 C
ATOM     32  H1  UNL     1     -17.031 -16.881  16.029  1.00  0.00     0.160 HD
ENDBRANCH   1  30
BRANCH   4  33
HETATM   33  N3  UNL     1     -20.880 -18.392  19.438  1.00  0.00    -0.234 N
ATOM     34  H32 UNL     1     -20.784 -19.376  19.187  1.00  0.00     0.174 HD
ATOM     35  H31 UNL     1     -21.522 -18.121  20.182  1.00  0.00     0.174 HD
ENDBRANCH   4  33
TORSDOF 11
ENDMDL