MODEL 4
REMARK VINA RESULT: -6.966330713      1.258      1.713
REMARK  9 active torsions:
REMARK  status: ('A' for Active; 'I' for Inactive)
REMARK    1  A    between atoms: N1_1  and  C1_4
REMARK    2  A    between atoms: C5_13  and  N4_14
REMARK    3  A    between atoms: C6_17  and  C7_18
REMARK    4  A    between atoms: C7_18  and  N5_19
REMARK    5  A    between atoms: N7_27  and  C12_28
REMARK    6  A    between atoms: C12_28  and  O5_29
REMARK    7  A    between atoms: O5_29  and  C13_30
REMARK    8  A    between atoms: C13_30  and  C14_31
REMARK    9  A    between atoms: C14_31  and  O6_32
ROOT
HETATM    1  C1  UNL     1     -11.859 -10.430  15.271  1.00  0.00     0.679 A
HETATM    2  N2  UNL     1     -11.731  -9.123  15.323  1.00  0.00    -0.154 N
ATOM      3  H2  UNL     1     -10.785  -8.741  15.302  1.00  0.00     0.187 HD
HETATM    4  C2  UNL     1     -12.734  -8.267  15.400  1.00  0.00     0.289 A
HETATM    5  O1  UNL     1     -12.485  -7.029  15.440  1.00  0.00    -0.265 OA
HETATM    6  C3  UNL     1     -14.020  -8.725  15.443  1.00  0.00     0.140 A
HETATM    7  C4  UNL     1     -14.186 -10.126  15.403  1.00  0.00     0.117 A
HETATM    8  N3  UNL     1     -13.112 -10.951  15.311  1.00  0.00    -0.187 N
ATOM      9  H3  UNL     1     -13.245 -11.961  15.273  1.00  0.00     0.184 HD
HETATM   10  C5  UNL     1     -15.526 -10.369  15.447  1.00  0.00     0.161 A
HETATM   11  C6  UNL     1     -16.121  -9.121  15.524  1.00  0.00     0.092 A
HETATM   12  N7  UNL     1     -15.271  -8.149  15.531  1.00  0.00    -0.292 N
ENDROOT
BRANCH  11  13
HETATM   13  C7  UNL     1     -17.626  -9.071  15.603  1.00  0.00     0.123 C
BRANCH  13  14
HETATM   14  N5  UNL     1     -18.210  -9.413  16.797  1.00  0.00    -0.358 N
HETATM   15  C8  UNL     1     -17.474  -8.957  17.962  1.00  0.00     0.147 C
HETATM   16  C9  UNL     1     -18.342  -8.995  19.209  1.00  0.00     0.143 C
HETATM   17  N6  UNL     1     -18.589 -10.435  19.432  1.00  0.00    -0.355 N
HETATM   18  C10 UNL     1     -18.930 -11.183  18.281  1.00  0.00     0.256 C
ATOM     19  H6  UNL     1     -18.517 -10.862  20.356  1.00  0.00     0.162 HD
HETATM   20  O4  UNL     1     -19.083 -12.423  18.335  1.00  0.00    -0.267 OA
HETATM   21  C11 UNL     1     -19.113 -10.463  16.992  1.00  0.00     0.164 C
ENDBRANCH  13  14
ENDBRANCH  11  13
BRANCH  10  22
HETATM   22  N4  UNL     1     -16.125 -11.650  15.415  1.00  0.00    -0.111 N
HETATM   23  O2  UNL     1     -16.539 -12.152  14.329  1.00  0.00    -0.532 OA
HETATM   24  O3  UNL     1     -16.193 -12.493  16.479  1.00  0.00    -0.532 OA
ENDBRANCH  10  22
BRANCH  12  25
HETATM   25  C12 UNL     1     -15.462  -6.737  15.582  1.00  0.00     0.234 C
BRANCH  25  26
HETATM   26  O5  UNL     1     -15.721  -6.233  16.802  1.00  0.00    -0.344 OA
BRANCH  26  27
HETATM   27  C13 UNL     1     -14.751  -5.924  17.678  1.00  0.00     0.202 C
BRANCH  27  28
HETATM   28  C14 UNL     1     -14.989  -6.815  18.938  1.00  0.00     0.191 C
BRANCH  28  29
HETATM   29  O6  UNL     1     -14.174  -7.904  18.977  1.00  0.00    -0.399 OA
ATOM     30  H6  UNL     1     -13.537  -7.913  18.271  1.00  0.00     0.209 HD
ENDBRANCH  28  29
ENDBRANCH  27  28
ENDBRANCH  26  27
ENDBRANCH  25  26
ENDBRANCH  12  25
BRANCH   1  31
HETATM   31  N1  UNL     1     -10.832 -11.228  15.126  1.00  0.00    -0.234 N
ATOM     32  H12 UNL     1      -9.922 -10.950  15.492  1.00  0.00     0.174 HD
ATOM     33  H11 UNL     1     -10.915 -12.150  14.694  1.00  0.00     0.174 HD
ENDBRANCH   1  31
TORSDOF 9
ENDMDL