MODEL 1
REMARK VINA RESULT: -7.776613309      0.000      0.000
REMARK  9 active torsions:
REMARK  status: ('A' for Active; 'I' for Inactive)
REMARK    1  A    between atoms: C2_2  and  C3_3
REMARK    2  A    between atoms: C3_3  and  O1_5
REMARK    3  A    between atoms: O1_5  and  C5_6
REMARK    4  A    between atoms: C5_6  and  C6_8
REMARK    5  A    between atoms: C6_8  and  N1_9
REMARK    6  A    between atoms: C6_8  and  C11_19
REMARK       I    between atoms: N1_9  and  C7_11
REMARK    7  A    between atoms: C7_11  and  C8_13
REMARK    8  A    between atoms: C11_19  and  C12_21
REMARK    9  A    between atoms: C13_22  and  O6_23
ROOT
HETATM    1  C6  UNL     1     -15.549  -9.171  15.186  1.00  0.00     0.260 C
ENDROOT
BRANCH   1   2
HETATM    2  C5  UNL     1     -16.356  -7.898  15.142  1.00  0.00     0.290 C
HETATM    3  O2  UNL     1     -16.113  -7.066  14.231  1.00  0.00    -0.262 OA
BRANCH   2   4
HETATM    4  O1  UNL     1     -17.343  -7.590  16.032  1.00  0.00    -0.314 OA
BRANCH   4   5
HETATM    5  C3  UNL     1     -17.195  -6.752  17.151  1.00  0.00     0.127 C
HETATM    6  C4  UNL     1     -16.029  -5.825  17.099  1.00  0.00     0.040 C
BRANCH   5   7
HETATM    7  C2  UNL     1     -17.181  -7.499  18.466  1.00  0.00     0.027 C
HETATM    8  C1  UNL     1     -16.169  -6.798  19.367  1.00  0.00     0.007 C
ENDBRANCH   5   7
ENDBRANCH   4   5
ENDBRANCH   2   4
ENDBRANCH   1   2
BRANCH   1   9
HETATM    9  N1  UNL     1     -16.352 -10.180  15.890  1.00  0.00    -0.336 N
HETATM   10  C7  UNL     1     -16.253 -11.555  15.657  1.00  0.00     0.267 C
HETATM   11  O3  UNL     1     -15.452 -12.066  14.810  1.00  0.00    -0.266 OA
ATOM     12  H1  UNL     1     -17.022  -9.859  16.589  1.00  0.00     0.164 HD
BRANCH  10  13
HETATM   13  C8  UNL     1     -17.089 -12.486  16.399  1.00  0.00     0.101 C
HETATM   14  N2  UNL     1     -17.850 -12.216  17.401  1.00  0.00    -0.265 N
HETATM   15  O4  UNL     1     -18.490 -13.328  17.856  1.00  0.00    -0.280 OA
ATOM     16  H2  UNL     1     -17.959 -11.286  17.805  1.00  0.00     0.194 HD
HETATM   17  C9  UNL     1     -18.444 -14.345  16.872  1.00  0.00     0.207 C
HETATM   18  C10 UNL     1     -17.204 -13.961  16.118  1.00  0.00     0.093 C
ENDBRANCH  10  13
ENDBRANCH   1   9
BRANCH   1  19
HETATM   19  C11 UNL     1     -14.235  -9.001  15.813  1.00  0.00     0.201 C
HETATM   20  O5  UNL     1     -14.275  -8.759  17.080  1.00  0.00    -0.289 OA
BRANCH  19  21
HETATM   21  C12 UNL     1     -12.933  -9.065  15.226  1.00  0.00     0.131 A
HETATM   22  C13 UNL     1     -12.177 -10.228  15.320  1.00  0.00     0.163 A
HETATM   23  N3  UNL     1     -10.966 -10.360  14.761  1.00  0.00    -0.288 N
HETATM   24  C14 UNL     1     -10.433  -9.336  14.073  1.00  0.00     0.329 A
ATOM     25  H3  UNL     1     -10.450 -11.234  14.859  1.00  0.00     0.172 HD
HETATM   26  O7  UNL     1      -9.274  -9.463  13.538  1.00  0.00    -0.247 OA
HETATM   27  N4  UNL     1     -11.119  -8.206  13.956  1.00  0.00    -0.275 N
HETATM   28  C15 UNL     1     -12.354  -8.049  14.516  1.00  0.00     0.267 A
ATOM     29  H4  UNL     1     -10.711  -7.432  13.432  1.00  0.00     0.173 HD
HETATM   30  O8  UNL     1     -12.917  -6.959  14.348  1.00  0.00    -0.267 OA
BRANCH  22  31
HETATM   31  O6  UNL     1     -12.713 -11.289  16.027  1.00  0.00    -0.345 OA
ATOM     32  H6  UNL     1     -13.634 -11.482  15.905  1.00  0.00     0.219 HD
ENDBRANCH  22  31
ENDBRANCH  19  21
ENDBRANCH   1  19
TORSDOF 9
ENDMDL