MODEL 4
REMARK VINA RESULT: -7.472164995      1.467      1.986
REMARK  11 active torsions:
REMARK  status: ('A' for Active; 'I' for Inactive)
REMARK    1  A    between atoms: C8_11  and  O3_12
REMARK    2  A    between atoms: C8_11  and  C9_14
REMARK    3  A    between atoms: C9_14  and  O4_15
REMARK    4  A    between atoms: O4_15  and  C10_16
REMARK    5  A    between atoms: C10_16  and  C11_18
REMARK    6  A    between atoms: C11_18  and  N2_19
REMARK    7  A    between atoms: C11_18  and  N3_23
REMARK       I    between atoms: N3_23  and  C12_25
REMARK    8  A    between atoms: C12_25  and  C13_27
REMARK    9  A    between atoms: C13_27  and  N4_28
REMARK   10  A    between atoms: C13_27  and  C14_32
REMARK   11  A    between atoms: C14_32  and  C15_33
ROOT
HETATM    1  C1  UNL     1     -15.808  -7.325  14.592  1.00  0.00     0.016 C
HETATM    2  C2  UNL     1     -15.871  -8.416  15.104  1.00  0.00    -0.058 C
HETATM    3  C3  UNL     1     -15.950  -9.741  15.700  1.00  0.00     0.274 C
HETATM    4  C4  UNL     1     -14.653 -10.410  15.688  1.00  0.00     0.118 C
HETATM    5  N1  UNL     1     -13.632 -10.926  15.663  1.00  0.00    -0.193 NA
HETATM    6  O1  UNL     1     -16.896 -10.476  14.944  1.00  0.00    -0.314 OA
HETATM    7  C5  UNL     1     -18.107 -10.316  15.566  1.00  0.00     0.164 C
HETATM    8  C6  UNL     1     -19.054  -9.662  14.581  1.00  0.00     0.078 C
HETATM    9  C7  UNL     1     -18.739 -11.649  15.966  1.00  0.00     0.078 C
HETATM   10  O2  UNL     1     -17.938  -9.572  16.710  1.00  0.00    -0.313 OA
HETATM   11  C8  UNL     1     -16.612  -9.759  17.035  1.00  0.00     0.245 C
ENDROOT
BRANCH  11  12
HETATM   12  O3  UNL     1     -16.499 -11.062  17.546  1.00  0.00    -0.360 OA
ATOM     13  H3  UNL     1     -15.653 -11.130  17.971  1.00  0.00     0.213 HD
ENDBRANCH  11  12
BRANCH  11  14
HETATM   14  C9  UNL     1     -16.066  -8.830  18.039  1.00  0.00     0.253 C
BRANCH  14  15
HETATM   15  O4  UNL     1     -14.679  -8.593  17.931  1.00  0.00    -0.313 OA
BRANCH  15  16
HETATM   16  C10 UNL     1     -14.166  -7.317  18.054  1.00  0.00     0.309 C
HETATM   17  O5  UNL     1     -14.835  -6.480  18.703  1.00  0.00    -0.261 OA
BRANCH  16  18
HETATM   18  C11 UNL     1     -12.854  -6.921  17.439  1.00  0.00     0.384 C
BRANCH  18  19
HETATM   19  N2  UNL     1     -11.917  -6.782  18.564  1.00  0.00    -0.049 N
ATOM     20  H23 UNL     1     -11.180  -7.488  18.574  1.00  0.00     0.277 HD
ATOM     21  H22 UNL     1     -11.304  -5.970  18.489  1.00  0.00     0.277 HD
ATOM     22  H21 UNL     1     -12.495  -6.783  19.405  1.00  0.00     0.277 HD
ENDBRANCH  18  19
BRANCH  18  23
HETATM   23  N3  UNL     1     -12.355  -7.979  16.588  1.00  0.00    -0.324 N
HETATM   24  C12 UNL     1     -12.123  -7.743  15.206  1.00  0.00     0.250 C
HETATM   25  O6  UNL     1     -12.358  -6.600  14.726  1.00  0.00    -0.271 OA
ATOM     26  H3  UNL     1     -12.167  -8.901  16.983  1.00  0.00     0.165 HD
BRANCH  24  27
HETATM   27  C13 UNL     1     -11.618  -8.777  14.294  1.00  0.00     0.284 C
BRANCH  27  28
HETATM   28  N4  UNL     1     -10.638  -9.568  14.994  1.00  0.00    -0.066 N
ATOM     29  H43 UNL     1      -9.814  -9.027  15.256  1.00  0.00     0.275 HD
ATOM     30  H42 UNL     1     -10.942  -9.825  15.934  1.00  0.00     0.275 HD
ATOM     31  H41 UNL     1     -10.407 -10.380  14.423  1.00  0.00     0.275 HD
ENDBRANCH  27  28
BRANCH  27  32
HETATM   32  C14 UNL     1     -10.926  -8.147  13.105  1.00  0.00     0.155 C
BRANCH  32  33
HETATM   33  C15 UNL     1     -10.509  -9.196  12.159  1.00  0.00     0.175 C
HETATM   34  O7  UNL     1     -10.947  -9.101  10.967  1.00  0.00    -0.648 OA
HETATM   35  O8  UNL     1      -9.694 -10.258  12.453  1.00  0.00    -0.648 OA
ENDBRANCH  32  33
ENDBRANCH  27  32
ENDBRANCH  24  27
ENDBRANCH  18  23
ENDBRANCH  16  18
ENDBRANCH  15  16
ENDBRANCH  14  15
ENDBRANCH  11  14
TORSDOF 11
ENDMDL