MODEL 5
REMARK VINA RESULT: -7.342419325      5.349      9.190
REMARK  11 active torsions:
REMARK  status: ('A' for Active; 'I' for Inactive)
REMARK    1  A    between atoms: O1_2  and  C2_3
REMARK    2  A    between atoms: C2_3  and  C3_5
REMARK    3  A    between atoms: C3_5  and  O3_6
REMARK    4  A    between atoms: O3_6  and  N1_7
REMARK    5  A    between atoms: N1_7  and  C4_9
REMARK    6  A    between atoms: C4_9  and  C5_10
REMARK    7  A    between atoms: C4_9  and  C10_24
REMARK    8  A    between atoms: C5_10  and  O4_11
REMARK    9  A    between atoms: O4_11  and  C6_12
REMARK   10  A    between atoms: C6_12  and  C7_14
REMARK   11  A    between atoms: C8_15  and  O6_16
ROOT
HETATM    1  C4  UNL     1     -13.382  -7.968  15.727  1.00  0.00     0.073 C
ENDROOT
BRANCH   1   2
HETATM    2  N1  UNL     1     -12.815  -7.642  16.780  1.00  0.00    -0.267 N
ATOM      3  H1  UNL     1     -11.854  -7.983  16.753  1.00  0.00     0.194 HD
BRANCH   2   4
HETATM    4  O3  UNL     1     -13.007  -7.016  17.916  1.00  0.00    -0.270 OA
BRANCH   4   5
HETATM    5  C3  UNL     1     -14.180  -6.294  18.177  1.00  0.00     0.312 C
BRANCH   5   6
HETATM    6  C2  UNL     1     -15.199  -7.160  18.871  1.00  0.00     0.284 C
HETATM    7  O2  UNL     1     -16.159  -6.651  19.505  1.00  0.00    -0.263 OA
BRANCH   6   8
HETATM    8  O1  UNL     1     -15.117  -8.540  18.835  1.00  0.00    -0.325 OA
HETATM    9  C1  UNL     1     -16.245  -9.388  18.727  1.00  0.00     0.213 C
ENDBRANCH   6   8
ENDBRANCH   5   6
ENDBRANCH   4   5
ENDBRANCH   2   4
ENDBRANCH   1   2
BRANCH   1  10
HETATM   10  C5  UNL     1     -13.309  -6.955  14.607  1.00  0.00     0.239 C
BRANCH  10  11
HETATM   11  O4  UNL     1     -12.026  -6.462  14.392  1.00  0.00    -0.311 OA
BRANCH  11  12
HETATM   12  C6  UNL     1     -11.199  -6.817  13.352  1.00  0.00     0.303 C
HETATM   13  O5  UNL     1     -10.815  -5.940  12.553  1.00  0.00    -0.259 OA
BRANCH  12  14
HETATM   14  C7  UNL     1     -10.783  -8.208  13.194  1.00  0.00     0.160 A
HETATM   15  C8  UNL     1     -10.344  -9.082  14.154  1.00  0.00     0.177 A
HETATM   16  N2  UNL     1     -10.060 -10.275  13.595  1.00  0.00    -0.276 N
HETATM   17  N3  UNL     1     -10.314 -10.164  12.297  1.00  0.00    -0.264 N
ATOM     18  H2  UNL     1      -9.715 -11.105  14.078  1.00  0.00     0.189 HD
HETATM   19  C9  UNL     1     -10.758  -8.915  12.014  1.00  0.00     0.280 A
ATOM     20  H3  UNL     1     -10.192 -10.910  11.612  1.00  0.00     0.190 HD
HETATM   21  O7  UNL     1     -11.087  -8.486  10.864  1.00  0.00    -0.266 OA
BRANCH  15  22
HETATM   22  O6  UNL     1     -10.215  -8.784  15.486  1.00  0.00    -0.344 OA
ATOM     23  H6  UNL     1     -10.122  -9.426  16.180  1.00  0.00     0.219 HD
ENDBRANCH  15  22
ENDBRANCH  12  14
ENDBRANCH  11  12
ENDBRANCH  10  11
ENDBRANCH   1  10
BRANCH   1  24
HETATM   24  C10 UNL     1     -14.104  -9.218  15.562  1.00  0.00     0.074 A
HETATM   25  C11 UNL     1     -13.446 -10.441  15.666  1.00  0.00     0.112 A
HETATM   26  N4  UNL     1     -14.167 -11.560  15.522  1.00  0.00    -0.318 N
HETATM   27  C12 UNL     1     -15.487 -11.571  15.283  1.00  0.00     0.327 A
ATOM     28  H4  UNL     1     -13.685 -12.456  15.598  1.00  0.00     0.170 HD
HETATM   29  O8  UNL     1     -16.093 -12.670  15.160  1.00  0.00    -0.247 OA
HETATM   30  N5  UNL     1     -16.143 -10.418  15.178  1.00  0.00    -0.275 N
HETATM   31  C13 UNL     1     -15.458  -9.247  15.317  1.00  0.00     0.263 A
ATOM     32  H5  UNL     1     -17.147 -10.410  14.996  1.00  0.00     0.173 HD
HETATM   33  O9  UNL     1     -16.162  -8.194  15.200  1.00  0.00    -0.267 OA
ENDBRANCH   1  24
TORSDOF 11
ENDMDL