MODEL 3
REMARK VINA RESULT: -6.762597422      1.248      1.496
REMARK  12 active torsions:
REMARK  status: ('A' for Active; 'I' for Inactive)
REMARK    1  A    between atoms: O1_2  and  C2_3
REMARK    2  A    between atoms: C2_3  and  C3_5
REMARK    3  A    between atoms: C3_5  and  C4_6
REMARK    4  A    between atoms: C4_6  and  O4_8
REMARK    5  A    between atoms: O4_8  and  C5_9
REMARK    6  A    between atoms: C7_16  and  N1_17
REMARK    7  A    between atoms: N1_17  and  C8_19
REMARK    8  A    between atoms: C8_19  and  C9_20
REMARK    9  A    between atoms: C8_19  and  C10_25
REMARK   10  A    between atoms: C9_20  and  N2_21
REMARK   11  A    between atoms: C10_25  and  N4_29
REMARK   12  A    between atoms: N4_29  and  C11_31
ROOT
HETATM    1  N1  UNL     1     -13.072  -8.892  16.033  1.00  0.00    -0.381 N
ATOM      2  H1  UNL     1     -12.667  -8.720  16.953  1.00  0.00     0.156 HD
ENDROOT
BRANCH   1   3
HETATM    3  C7  UNL     1     -14.440  -9.338  15.858  1.00  0.00     0.271 C
HETATM    4  C5  UNL     1     -15.162  -9.237  17.159  1.00  0.00     0.206 C
HETATM    5  C6  UNL     1     -15.418  -7.770  17.545  1.00  0.00     0.229 C
HETATM    6  O5  UNL     1     -16.306  -7.175  16.684  1.00  0.00    -0.251 OA
HETATM    7  S1  UNL     1     -15.578  -7.143  15.173  1.00  0.00     0.404 S
HETATM    8  O6  UNL     1     -16.680  -6.824  14.180  1.00  0.00    -0.169 OA
HETATM    9  O7  UNL     1     -14.540  -6.071  15.117  1.00  0.00    -0.169 OA
HETATM   10  O8  UNL     1     -15.005  -8.649  14.816  1.00  0.00    -0.225 OA
BRANCH   4  11
HETATM   11  O4  UNL     1     -16.333  -9.955  17.308  1.00  0.00    -0.309 OA
BRANCH  11  12
HETATM   12  C4  UNL     1     -16.894 -10.862  16.449  1.00  0.00     0.268 C
HETATM   13  O3  UNL     1     -17.774 -10.405  15.693  1.00  0.00    -0.265 OA
BRANCH  12  14
HETATM   14  C3  UNL     1     -16.481 -12.305  16.413  1.00  0.00     0.222 C
BRANCH  14  15
HETATM   15  C2  UNL     1     -17.639 -13.192  16.704  1.00  0.00     0.267 C
HETATM   16  O2  UNL     1     -18.320 -13.046  17.744  1.00  0.00    -0.265 OA
BRANCH  15  17
HETATM   17  O1  UNL     1     -17.946 -14.192  15.788  1.00  0.00    -0.326 OA
HETATM   18  C1  UNL     1     -17.485 -15.513  15.975  1.00  0.00     0.213 C
ENDBRANCH  15  17
ENDBRANCH  14  15
ENDBRANCH  12  14
ENDBRANCH  11  12
ENDBRANCH   4  11
ENDBRANCH   1   3
BRANCH   1  19
HETATM   19  C8  UNL     1     -12.337  -8.709  14.833  1.00  0.00     0.171 C
BRANCH  19  20
HETATM   20  C9  UNL     1     -11.433  -9.904  14.485  1.00  0.00     0.262 C
BRANCH  20  21
HETATM   21  N2  UNL     1     -11.582 -10.944  15.491  1.00  0.00    -0.077 N
ATOM     22  H23 UNL     1     -10.735 -11.064  16.046  1.00  0.00     0.274 HD
ATOM     23  H22 UNL     1     -12.213 -10.665  16.242  1.00  0.00     0.274 HD
ATOM     24  H21 UNL     1     -11.876 -11.815  15.048  1.00  0.00     0.274 HD
ENDBRANCH  20  21
ENDBRANCH  19  20
BRANCH  19  25
HETATM   25  C10 UNL     1     -11.514  -7.498  14.981  1.00  0.00     0.095 C
HETATM   26  N3  UNL     1     -11.729  -6.683  15.932  1.00  0.00    -0.387 N
ATOM     27  H32 UNL     1     -12.478  -6.876  16.597  1.00  0.00     0.157 HD
ATOM     28  H31 UNL     1     -11.159  -5.843  16.034  1.00  0.00     0.157 HD
BRANCH  25  29
HETATM   29  N4  UNL     1     -10.482  -7.231  14.064  1.00  0.00    -0.374 N
ATOM     30  H4  UNL     1      -9.892  -7.996  13.741  1.00  0.00     0.161 HD
BRANCH  29  31
HETATM   31  C11 UNL     1     -10.243  -5.908  13.576  1.00  0.00     0.074 C
HETATM   32  C12 UNL     1      -8.874  -5.408  13.964  1.00  0.00     0.031 C
HETATM   33  C13 UNL     1     -10.326  -5.873  12.060  1.00  0.00     0.031 C
ENDBRANCH  29  31
ENDBRANCH  25  29
ENDBRANCH  19  25
ENDBRANCH   1  19
TORSDOF 12
ENDMDL