MODEL 1
REMARK VINA RESULT: -7.574847009      0.000      0.000
REMARK  8 active torsions:
REMARK  status: ('A' for Active; 'I' for Inactive)
REMARK    1  A    between atoms: C2_2  and  O1_3
REMARK    2  A    between atoms: O1_3  and  C3_4
REMARK    3  A    between atoms: C3_4  and  N1_5
REMARK    4  A    between atoms: C3_4  and  C9_19
REMARK       I    between atoms: N1_5  and  C4_7
REMARK    5  A    between atoms: C4_7  and  C5_9
REMARK    6  A    between atoms: C11_21  and  C12_22
REMARK    7  A    between atoms: C12_22  and  O4_24
REMARK    8  A    between atoms: C16_32  and  O7_33
ROOT
HETATM    1  C3  UNL     1     -16.536  -9.315  15.902  1.00  0.00     0.260 C
ENDROOT
BRANCH   1   2
HETATM    2  O1  UNL     1     -16.782  -8.927  14.623  1.00  0.00    -0.363 OA
BRANCH   2   3
HETATM    3  C2  UNL     1     -17.612  -7.804  14.620  1.00  0.00     0.166 C
HETATM    4  C1  UNL     1     -16.848  -6.545  14.264  1.00  0.00     0.033 C
ENDBRANCH   2   3
ENDBRANCH   1   2
BRANCH   1   5
HETATM    5  N1  UNL     1     -16.616 -10.786  15.996  1.00  0.00    -0.329 N
HETATM    6  C4  UNL     1     -17.537 -11.475  16.794  1.00  0.00     0.252 C
HETATM    7  O2  UNL     1     -18.357 -10.833  17.485  1.00  0.00    -0.271 OA
ATOM      8  H1  UNL     1     -15.958 -11.336  15.444  1.00  0.00     0.165 HD
BRANCH   6   9
HETATM    9  C5  UNL     1     -17.557 -12.948  16.836  1.00  0.00     0.302 C
HETATM   10  C6  UNL     1     -17.603 -13.458  15.413  1.00  0.00     0.275 C
HETATM   11  N2  UNL     1     -17.648 -14.884  15.347  1.00  0.00    -0.071 N
HETATM   12  C7  UNL     1     -17.805 -15.512  16.640  1.00  0.00     0.260 C
ATOM     13  H22 UNL     1     -18.376 -15.194  14.703  1.00  0.00     0.277 HD
ATOM     14  H21 UNL     1     -16.828 -15.250  14.863  1.00  0.00     0.277 HD
HETATM   15  C8  UNL     1     -18.952 -14.832  17.357  1.00  0.00     0.260 C
HETATM   16  N3  UNL     1     -18.626 -13.470  17.646  1.00  0.00    -0.059 N
ATOM     17  H32 UNL     1     -18.418 -13.353  18.637  1.00  0.00     0.278 HD
ATOM     18  H31 UNL     1     -19.454 -12.879  17.575  1.00  0.00     0.278 HD
ENDBRANCH   6   9
ENDBRANCH   1   5
BRANCH   1  19
HETATM   19  C9  UNL     1     -15.235  -8.963  16.485  1.00  0.00     0.030 C
HETATM   20  C10 UNL     1     -14.155  -8.824  15.578  1.00  0.00     0.038 C
HETATM   21  C11 UNL     1     -13.005  -8.088  15.738  1.00  0.00     0.108 C
HETATM   22  C14 UNL     1     -12.686  -7.281  16.817  1.00  0.00     0.264 C
HETATM   23  O5  UNL     1     -11.601  -6.695  16.752  1.00  0.00    -0.267 OA
HETATM   24  N4  UNL     1     -13.398  -7.034  17.955  1.00  0.00    -0.287 N
HETATM   25  C15 UNL     1     -14.453  -7.715  18.459  1.00  0.00     0.282 C
ATOM     26  H4  UNL     1     -13.094  -6.227  18.499  1.00  0.00     0.172 HD
HETATM   27  O6  UNL     1     -14.881  -7.407  19.595  1.00  0.00    -0.265 OA
HETATM   28  C16 UNL     1     -15.170  -8.780  17.840  1.00  0.00     0.145 C
BRANCH  21  29
HETATM   29  C12 UNL     1     -12.038  -8.176  14.655  1.00  0.00     0.298 C
HETATM   30  O3  UNL     1     -12.048  -7.355  13.704  1.00  0.00    -0.259 OA
BRANCH  29  31
HETATM   31  O4  UNL     1     -11.067  -9.166  14.626  1.00  0.00    -0.322 OA
HETATM   32  C13 UNL     1      -9.709  -8.892  14.318  1.00  0.00     0.213 C
ENDBRANCH  29  31
ENDBRANCH  21  29
BRANCH  28  33
HETATM   33  O7  UNL     1     -15.806  -9.638  18.653  1.00  0.00    -0.355 OA
ATOM     34  H7  UNL     1     -16.677  -9.425  18.966  1.00  0.00     0.218 HD
ENDBRANCH  28  33
ENDBRANCH   1  19
TORSDOF 8
ENDMDL