MODEL 5
REMARK VINA RESULT: -7.259430545      2.333      6.802
REMARK  12 active torsions:
REMARK  status: ('A' for Active; 'I' for Inactive)
REMARK    1  A    between atoms: O1_2  and  C2_3
REMARK       I    between atoms: C2_3  and  N1_5
REMARK    2  A    between atoms: N1_5  and  C3_7
REMARK    3  A    between atoms: C3_7  and  C4_8
REMARK    4  A    between atoms: C3_7  and  C6_11
REMARK    5  A    between atoms: C6_11  and  O4_12
REMARK    6  A    between atoms: C6_11  and  C7_14
REMARK    7  A    between atoms: C7_14  and  O5_15
REMARK    8  A    between atoms: C7_14  and  C8_17
REMARK    9  A    between atoms: C8_17  and  C11_20
REMARK   10  A    between atoms: C13_23  and  O7_24
REMARK   11  A    between atoms: C13_23  and  C14_26
REMARK   12  A    between atoms: C14_26  and  O8_27
ROOT
HETATM    1  C7  UNL     1     -14.475  -8.961  16.492  1.00  0.00     0.161 C
ENDROOT
BRANCH   1   2
HETATM    2  C6  UNL     1     -15.196 -10.082  15.928  1.00  0.00     0.177 C
BRANCH   2   3
HETATM    3  C3  UNL     1     -16.490 -10.580  16.434  1.00  0.00     0.187 C
BRANCH   3   4
HETATM    4  N1  UNL     1     -17.238 -10.750  15.159  1.00  0.00    -0.323 N
HETATM    5  C2  UNL     1     -17.357 -11.969  14.482  1.00  0.00     0.360 C
HETATM    6  O2  UNL     1     -16.783 -12.984  15.001  1.00  0.00    -0.239 OA
ATOM      7  H1  UNL     1     -17.691  -9.930  14.756  1.00  0.00     0.165 HD
BRANCH   5   8
HETATM    8  O1  UNL     1     -18.031 -12.172  13.315  1.00  0.00    -0.309 OA
HETATM    9  C1  UNL     1     -19.459 -12.146  13.207  1.00  0.00     0.215 C
ENDBRANCH   5   8
ENDBRANCH   3   4
BRANCH   3  10
HETATM   10  C4  UNL     1     -17.341  -9.737  17.249  1.00  0.00     0.148 C
HETATM   11  C5  UNL     1     -18.175  -8.590  16.825  1.00  0.00     0.093 C
HETATM   12  O3  UNL     1     -17.440  -9.927  18.460  1.00  0.00    -0.296 OA
ENDBRANCH   3  10
ENDBRANCH   2   3
BRANCH   2  13
HETATM   13  O4  UNL     1     -14.323 -11.210  16.027  1.00  0.00    -0.390 OA
ATOM     14  H4  UNL     1     -13.568 -10.879  16.499  1.00  0.00     0.210 HD
ENDBRANCH   2  13
ENDBRANCH   1   2
BRANCH   1  15
HETATM   15  O5  UNL     1     -13.399  -9.241  17.326  1.00  0.00    -0.392 OA
ATOM     16  H5  UNL     1     -13.526  -9.131  18.262  1.00  0.00     0.210 HD
ENDBRANCH   1  15
BRANCH   1  17
HETATM   17  C8  UNL     1     -14.239  -7.737  15.639  1.00  0.00     0.031 C
HETATM   18  C9  UNL     1     -13.989  -6.480  16.460  1.00  0.00     0.022 C
HETATM   19  C10 UNL     1     -15.333  -7.399  14.685  1.00  0.00     0.022 C
BRANCH  17  20
HETATM   20  C11 UNL     1     -12.966  -8.015  14.867  1.00  0.00     0.279 C
HETATM   21  O6  UNL     1     -11.852  -7.368  15.383  1.00  0.00    -0.356 OA
HETATM   22  C12 UNL     1     -10.858  -7.295  14.420  1.00  0.00     0.221 C
HETATM   23  C13 UNL     1     -10.537  -8.636  13.806  1.00  0.00     0.188 C
HETATM   24  C15 UNL     1     -11.395  -9.721  14.348  1.00  0.00     0.300 C
HETATM   25  O9  UNL     1     -10.940 -10.890  14.379  1.00  0.00    -0.262 OA
HETATM   26  O10 UNL     1     -12.667  -9.391  14.799  1.00  0.00    -0.286 OA
BRANCH  23  27
HETATM   27  O7  UNL     1      -9.173  -8.919  14.044  1.00  0.00    -0.376 OA
ATOM     28  H7  UNL     1      -8.899  -9.598  13.439  1.00  0.00     0.211 HD
ENDBRANCH  23  27
BRANCH  23  29
HETATM   29  C14 UNL     1     -10.710  -8.559  12.284  1.00  0.00     0.215 C
BRANCH  29  30
HETATM   30  O8  UNL     1     -10.612  -9.804  11.704  1.00  0.00    -0.397 OA
ATOM     31  H8  UNL     1     -11.217 -10.421  12.100  1.00  0.00     0.209 HD
ENDBRANCH  29  30
ENDBRANCH  23  29
ENDBRANCH  17  20
ENDBRANCH   1  17
TORSDOF 12
ENDMDL