MODEL 4
REMARK VINA RESULT: -7.033729622      2.628      3.647
REMARK  8 active torsions:
REMARK  status: ('A' for Active; 'I' for Inactive)
REMARK    1  A    between atoms: N1_2  and  C3_4
REMARK    2  A    between atoms: C4_5  and  C5_6
REMARK    3  A    between atoms: N2_11  and  O3_12
REMARK    4  A    between atoms: O3_12  and  C7_13
REMARK    5  A    between atoms: C7_13  and  O4_14
REMARK    6  A    between atoms: O4_14  and  C8_15
REMARK       I    between atoms: C8_15  and  N3_17
REMARK    7  A    between atoms: N3_17  and  S2_19
REMARK    8  A    between atoms: S2_19  and  N4_22
REMARK       I    between atoms: N4_22  and  C9_24
ROOT
HETATM    1  O4  UNL     1     -13.350  -6.944  17.780  1.00  0.00    -0.276 OA
ENDROOT
BRANCH   1   2
HETATM    2  C7  UNL     1     -14.609  -7.472  18.205  1.00  0.00     0.375 C
BRANCH   2   3
HETATM    3  O3  UNL     1     -15.570  -6.918  17.361  1.00  0.00    -0.274 OA
BRANCH   3   4
HETATM    4  N2  UNL     1     -16.481  -7.862  17.106  1.00  0.00    -0.150 NA
HETATM    5  C3  UNL     1     -16.340  -8.552  15.877  1.00  0.00     0.346 C
HETATM    6  C4  UNL     1     -16.856  -7.622  14.774  1.00  0.00     0.199 C
HETATM    7  S1  UNL     1     -18.373  -7.038  15.613  1.00  0.00    -0.133 SA
HETATM    8  C6  UNL     1     -17.832  -7.474  17.314  1.00  0.00     0.198 C
BRANCH   5   9
HETATM    9  N1  UNL     1     -17.112  -9.756  15.930  1.00  0.00     0.101 N
HETATM   10  C1  UNL     1     -16.534 -10.667  16.880  1.00  0.00     0.311 C
HETATM   11  C2  UNL     1     -17.333 -10.401  14.678  1.00  0.00     0.311 C
ENDBRANCH   5   9
BRANCH   6  12
HETATM   12  C5  UNL     1     -15.957  -6.468  14.620  1.00  0.00     0.190 C
HETATM   13  O1  UNL     1     -14.738  -6.618  14.323  1.00  0.00    -0.647 OA
HETATM   14  O2  UNL     1     -16.368  -5.146  14.787  1.00  0.00    -0.647 OA
ENDBRANCH   6  12
ENDBRANCH   3   4
ENDBRANCH   2   3
ENDBRANCH   1   2
BRANCH   1  15
HETATM   15  C8  UNL     1     -12.729  -7.447  16.643  1.00  0.00     0.377 C
HETATM   16  O5  UNL     1     -12.898  -8.638  16.341  1.00  0.00    -0.237 OA
HETATM   17  N3  UNL     1     -11.914  -6.578  15.859  1.00  0.00    -0.212 N
ATOM     18  H3  UNL     1     -11.786  -5.601  16.126  1.00  0.00     0.185 HD
BRANCH  17  19
HETATM   19  S2  UNL     1     -11.157  -7.214  14.459  1.00  0.00     0.329 S
HETATM   20  O6  UNL     1     -11.417  -6.299  13.280  1.00  0.00    -0.182 OA
HETATM   21  O7  UNL     1      -9.667  -7.284  14.667  1.00  0.00    -0.182 OA
BRANCH  19  22
HETATM   22  N4  UNL     1     -11.680  -8.805  14.071  1.00  0.00    -0.241 N
HETATM   23  C9  UNL     1     -10.759  -9.882  14.068  1.00  0.00     0.196 C
HETATM   24  N5  UNL     1     -10.871 -10.821  14.933  1.00  0.00    -0.373 N
HETATM   25  N6  UNL     1      -9.727  -9.896  13.098  1.00  0.00    -0.063 NA
ATOM     26  H52 UNL     1     -11.614 -10.810  15.632  1.00  0.00     0.158 HD
ATOM     27  H51 UNL     1     -10.208 -11.596  14.931  1.00  0.00     0.158 HD
ATOM     28  H4  UNL     1     -12.659  -8.974  13.840  1.00  0.00     0.183 HD
ENDBRANCH  19  22
ENDBRANCH  17  19
ENDBRANCH   1  15
TORSDOF 8
ENDMDL