MODEL 3
REMARK VINA RESULT: -5.102002084      1.614      2.417
REMARK  1 active torsions:
REMARK  status: ('A' for Active; 'I' for Inactive)
REMARK    1  A    between atoms: C4_4  and  C5_5
ROOT
HETATM    1  C5  UNL     1       4.891  15.695  38.890  1.00  0.00     0.178 C
HETATM    2  N1  UNL     1       5.571  14.818  39.781  1.00  0.00    -0.337 N
ATOM      3  H1  UNL     1       6.539  14.975  40.064  1.00  0.00     0.164 HD
HETATM    4  C6  UNL     1       4.832  13.738  40.238  1.00  0.00     0.299 C
HETATM    5  O1  UNL     1       5.362  12.629  40.607  1.00  0.00    -0.263 OA
HETATM    6  C7  UNL     1       3.404  13.939  40.276  1.00  0.00     0.278 C
HETATM    7  O2  UNL     1       2.514  13.317  40.944  1.00  0.00    -0.275 OA
HETATM    8  S1  UNL     1       3.114  15.300  39.145  1.00  0.00    -0.053 SA
ENDROOT
BRANCH   1   9
HETATM    9  C4  UNL     1       5.064  17.092  39.371  1.00  0.00     0.011 C
HETATM   10  C2  UNL     1       5.923  17.942  38.888  1.00  0.00    -0.089 C
HETATM   11  C1  UNL     1       6.025  19.311  39.430  1.00  0.00     0.042 C
HETATM   12  C3  UNL     1       6.820  17.545  37.779  1.00  0.00     0.042 C
ENDBRANCH   1   9
TORSDOF 1
ENDMDL