MODEL 2
REMARK VINA RESULT: -3.971364276      2.833      3.379
REMARK  3 active torsions:
REMARK  status: ('A' for Active; 'I' for Inactive)
REMARK    1  A    between atoms: O1_2  and  C2_3
REMARK    2  A    between atoms: C2_3  and  C3_5
REMARK    3  A    between atoms: C4_7  and  N1_8
ROOT
HETATM    1  C3  UNL     1       3.105  14.295  39.897  1.00  0.00     0.073 C
HETATM    2  S2  UNL     1       1.324  14.305  40.132  1.00  0.00    -0.047 SA
HETATM    3  C4  UNL     1       3.785  13.160  39.923  1.00  0.00     0.129 C
ENDROOT
BRANCH   1   4
HETATM    4  C2  UNL     1       3.783  15.559  39.679  1.00  0.00     0.154 C
HETATM    5  S1  UNL     1       3.027  16.798  38.925  1.00  0.00    -0.051 SA
BRANCH   4   6
HETATM    6  O1  UNL     1       5.087  15.792  40.087  1.00  0.00    -0.344 OA
HETATM    7  C1  UNL     1       5.949  16.619  39.315  1.00  0.00     0.211 C
ENDBRANCH   4   6
ENDBRANCH   1   4
BRANCH   3   8
HETATM    8  N1  UNL     1       5.194  13.139  39.738  1.00  0.00    -0.317 N
HETATM    9  N2  UNL     1       5.886  12.082  39.759  1.00  0.00    -0.345 N
ATOM     10  H22 UNL     1       5.391  11.205  39.919  1.00  0.00     0.176 HD
ATOM     11  H21 UNL     1       6.897  12.067  39.627  1.00  0.00     0.176 HD
ATOM     12  H1  UNL     1       5.673  14.026  39.579  1.00  0.00     0.185 HD
ENDBRANCH   3   8
TORSDOF 3
ENDMDL