MODEL 5
REMARK VINA RESULT: -3.476314955      2.203      4.873
REMARK  2 active torsions:
REMARK  status: ('A' for Active; 'I' for Inactive)
REMARK       I    between atoms: N1_2  and  C2_4
REMARK    1  A    between atoms: C2_4  and  C3_6
REMARK    2  A    between atoms: N2_10  and  O2_11
ROOT
HETATM    1  C3  UNL     1       3.892  14.815  39.138  1.00  0.00     0.127 C
HETATM    2  C4  UNL     1       3.478  13.950  40.305  1.00  0.00     0.046 C
HETATM    3  C5  UNL     1       2.853  12.658  39.883  1.00  0.00     0.035 C
HETATM    4  C6  UNL     1       4.582  13.718  41.324  1.00  0.00     0.035 C
HETATM    5  N2  UNL     1       2.594  14.978  40.760  1.00  0.00    -0.180 NA
HETATM    6  C7  UNL     1       2.590  15.505  39.391  1.00  0.00     0.046 C
HETATM    7  C8  UNL     1       1.496  14.968  38.530  1.00  0.00     0.035 C
HETATM    8  C9  UNL     1       2.610  17.002  39.423  1.00  0.00     0.035 C
ENDROOT
BRANCH   1   9
HETATM    9  C2  UNL     1       5.115  15.581  39.312  1.00  0.00     0.229 C
HETATM   10  N1  UNL     1       5.387  16.791  38.618  1.00  0.00    -0.346 N
HETATM   11  C1  UNL     1       6.556  17.136  38.263  1.00  0.00     0.121 C
ATOM     12  H1  UNL     1       4.607  17.410  38.394  1.00  0.00     0.167 HD
HETATM   13  O1  UNL     1       5.998  15.178  40.112  1.00  0.00    -0.273 OA
ENDBRANCH   1   9
BRANCH   5  14
HETATM   14  O2  UNL     1       1.365  14.561  41.146  1.00  0.00    -0.311 OA
ATOM     15  H2  UNL     1       1.354  13.849  41.775  1.00  0.00     0.237 HD
ENDBRANCH   5  14
TORSDOF 2
ENDMDL