MODEL 2
REMARK VINA RESULT: -5.778906316      0.903      1.499
REMARK  3 active torsions:
REMARK  status: ('A' for Active; 'I' for Inactive)
REMARK    1  A    between atoms: C2_2  and  C3_3
REMARK    2  A    between atoms: C2_2  and  O3_13
REMARK    3  A    between atoms: C4_4  and  C5_5
ROOT
HETATM    1  C5  UNL     1       5.591  18.007  38.698  1.00  0.00     0.181 C
HETATM    2  C6  UNL     1       6.355  18.812  39.736  1.00  0.00     0.050 C
HETATM    3  C7  UNL     1       6.138  18.083  37.342  1.00  0.00     0.254 C
HETATM    4  O1  UNL     1       6.949  17.435  36.644  1.00  0.00    -0.271 OA
HETATM    5  N1  UNL     1       5.347  19.256  37.100  1.00  0.00    -0.294 N
ATOM      6  H1  UNL     1       5.382  20.050  36.461  1.00  0.00     0.171 HD
HETATM    7  C8  UNL     1       4.496  18.819  38.144  1.00  0.00     0.254 C
HETATM    8  O2  UNL     1       3.309  19.044  38.448  1.00  0.00    -0.271 OA
ENDROOT
BRANCH   1   9
HETATM    9  C4  UNL     1       5.237  16.663  39.126  1.00  0.00    -0.070 C
HETATM   10  C3  UNL     1       4.928  15.550  39.483  1.00  0.00    -0.041 C
BRANCH  10  11
HETATM   11  C2  UNL     1       4.542  14.237  39.910  1.00  0.00     0.112 C
HETATM   12  C1  UNL     1       3.296  13.867  39.966  1.00  0.00     0.061 C
BRANCH  11  13
HETATM   13  O3  UNL     1       5.549  13.363  40.265  1.00  0.00    -0.348 OA
HETATM   14  C9  UNL     1       5.632  12.772  41.561  1.00  0.00     0.211 C
ENDBRANCH  11  13
ENDBRANCH  10  11
ENDBRANCH   1   9
TORSDOF 3
ENDMDL