MODEL 5
REMARK VINA RESULT: -5.295568594      2.283      2.614
REMARK  4 active torsions:
REMARK  status: ('A' for Active; 'I' for Inactive)
REMARK    1  A    between atoms: C4_7  and  C5_8
REMARK    2  A    between atoms: C5_8  and  C6_9
REMARK    3  A    between atoms: C6_9  and  N2_10
REMARK    4  A    between atoms: N2_10  and  N3_11
ROOT
HETATM    1  C1  UNL     1       0.877  14.106  39.904  1.00  0.00     0.051 C
HETATM    2  C2  UNL     1       2.205  14.325  39.907  1.00  0.00     0.068 A
HETATM    3  N1  UNL     1       3.194  13.488  40.209  1.00  0.00    -0.317 N
ATOM      4  H1  UNL     1       2.995  12.527  40.489  1.00  0.00     0.169 HD
HETATM    5  C3  UNL     1       4.418  13.918  40.143  1.00  0.00     0.263 A
HETATM    6  O1  UNL     1       5.446  13.185  40.417  1.00  0.00    -0.267 OA
HETATM    7  C4  UNL     1       4.627  15.217  39.763  1.00  0.00     0.077 A
HETATM    8  S1  UNL     1       3.021  15.768  39.515  1.00  0.00    -0.068 SA
ENDROOT
BRANCH   7   9
HETATM    9  C5  UNL     1       5.769  15.881  39.622  1.00  0.00     0.058 C
BRANCH   9  10
HETATM   10  C6  UNL     1       5.711  17.210  39.041  1.00  0.00     0.210 C
BRANCH  10  11
HETATM   11  N2  UNL     1       6.313  17.406  37.957  1.00  0.00    -0.346 NA
BRANCH  11  12
HETATM   12  N3  UNL     1       6.634  17.594  36.788  1.00  0.00    -0.281 N
ATOM     13  H32 UNL     1       6.899  16.618  36.667  1.00  0.00     0.191 HD
ATOM     14  H31 UNL     1       6.832  17.977  35.864  1.00  0.00     0.191 HD
ENDBRANCH  11  12
ENDBRANCH  10  11
ENDBRANCH   9  10
ENDBRANCH   7   9
TORSDOF 4
ENDMDL