MODEL 4
REMARK VINA RESULT: -2.903961704      7.409      8.915
REMARK  1 active torsions:
REMARK  status: ('A' for Active; 'I' for Inactive)
REMARK    1  A    between atoms: C3_3  and  C4_4
ROOT
HETATM    1  C1  UNL     1       8.147  12.966  46.075  1.00  0.00     0.030 C
HETATM    2  C2  UNL     1       8.095  11.797  45.157  1.00  0.00     0.149 A
HETATM    3  C3  UNL     1       8.227  12.133  43.668  1.00  0.00     0.193 A
HETATM    4  N1  UNL     1       6.928  11.648  43.353  1.00  0.00    -0.198 NA
HETATM    5  C5  UNL     1       6.071  12.506  42.593  1.00  0.00     0.130 C
HETATM    6  S1  UNL     1       6.431  11.221  44.921  1.00  0.00     0.218 S
HETATM    7  O3  UNL     1       5.373  12.039  45.548  1.00  0.00    -0.211 OA
HETATM    8  O4  UNL     1       6.277   9.730  45.046  1.00  0.00    -0.211 OA
ENDROOT
BRANCH   3   9
HETATM    9  C4  UNL     1       9.271  11.309  43.017  1.00  0.00     0.193 C
HETATM   10  O1  UNL     1       9.303  11.250  41.771  1.00  0.00    -0.647 OA
HETATM   11  O2  UNL     1      10.210  10.607  43.745  1.00  0.00    -0.647 OA
ENDBRANCH   3   9
TORSDOF 1
ENDMDL