MODEL 4
REMARK VINA RESULT: -3.936190814      1.108      1.398
REMARK  3 active torsions:
REMARK  status: ('A' for Active; 'I' for Inactive)
REMARK    1  A    between atoms: C2_2  and  C3_4
REMARK    2  A    between atoms: C4_5  and  C5_6
REMARK       I    between atoms: C5_6  and  N1_8
REMARK    3  A    between atoms: C6_10  and  C8_12
ROOT
HETATM    1  C5  UNL     1       5.810  16.660  39.315  1.00  0.00     0.301 C
HETATM    2  O2  UNL     1       6.370  17.213  40.325  1.00  0.00    -0.258 OA
HETATM    3  N1  UNL     1       6.374  16.626  38.032  1.00  0.00    -0.314 N
ATOM      4  H1  UNL     1       6.929  15.813  37.760  1.00  0.00     0.169 HD
HETATM    5  C6  UNL     1       6.222  17.563  37.201  1.00  0.00     0.086 C
HETATM    6  C7  UNL     1       6.888  17.389  35.856  1.00  0.00     0.076 C
ENDROOT
BRANCH   1   7
HETATM    7  C4  UNL     1       4.511  16.019  39.474  1.00  0.00     0.003 C
HETATM    8  C3  UNL     1       3.441  15.474  39.592  1.00  0.00    -0.019 C
BRANCH   8   9
HETATM    9  C2  UNL     1       2.173  14.830  39.739  1.00  0.00     0.199 C
HETATM   10  C1  UNL     1       2.051  13.468  40.303  1.00  0.00     0.106 C
HETATM   11  O1  UNL     1       1.154  15.457  39.373  1.00  0.00    -0.284 OA
ENDBRANCH   8   9
ENDBRANCH   1   7
BRANCH   5  12
HETATM   12  C8  UNL     1       5.468  18.744  37.478  1.00  0.00     0.222 C
HETATM   13  O3  UNL     1       6.077  19.801  37.780  1.00  0.00    -0.643 OA
HETATM   14  O4  UNL     1       4.108  18.773  37.427  1.00  0.00    -0.643 OA
ENDBRANCH   5  12
TORSDOF 3
ENDMDL