MODEL 4
REMARK VINA RESULT: -2.944464312      2.090      2.689
REMARK  2 active torsions:
REMARK  status: ('A' for Active; 'I' for Inactive)
REMARK    1  A    between atoms: C3_3  and  C4_4
REMARK       I    between atoms: C4_4  and  N1_6
REMARK    2  A    between atoms: N1_6  and  N2_8
ROOT
HETATM    1  C1  UNL     1       4.721  19.226  37.297  1.00  0.00     0.015 C
HETATM    2  C2  UNL     1       4.756  18.378  38.549  1.00  0.00     0.058 C
HETATM    3  C3  UNL     1       4.184  16.999  38.306  1.00  0.00     0.289 C
HETATM    4  N3  UNL     1       5.220  16.451  39.100  1.00  0.00    -0.053 N
HETATM    5  C5  UNL     1       5.058  16.426  40.518  1.00  0.00     0.274 C
HETATM    6  C6  UNL     1       5.703  15.174  38.619  1.00  0.00     0.274 C
HETATM    7  C7  UNL     1       6.055  17.584  38.715  1.00  0.00     0.128 C
HETATM    8  C8  UNL     1       6.837  17.402  37.454  1.00  0.00     0.047 C
HETATM    9  C9  UNL     1       6.933  18.104  39.829  1.00  0.00     0.047 C
ENDROOT
BRANCH   3  10
HETATM   10  C4  UNL     1       2.794  16.798  38.746  1.00  0.00     0.267 C
HETATM   11  O1  UNL     1       2.038  17.747  39.067  1.00  0.00    -0.269 OA
HETATM   12  N1  UNL     1       2.274  15.488  38.816  1.00  0.00    -0.275 N
ATOM     13  H1  UNL     1       2.862  14.695  38.561  1.00  0.00     0.189 HD
BRANCH  12  14
HETATM   14  N2  UNL     1       0.965  15.273  39.229  1.00  0.00    -0.343 N
ATOM     15  H22 UNL     1       0.252  15.959  38.982  1.00  0.00     0.176 HD
ATOM     16  H21 UNL     1       0.725  14.442  39.771  1.00  0.00     0.176 HD
ENDBRANCH  12  14
ENDBRANCH   3  10
TORSDOF 2
ENDMDL