MODEL 2
REMARK VINA RESULT: -3.849378905      7.248      8.522
REMARK  3 active torsions:
REMARK  status: ('A' for Active; 'I' for Inactive)
REMARK    1  A    between atoms: C2_2  and  S1_3
REMARK    2  A    between atoms: S1_3  and  N1_6
REMARK    3  A    between atoms: C5_10  and  C6_11
ROOT
HETATM    1  N1  UNL     1      79.153  64.251  -8.519  1.00  0.00    -0.182 NA
HETATM    2  C3  UNL     1      80.570  63.949  -8.371  1.00  0.00     0.182 C
HETATM    3  S2  UNL     1      80.602  62.297  -9.194  1.00  0.00    -0.151 SA
HETATM    4  C4  UNL     1      79.082  62.560 -10.193  1.00  0.00     0.107 C
HETATM    5  C5  UNL     1      78.845  64.021  -9.877  1.00  0.00     0.185 C
ENDROOT
BRANCH   1   6
HETATM    6  S1  UNL     1      78.329  63.355  -7.344  1.00  0.00     0.234 S
HETATM    7  O1  UNL     1      79.329  62.948  -6.263  1.00  0.00    -0.207 OA
HETATM    8  O2  UNL     1      77.808  62.041  -7.878  1.00  0.00    -0.207 OA
BRANCH   6   9
HETATM    9  C2  UNL     1      77.090  64.250  -6.523  1.00  0.00     0.116 C
HETATM   10  C1  UNL     1      76.640  65.371  -7.037  1.00  0.00     0.024 C
ENDBRANCH   6   9
ENDBRANCH   1   6
BRANCH   5  11
HETATM   11  C6  UNL     1      77.591  64.529 -10.388  1.00  0.00     0.193 C
HETATM   12  O3  UNL     1      76.685  63.731 -10.742  1.00  0.00    -0.647 OA
HETATM   13  O4  UNL     1      77.305  65.874 -10.522  1.00  0.00    -0.647 OA
ENDBRANCH   5  11
TORSDOF 3
ENDMDL