MODEL 5
REMARK VINA RESULT: -4.526161298      2.267      3.297
REMARK  4 active torsions:
REMARK  status: ('A' for Active; 'I' for Inactive)
REMARK    1  A    between atoms: C2_2  and  C3_3
REMARK       I    between atoms: C3_3  and  N1_5
REMARK    2  A    between atoms: N1_5  and  N2_7
REMARK    3  A    between atoms: N2_7  and  C4_8
REMARK    4  A    between atoms: N2_7  and  S1_12
ROOT
HETATM    1  N2  UNL     1      82.116  71.706  -9.046  1.00  0.00    -0.207 N
ENDROOT
BRANCH   1   2
HETATM    2  N1  UNL     1      83.420  72.055  -9.076  1.00  0.00    -0.258 N
HETATM    3  C3  UNL     1      84.556  71.594  -9.734  1.00  0.00     0.236 C
HETATM    4  O1  UNL     1      84.596  70.639 -10.532  1.00  0.00    -0.272 OA
ATOM      5  H1  UNL     1      83.621  72.850  -8.469  1.00  0.00     0.191 HD
BRANCH   3   6
HETATM    6  C2  UNL     1      85.899  72.282  -9.493  1.00  0.00     0.100 C
HETATM    7  C1  UNL     1      86.498  72.736 -10.800  1.00  0.00     0.014 C
ENDBRANCH   3   6
ENDBRANCH   1   2
BRANCH   1   8
HETATM    8  C4  UNL     1      81.454  70.964 -10.005  1.00  0.00     0.054 C
HETATM    9  C5  UNL     1      81.734  69.485  -9.850  1.00  0.00     0.041 C
HETATM   10  C6  UNL     1      79.932  71.076  -9.960  1.00  0.00     0.041 C
HETATM   11  C7  UNL     1      81.815  71.335 -11.451  1.00  0.00     0.041 C
ENDBRANCH   1   8
BRANCH   1  12
HETATM   12  S1  UNL     1      81.525  71.610  -7.420  1.00  0.00     0.242 S
HETATM   13  C8  UNL     1      82.231  73.037  -6.561  1.00  0.00     0.188 C
HETATM   14  O2  UNL     1      80.052  71.782  -7.381  1.00  0.00    -0.205 OA
HETATM   15  O3  UNL     1      82.031  70.436  -6.667  1.00  0.00    -0.205 OA
ENDBRANCH   1  12
TORSDOF 4
ENDMDL