MODEL 5
REMARK VINA RESULT: -5.339350742      3.033      5.757
REMARK  3 active torsions:
REMARK  status: ('A' for Active; 'I' for Inactive)
REMARK    1  A    between atoms: C5_5  and  N1_6
REMARK       I    between atoms: N1_6  and  C6_8
REMARK    2  A    between atoms: C6_8  and  C7_10
REMARK    3  A    between atoms: C7_10  and  S1_12
ROOT
HETATM    1  N1  UNL     1      83.872  71.460  -9.869  1.00  0.00    -0.355 N
ATOM      2  H1  UNL     1      84.784  71.687  -9.473  1.00  0.00     0.162 HD
HETATM    3  C6  UNL     1      83.808  70.859 -11.154  1.00  0.00     0.236 C
HETATM    4  O1  UNL     1      82.676  70.586 -11.626  1.00  0.00    -0.272 OA
ENDROOT
BRANCH   3   5
HETATM    5  C7  UNL     1      85.056  70.585 -11.874  1.00  0.00     0.195 C
HETATM    6  C8  UNL     1      85.927  69.565 -11.145  1.00  0.00     0.036 C
BRANCH   5   7
HETATM    7  S1  UNL     1      86.058  72.043 -12.070  1.00  0.00     0.153 S
HETATM    8  C9  UNL     1      85.520  73.067 -13.386  1.00  0.00     0.162 C
HETATM    9  O2  UNL     1      87.463  71.580 -12.387  1.00  0.00    -0.227 OA
HETATM   10  O3  UNL     1      86.114  72.844 -10.808  1.00  0.00    -0.227 OA
ENDBRANCH   5   7
ENDBRANCH   3   5
BRANCH   1  11
HETATM   11  C5  UNL     1      82.667  71.761  -9.096  1.00  0.00     0.092 A
HETATM   12  C2  UNL     1      82.923  71.714  -7.589  1.00  0.00     0.010 A
HETATM   13  C1  UNL     1      82.302  72.822  -6.760  1.00  0.00     0.012 C
HETATM   14  C3  UNL     1      82.023  70.726  -8.281  1.00  0.00     0.010 A
HETATM   15  C4  UNL     1      80.552  70.881  -7.973  1.00  0.00     0.012 C
ENDBRANCH   1  11
TORSDOF 3
ENDMDL