MODEL 2
REMARK VINA RESULT: -4.052936154      2.162      3.415
REMARK  4 active torsions:
REMARK  status: ('A' for Active; 'I' for Inactive)
REMARK    1  A    between atoms: C2_2  and  C3_4
REMARK    2  A    between atoms: C7_10  and  C9_12
REMARK    3  A    between atoms: C9_12  and  C10_13
REMARK    4  A    between atoms: C10_13  and  O3_14
ROOT
HETATM    1  C3  UNL     1      79.190  64.231  -8.355  1.00  0.00     0.080 C
HETATM    2  C4  UNL     1      78.046  64.876  -9.101  1.00  0.00     0.006 C
HETATM    3  C5  UNL     1      78.317  66.202  -9.692  1.00  0.00     0.011 C
HETATM    4  C6  UNL     1      77.557  63.830 -10.082  1.00  0.00     0.114 C
HETATM    5  S1  UNL     1      77.478  62.429  -8.947  1.00  0.00     0.025 S
HETATM    6  O2  UNL     1      75.952  62.322  -8.256  1.00  0.00    -0.257 OA
HETATM    7  C7  UNL     1      78.609  63.046  -7.684  1.00  0.00     0.046 C
HETATM    8  C8  UNL     1      79.565  61.926  -7.373  1.00  0.00     0.030 C
ENDROOT
BRANCH   7   9
HETATM    9  C9  UNL     1      77.836  63.456  -6.455  1.00  0.00     0.049 C
BRANCH   9  10
HETATM   10  C10 UNL     1      77.922  62.494  -5.307  1.00  0.00     0.165 C
BRANCH  10  11
HETATM   11  O3  UNL     1      77.478  63.229  -4.172  1.00  0.00    -0.401 OA
ATOM     12  H3  UNL     1      77.640  62.659  -3.429  1.00  0.00     0.209 HD
ENDBRANCH  10  11
ENDBRANCH   9  10
ENDBRANCH   7   9
BRANCH   1  13
HETATM   13  C2  UNL     1      80.345  63.955  -9.252  1.00  0.00     0.129 C
HETATM   14  C1  UNL     1      81.758  64.245  -8.853  1.00  0.00     0.091 C
HETATM   15  O1  UNL     1      80.248  63.479 -10.372  1.00  0.00    -0.298 OA
ENDBRANCH   1  13
TORSDOF 4
ENDMDL