MODEL 1
REMARK VINA RESULT: -6.390392280      0.000      0.000
REMARK  7 active torsions:
REMARK  status: ('A' for Active; 'I' for Inactive)
REMARK    1  A    between atoms: S1_2  and  N1_4
REMARK    2  A    between atoms: N1_4  and  C2_5
REMARK    3  A    between atoms: C2_5  and  O2_6
REMARK    4  A    between atoms: C2_5  and  C3_8
REMARK    5  A    between atoms: C6_11  and  C7_12
REMARK    6  A    between atoms: C8_13  and  C9_14
REMARK    7  A    between atoms: C9_14  and  C10_15
ROOT
HETATM    1  C3  UNL     1      81.467  69.474 -10.767  1.00  0.00     0.097 A
HETATM    2  C4  UNL     1      81.868  70.324  -9.649  1.00  0.00     0.012 A
HETATM    3  C5  UNL     1      80.963  71.255  -8.909  1.00  0.00     0.012 C
HETATM    4  C6  UNL     1      82.102  70.743 -11.116  1.00  0.00     0.083 A
ENDROOT
BRANCH   1   5
HETATM    5  C2  UNL     1      79.975  69.278 -11.080  1.00  0.00     0.207 C
BRANCH   5   6
HETATM    6  N1  UNL     1      79.341  68.235 -10.789  1.00  0.00    -0.323 NA
BRANCH   6   7
HETATM    7  S1  UNL     1      78.499  66.852 -10.405  1.00  0.00     0.184 S
HETATM    8  C1  UNL     1      78.059  66.208  -9.421  1.00  0.00     0.168 C
HETATM    9  O1  UNL     1      78.579  66.819 -12.029  1.00  0.00    -0.222 OA
ENDBRANCH   6   7
ENDBRANCH   5   6
BRANCH   5  10
HETATM   10  O2  UNL     1      79.502  70.345 -11.678  1.00  0.00    -0.338 OA
ATOM     11  H2  UNL     1      79.141  71.119 -11.261  1.00  0.00     0.220 HD
ENDBRANCH   5  10
ENDBRANCH   1   5
BRANCH   4  12
HETATM   12  C7  UNL     1      83.497  70.841 -11.520  1.00  0.00    -0.101 C
HETATM   13  C8  UNL     1      84.633  70.903 -11.870  1.00  0.00    -0.106 C
BRANCH  13  14
HETATM   14  C9  UNL     1      86.018  70.953 -12.304  1.00  0.00     0.093 C
BRANCH  14  15
HETATM   15  C10 UNL     1      86.713  72.217 -11.850  1.00  0.00     0.007 C
HETATM   16  C11 UNL     1      86.514  72.495 -10.382  1.00  0.00     0.006 C
ENDBRANCH  14  15
ENDBRANCH  13  14
ENDBRANCH   4  12
TORSDOF 7
ENDMDL