MODEL 1
REMARK VINA RESULT: -6.460110676      0.000      0.000
REMARK  3 active torsions:
REMARK  status: ('A' for Active; 'I' for Inactive)
REMARK       I    between atoms: C2_2  and  N1_4
REMARK       I    between atoms: N1_4  and  C3_5
REMARK    1  A    between atoms: N1_4  and  C8_13
REMARK    2  A    between atoms: C3_5  and  C4_7
REMARK    3  A    between atoms: C6_9  and  C7_10
ROOT
HETATM    1  C1  UNL     1      85.313  71.983  -8.529  1.00  0.00     0.117 C
HETATM    2  C2  UNL     1      85.636  71.953  -9.952  1.00  0.00     0.223 C
HETATM    3  O1  UNL     1      86.724  72.569 -10.260  1.00  0.00    -0.273 OA
HETATM    4  N1  UNL     1      84.899  71.323 -11.023  1.00  0.00    -0.280 N
HETATM    5  C3  UNL     1      83.713  70.613 -10.834  1.00  0.00     0.232 C
HETATM    6  O2  UNL     1      83.290  69.940 -11.855  1.00  0.00    -0.272 OA
ENDROOT
BRANCH   4   7
HETATM    7  C8  UNL     1      85.596  71.466 -12.306  1.00  0.00     0.032 C
HETATM    8  C9  UNL     1      85.129  72.598 -13.136  1.00  0.00     0.038 C
HETATM    9  C10 UNL     1      87.101  71.623 -12.055  1.00  0.00     0.038 C
HETATM   10  C11 UNL     1      85.410  70.155 -13.053  1.00  0.00     0.038 C
ENDBRANCH   4   7
BRANCH   5  11
HETATM   11  C4  UNL     1      82.865  70.513  -9.650  1.00  0.00     0.093 A
HETATM   12  C5  UNL     1      81.858  71.652  -9.406  1.00  0.00     0.031 A
HETATM   13  C6  UNL     1      81.403  70.241  -9.674  1.00  0.00     0.100 A
BRANCH  13  14
HETATM   14  C7  UNL     1      80.620  69.885 -10.846  1.00  0.00     0.177 C
HETATM   15  O3  UNL     1      80.077  70.700 -11.589  1.00  0.00    -0.648 OA
HETATM   16  O4  UNL     1      80.452  68.534 -11.183  1.00  0.00    -0.648 OA
ENDBRANCH  13  14
ENDBRANCH   5  11
TORSDOF 3
ENDMDL