MODEL 5
REMARK VINA RESULT: -4.810147567      7.759      9.556
REMARK  4 active torsions:
REMARK  status: ('A' for Active; 'I' for Inactive)
REMARK       I    between atoms: C2_2  and  N1_4
REMARK    1  A    between atoms: N1_4  and  C3_5
REMARK       I    between atoms: N1_4  and  C5_9
REMARK    2  A    between atoms: C3_5  and  C4_6
REMARK    3  A    between atoms: C4_6  and  O2_7
REMARK    4  A    between atoms: C5_9  and  C6_11
ROOT
HETATM    1  C1  UNL     1      82.144  62.852  -6.802  1.00  0.00     0.117 C
HETATM    2  C2  UNL     1      80.730  62.537  -6.523  1.00  0.00     0.222 C
HETATM    3  O1  UNL     1      80.536  61.707  -5.568  1.00  0.00    -0.273 OA
HETATM    4  N1  UNL     1      79.612  63.066  -7.206  1.00  0.00    -0.286 N
HETATM    5  C5  UNL     1      79.783  63.959  -8.279  1.00  0.00     0.232 C
HETATM    6  O3  UNL     1      80.942  64.317  -8.582  1.00  0.00    -0.272 OA
ENDROOT
BRANCH   5   7
HETATM    7  C6  UNL     1      78.701  64.527  -9.103  1.00  0.00     0.095 A
HETATM    8  C7  UNL     1      78.190  63.688 -10.286  1.00  0.00    -0.027 A
HETATM    9  C8  UNL     1      76.698  63.602 -10.516  1.00  0.00     0.016 C
HETATM   10  C9  UNL     1      78.949  62.467 -10.665  1.00  0.00     0.016 C
HETATM   11  C10 UNL     1      78.829  65.076 -10.437  1.00  0.00    -0.027 A
HETATM   12  C11 UNL     1      80.043  65.095 -11.288  1.00  0.00     0.016 C
HETATM   13  C12 UNL     1      77.836  66.207 -10.784  1.00  0.00     0.016 C
ENDBRANCH   5   7
BRANCH   4  14
HETATM   14  C3  UNL     1      78.293  62.622  -6.769  1.00  0.00     0.161 C
BRANCH  14  15
HETATM   15  C4  UNL     1      77.670  63.579  -5.800  1.00  0.00     0.184 C
BRANCH  15  16
HETATM   16  O2  UNL     1      77.817  63.154  -4.490  1.00  0.00    -0.399 OA
ATOM     17  H2  UNL     1      77.006  62.803  -4.141  1.00  0.00     0.209 HD
ENDBRANCH  15  16
ENDBRANCH  14  15
ENDBRANCH   4  14
TORSDOF 4
ENDMDL