MODEL 3
REMARK VINA RESULT: -6.721867562      2.083      5.642
REMARK  2 active torsions:
REMARK  status: ('A' for Active; 'I' for Inactive)
REMARK       I    between atoms: N1_5  and  C5_7
REMARK    1  A    between atoms: C5_7  and  C6_9
REMARK    2  A    between atoms: C6_9  and  N2_10
REMARK       I    between atoms: N2_10  and  C7_12
ROOT
HETATM    1  C1  UNL     1      -3.822  25.927  33.262  1.00  0.00     0.036 C
HETATM    2  C2  UNL     1      -4.857  26.960  33.057  1.00  0.00    -0.022 C
HETATM    3  C3  UNL     1      -6.026  26.703  32.491  1.00  0.00    -0.034 C
HETATM    4  C4  UNL     1      -6.458  25.389  31.995  1.00  0.00     0.019 C
HETATM    5  N1  UNL     1      -5.683  24.460  31.492  1.00  0.00    -0.329 N
ATOM      6  H1  UNL     1      -4.675  24.587  31.404  1.00  0.00     0.168 HD
HETATM    7  C5  UNL     1      -6.329  23.265  31.076  1.00  0.00     0.239 C
HETATM    8  O1  UNL     1      -7.064  23.192  30.069  1.00  0.00    -0.271 OA
HETATM    9  C9  UNL     1      -7.931  25.362  32.193  1.00  0.00     0.064 C
HETATM   10  C10 UNL     1      -8.335  26.785  32.036  1.00  0.00     0.009 A
HETATM   11  C11 UNL     1      -7.145  27.645  32.224  1.00  0.00     0.033 A
HETATM   12  C12 UNL     1      -8.294  27.753  33.150  1.00  0.00    -0.035 A
HETATM   13  C13 UNL     1      -9.147  29.000  32.966  1.00  0.00     0.016 C
HETATM   14  C14 UNL     1      -8.041  27.333  34.568  1.00  0.00     0.016 C
ENDROOT
BRANCH   7  15
HETATM   15  C6  UNL     1      -6.107  22.051  31.893  1.00  0.00     0.225 C
BRANCH  15  16
HETATM   16  N2  UNL     1      -7.298  21.560  32.514  1.00  0.00    -0.353 N
HETATM   17  C7  UNL     1      -8.117  20.557  31.985  1.00  0.00     0.213 C
HETATM   18  C8  UNL     1      -9.356  20.094  32.691  1.00  0.00     0.117 C
HETATM   19  O2  UNL     1      -7.869  19.984  30.898  1.00  0.00    -0.274 OA
ATOM     20  H2  UNL     1      -7.570  21.971  33.407  1.00  0.00     0.162 HD
ENDBRANCH  15  16
ENDBRANCH   7  15
TORSDOF 2
ENDMDL