MODEL 3
REMARK VINA RESULT: -6.307669157      2.367      3.616
REMARK  2 active torsions:
REMARK  status: ('A' for Active; 'I' for Inactive)
REMARK    1  A    between atoms: C4_4  and  C5_5
REMARK       I    between atoms: N1_7  and  C7_8
REMARK    2  A    between atoms: C7_8  and  C8_10
ROOT
HETATM    1  C5  UNL     1      -8.927  27.856  33.172  1.00  0.00     0.033 C
HETATM    2  C6  UNL     1      -7.732  27.776  32.235  1.00  0.00     0.135 C
HETATM    3  N1  UNL     1      -6.979  26.637  32.767  1.00  0.00    -0.339 N
HETATM    4  C7  UNL     1      -5.970  25.943  32.052  1.00  0.00     0.309 C
HETATM    5  O1  UNL     1      -5.723  26.375  30.873  1.00  0.00    -0.263 OA
HETATM    6  C9  UNL     1      -7.396  26.324  34.087  1.00  0.00     0.093 C
HETATM    7  C10 UNL     1      -8.579  25.347  34.171  1.00  0.00     0.035 C
HETATM    8  C11 UNL     1      -9.142  26.317  35.188  1.00  0.00    -0.040 C
HETATM    9  C12 UNL     1      -8.506  25.967  36.541  1.00  0.00     0.015 C
HETATM   10  C13 UNL     1     -10.607  26.352  35.344  1.00  0.00     0.015 C
HETATM   11  C14 UNL     1      -8.418  27.404  34.493  1.00  0.00     0.025 C
ENDROOT
BRANCH   4  12
HETATM   12  C8  UNL     1      -5.251  24.815  32.601  1.00  0.00     0.322 C
HETATM   13  N2  UNL     1      -5.884  23.534  32.509  1.00  0.00    -0.053 NA
HETATM   14  O2  UNL     1      -4.129  24.931  33.137  1.00  0.00    -0.266 OA
ENDBRANCH   4  12
BRANCH   1  15
HETATM   15  C4  UNL     1      -9.507  29.211  33.191  1.00  0.00    -0.018 C
HETATM   16  C2  UNL     1     -10.766  29.435  32.933  1.00  0.00    -0.091 C
HETATM   17  C1  UNL     1     -11.796  28.439  32.593  1.00  0.00     0.042 C
HETATM   18  C3  UNL     1     -11.222  30.877  32.994  1.00  0.00     0.042 C
ENDBRANCH   1  15
TORSDOF 2
ENDMDL