MODEL 5
REMARK VINA RESULT: -5.578494405      2.815      4.649
REMARK  3 active torsions:
REMARK  status: ('A' for Active; 'I' for Inactive)
REMARK    1  A    between atoms: C2_2  and  N1_3
REMARK       I    between atoms: N1_3  and  C4_5
REMARK    2  A    between atoms: C4_5  and  C5_7
REMARK    3  A    between atoms: C8_15  and  C9_16
ROOT
HETATM    1  C5  UNL     1      -6.623  27.101  32.886  1.00  0.00     0.149 A
HETATM    2  C6  UNL     1      -5.309  27.404  32.166  1.00  0.00     0.056 C
HETATM    3  N2  UNL     1      -6.624  27.601  34.217  1.00  0.00    -0.345 N
ATOM      4  H2  UNL     1      -6.491  28.576  34.482  1.00  0.00     0.163 HD
HETATM    5  C7  UNL     1      -6.840  26.528  35.115  1.00  0.00     0.173 A
HETATM    6  S1  UNL     1      -6.900  26.621  36.759  1.00  0.00    -0.041 SA
HETATM    7  N3  UNL     1      -6.963  25.411  34.295  1.00  0.00    -0.337 N
ATOM      8  H3  UNL     1      -7.124  24.474  34.664  1.00  0.00     0.168 HD
HETATM    9  C8  UNL     1      -6.857  25.651  33.024  1.00  0.00     0.034 A
ENDROOT
BRANCH   1  10
HETATM   10  C4  UNL     1      -7.687  27.774  32.108  1.00  0.00     0.253 C
HETATM   11  N1  UNL     1      -8.980  28.077  32.574  1.00  0.00    -0.354 N
HETATM   12  C3  UNL     1      -9.732  27.539  33.656  1.00  0.00     0.152 C
HETATM   13  O1  UNL     1      -7.429  28.110  30.888  1.00  0.00    -0.270 OA
BRANCH  11  14
HETATM   14  C2  UNL     1      -9.718  29.053  31.718  1.00  0.00     0.120 C
HETATM   15  C1  UNL     1     -10.335  30.134  32.572  1.00  0.00     0.026 C
ENDBRANCH  11  14
ENDBRANCH   1  10
BRANCH   9  16
HETATM   16  C9  UNL     1      -7.060  24.484  32.147  1.00  0.00    -0.010 C
HETATM   17  C10 UNL     1      -7.263  24.749  30.713  1.00  0.00     0.021 C
HETATM   18  C11 UNL     1      -7.991  23.458  32.690  1.00  0.00     0.021 C
HETATM   19  C12 UNL     1      -5.683  23.672  32.118  1.00  0.00     0.021 C
ENDBRANCH   9  16
TORSDOF 3
ENDMDL