MODEL 5
REMARK VINA RESULT: -5.951990188      3.595      5.200
REMARK  4 active torsions:
REMARK  status: ('A' for Active; 'I' for Inactive)
REMARK    1  A    between atoms: C11_13  and  C12_14
REMARK    2  A    between atoms: C12_14  and  C13_16
REMARK    3  A    between atoms: C13_16  and  N3_19
REMARK    4  A    between atoms: N3_19  and  N4_20
ROOT
HETATM    1  C13 UNL     1      -5.408  26.878  33.722  1.00  0.00     0.260 C
HETATM    2  C14 UNL     1      -6.178  26.739  34.888  1.00  0.00     0.139 C
HETATM    3  N2  UNL     1      -6.828  26.615  35.838  1.00  0.00    -0.188 NA
ENDROOT
BRANCH   1   4
HETATM    4  C12 UNL     1      -5.752  26.281  32.393  1.00  0.00     0.238 C
HETATM    5  O1  UNL     1      -5.018  26.964  31.641  1.00  0.00    -0.283 OA
BRANCH   4   6
HETATM    6  C11 UNL     1      -6.651  25.261  32.058  1.00  0.00     0.051 A
HETATM    7  C4  UNL     1      -6.187  23.847  31.822  1.00  0.00    -0.010 A
HETATM    8  C2  UNL     1      -5.223  23.311  32.521  1.00  0.00    -0.076 C
HETATM    9  C5  UNL     1      -7.082  22.934  31.049  1.00  0.00    -0.028 A
HETATM   10  C1  UNL     1      -5.093  21.772  32.499  1.00  0.00     0.044 C
HETATM   11  C3  UNL     1      -4.194  23.795  33.449  1.00  0.00     0.044 C
HETATM   12  C6  UNL     1      -6.665  21.633  30.536  1.00  0.00     0.051 C
HETATM   13  C7  UNL     1      -8.264  23.400  30.628  1.00  0.00     0.012 A
HETATM   14  C8  UNL     1      -9.178  22.505  29.854  1.00  0.00     0.068 C
HETATM   15  N1  UNL     1      -8.684  24.702  30.873  1.00  0.00    -0.362 N
HETATM   16  C9  UNL     1      -7.859  25.634  31.599  1.00  0.00     0.020 A
ATOM     17  H1  UNL     1      -9.596  25.005  30.531  1.00  0.00     0.165 HD
HETATM   18  C10 UNL     1      -8.444  26.913  31.957  1.00  0.00     0.069 C
ENDBRANCH   4   6
ENDBRANCH   1   4
BRANCH   1  19
HETATM   19  N3  UNL     1      -4.316  27.456  33.815  1.00  0.00    -0.317 NA
BRANCH  19  20
HETATM   20  N4  UNL     1      -3.217  28.039  33.876  1.00  0.00    -0.279 N
ATOM     21  H42 UNL     1      -3.348  27.028  33.838  1.00  0.00     0.191 HD
ATOM     22  H41 UNL     1      -2.331  28.541  33.926  1.00  0.00     0.191 HD
ENDBRANCH  19  20
ENDBRANCH   1  19
TORSDOF 4
ENDMDL