MODEL 2
REMARK VINA RESULT: -7.336963091      0.037      1.009
REMARK  5 active torsions:
REMARK  status: ('A' for Active; 'I' for Inactive)
REMARK    1  A    between atoms: C2_2  and  C3_3
REMARK    2  A    between atoms: C5_8  and  C6_9
REMARK    3  A    between atoms: C6_9  and  C7_10
REMARK    4  A    between atoms: C8_11  and  C9_12
REMARK    5  A    between atoms: N2_18  and  O2_19
ROOT
HETATM    1  C3  UNL     1      -6.231  23.403  31.642  1.00  0.00     0.107 A
HETATM    2  C4  UNL     1      -7.162  23.962  30.795  1.00  0.00     0.271 A
HETATM    3  O1  UNL     1      -7.934  23.177  30.185  1.00  0.00    -0.266 OA
HETATM    4  N1  UNL     1      -7.204  25.300  30.660  1.00  0.00    -0.323 N
ATOM      5  H1  UNL     1      -7.896  25.707  30.032  1.00  0.00     0.169 HD
HETATM    6  C5  UNL     1      -6.373  26.120  31.319  1.00  0.00     0.048 A
HETATM    7  C13 UNL     1      -5.442  25.568  32.164  1.00  0.00     0.060 A
HETATM    8  C14 UNL     1      -4.488  26.420  32.928  1.00  0.00     0.073 C
HETATM    9  N2  UNL     1      -5.382  24.232  32.314  1.00  0.00    -0.226 N
ENDROOT
BRANCH   6  10
HETATM   10  C6  UNL     1      -6.492  27.580  31.108  1.00  0.00     0.153 C
BRANCH  10  11
HETATM   11  C7  UNL     1      -7.824  27.970  31.564  1.00  0.00    -0.100 C
HETATM   12  C8  UNL     1      -8.916  28.313  31.946  1.00  0.00    -0.097 C
BRANCH  12  13
HETATM   13  C9  UNL     1     -10.256  28.757  32.406  1.00  0.00     0.013 C
HETATM   14  C10 UNL     1     -11.276  28.576  31.283  1.00  0.00     0.028 C
HETATM   15  C11 UNL     1     -10.202  30.213  32.739  1.00  0.00     0.028 C
HETATM   16  C12 UNL     1     -10.627  27.939  33.610  1.00  0.00     0.028 C
ENDBRANCH  12  13
ENDBRANCH  10  11
ENDBRANCH   6  10
BRANCH   9  17
HETATM   17  O2  UNL     1      -4.460  23.631  33.157  1.00  0.00    -0.282 OA
ATOM     18  H2  UNL     1      -3.657  23.319  32.758  1.00  0.00     0.245 HD
ENDBRANCH   9  17
BRANCH   1  19
HETATM   19  C2  UNL     1      -6.172  21.932  31.807  1.00  0.00     0.061 C
HETATM   20  C1  UNL     1      -5.304  21.241  30.807  1.00  0.00     0.011 C
ENDBRANCH   1  19
TORSDOF 5
ENDMDL