MODEL 1
REMARK VINA RESULT: -7.104334431      0.000      0.000
REMARK  2 active torsions:
REMARK  status: ('A' for Active; 'I' for Inactive)
REMARK    1  A    between atoms: C2_2  and  C3_3
REMARK    2  A    between atoms: N1_7  and  C6_8
ROOT
HETATM    1  C3  UNL     1      -8.236  22.247  31.308  1.00  0.00     0.049 C
HETATM    2  C4  UNL     1      -8.105  23.462  30.415  1.00  0.00     0.094 C
HETATM    3  C5  UNL     1      -7.587  24.666  31.172  1.00  0.00     0.233 C
HETATM    4  O1  UNL     1      -8.279  25.711  31.079  1.00  0.00    -0.272 OA
HETATM    5  N1  UNL     1      -6.397  24.727  31.974  1.00  0.00    -0.266 N
HETATM    6  C9  UNL     1      -5.579  23.581  32.293  1.00  0.00     0.328 C
HETATM    7  O2  UNL     1      -4.532  23.779  32.958  1.00  0.00    -0.247 OA
HETATM    8  N2  UNL     1      -5.832  22.201  31.924  1.00  0.00    -0.328 N
HETATM    9  C10 UNL     1      -5.041  21.171  32.502  1.00  0.00     0.155 C
HETATM   10  C11 UNL     1      -6.864  21.765  30.980  1.00  0.00     0.044 C
HETATM   11  C12 UNL     1      -6.711  20.368  30.503  1.00  0.00     0.039 C
HETATM   12  C13 UNL     1      -6.931  22.718  29.776  1.00  0.00     0.024 C
HETATM   13  C14 UNL     1      -7.273  22.006  28.498  1.00  0.00     0.013 C
ENDROOT
BRANCH   5  14
HETATM   14  C6  UNL     1      -5.978  26.010  32.506  1.00  0.00     0.089 C
HETATM   15  C7  UNL     1      -6.918  26.360  33.668  1.00  0.00     0.032 C
HETATM   16  C8  UNL     1      -5.995  27.101  31.488  1.00  0.00     0.032 C
ENDBRANCH   5  14
BRANCH   1  17
HETATM   17  C2  UNL     1      -8.586  22.481  32.701  1.00  0.00    -0.029 C
HETATM   18  C1  UNL     1      -8.694  21.482  33.550  1.00  0.00     0.007 C
ENDBRANCH   1  17
TORSDOF 2
ENDMDL