MODEL 3
REMARK VINA RESULT: -5.937727898      3.284      5.431
REMARK  2 active torsions:
REMARK  status: ('A' for Active; 'I' for Inactive)
REMARK       I    between atoms: N1_2  and  C2_4
REMARK    1  A    between atoms: C2_4  and  C3_6
REMARK    2  A    between atoms: C9_12  and  S1_13
ROOT
HETATM    1  C3  UNL     1      -5.610  25.311  32.091  1.00  0.00     0.086 C
HETATM    2  C4  UNL     1      -6.167  24.063  32.711  1.00  0.00     0.001 C
HETATM    3  C5  UNL     1      -7.677  24.282  32.536  1.00  0.00     0.011 C
HETATM    4  C6  UNL     1      -7.588  24.611  31.038  1.00  0.00     0.009 C
HETATM    5  C7  UNL     1      -6.598  25.770  31.119  1.00  0.00     0.000 C
HETATM    6  C8  UNL     1      -7.364  27.006  31.399  1.00  0.00     0.011 C
HETATM    7  C9  UNL     1      -6.841  23.433  30.529  1.00  0.00     0.113 C
HETATM    8  C11 UNL     1      -5.968  22.956  31.684  1.00  0.00     0.026 C
ENDROOT
BRANCH   1   9
HETATM    9  C2  UNL     1      -5.181  26.229  33.129  1.00  0.00     0.222 C
HETATM   10  N1  UNL     1      -4.020  27.016  32.891  1.00  0.00    -0.365 N
HETATM   11  C1  UNL     1      -3.512  27.970  33.881  1.00  0.00     0.149 C
ATOM     12  H1  UNL     1      -3.526  26.914  32.005  1.00  0.00     0.161 HD
HETATM   13  O1  UNL     1      -5.752  26.390  34.234  1.00  0.00    -0.273 OA
ENDBRANCH   1   9
BRANCH   7  14
HETATM   14  S1  UNL     1      -7.836  22.089  29.999  1.00  0.00     0.145 S
HETATM   15  C10 UNL     1      -7.626  20.741  31.171  1.00  0.00     0.161 C
HETATM   16  O2  UNL     1      -7.455  21.565  28.662  1.00  0.00    -0.228 OA
HETATM   17  O3  UNL     1      -9.292  22.453  30.052  1.00  0.00    -0.228 OA
ENDBRANCH   7  14
TORSDOF 2
ENDMDL