MODEL 3
REMARK VINA RESULT: -6.635321752      1.911      5.918
REMARK  2 active torsions:
REMARK  status: ('A' for Active; 'I' for Inactive)
REMARK    1  A    between atoms: C8_11  and  C9_12
REMARK       I    between atoms: N2_14  and  C11_16
REMARK    2  A    between atoms: C11_16  and  C12_18
ROOT
HETATM    1  C1  UNL     1      -4.954  23.052  33.045  1.00  0.00     0.044 C
HETATM    2  C2  UNL     1      -6.208  22.600  32.381  1.00  0.00    -0.067 C
HETATM    3  C3  UNL     1      -6.290  21.424  31.759  1.00  0.00     0.007 C
HETATM    4  C4  UNL     1      -7.518  20.925  31.079  1.00  0.00     0.044 C
HETATM    5  C5  UNL     1      -7.074  19.858  30.095  1.00  0.00     0.042 C
HETATM    6  C6  UNL     1      -8.510  20.320  32.022  1.00  0.00     0.042 C
HETATM    7  N1  UNL     1      -8.106  22.062  30.389  1.00  0.00    -0.348 N
ATOM      8  H1  UNL     1      -8.591  21.944  29.499  1.00  0.00     0.163 HD
HETATM    9  C7  UNL     1      -7.983  23.341  30.995  1.00  0.00     0.232 C
HETATM   10  O1  UNL     1      -8.322  24.341  30.340  1.00  0.00    -0.272 OA
HETATM   11  C8  UNL     1      -7.460  23.435  32.367  1.00  0.00     0.151 C
ENDROOT
BRANCH  11  12
HETATM   12  C9  UNL     1      -7.283  24.784  32.883  1.00  0.00     0.003 C
HETATM   13  C10 UNL     1      -8.059  25.244  34.049  1.00  0.00     0.064 C
HETATM   14  N2  UNL     1      -6.450  25.592  32.336  1.00  0.00    -0.333 N
HETATM   15  C11 UNL     1      -6.224  26.924  32.786  1.00  0.00     0.225 C
ATOM     16  H2  UNL     1      -5.917  25.261  31.531  1.00  0.00     0.168 HD
HETATM   17  O2  UNL     1      -5.372  27.061  33.702  1.00  0.00    -0.273 OA
BRANCH  15  18
HETATM   18  C12 UNL     1      -6.913  28.098  32.256  1.00  0.00     0.070 C
HETATM   19  C13 UNL     1      -7.238  27.865  30.797  1.00  0.00     0.019 C
HETATM   20  C14 UNL     1      -8.224  28.352  32.974  1.00  0.00     0.019 C
ENDBRANCH  15  18
ENDBRANCH  11  12
TORSDOF 2
ENDMDL