MODEL 1
REMARK VINA RESULT: -5.163996008      0.000      0.000
REMARK  6 active torsions:
REMARK  status: ('A' for Active; 'I' for Inactive)
REMARK    1  A    between atoms: C4_4  and  C5_5
REMARK    2  A    between atoms: C4_4  and  N1_8
REMARK    3  A    between atoms: C12_15  and  C13_16
REMARK    4  A    between atoms: C13_16  and  N2_17
REMARK    5  A    between atoms: C13_16  and  O3_21
REMARK    6  A    between atoms: N2_17  and  N3_18
ROOT
HETATM    1  C1  UNL     1      58.430  26.469 101.701  1.00  0.00     0.017 C
HETATM    2  C2  UNL     1      59.036  26.558 102.741  1.00  0.00    -0.087 C
HETATM    3  C3  UNL     1      59.743  26.627 103.959  1.00  0.00     0.100 C
HETATM    4  C4  UNL     1      60.208  27.702 104.567  1.00  0.00     0.116 C
ENDROOT
BRANCH   4   5
HETATM    5  C5  UNL     1      59.989  28.991 103.943  1.00  0.00     0.227 C
HETATM    6  O1  UNL     1      60.908  29.590 103.375  1.00  0.00    -0.643 OA
HETATM    7  O2  UNL     1      58.735  29.574 103.976  1.00  0.00    -0.643 OA
ENDBRANCH   4   5
BRANCH   4   8
HETATM    8  N1  UNL     1      60.913  27.593 105.813  1.00  0.00    -0.364 N
HETATM    9  C6  UNL     1      61.539  26.490 106.485  1.00  0.00     0.087 C
HETATM   10  C7  UNL     1      62.674  25.829 105.718  1.00  0.00     0.033 C
HETATM   11  C8  UNL     1      62.148  27.412 107.535  1.00  0.00     0.036 C
HETATM   12  C9  UNL     1      61.578  27.094 108.866  1.00  0.00    -0.001 A
HETATM   13  C15 UNL     1      61.286  28.454 106.863  1.00  0.00     0.105 C
HETATM   14  C10 UNL     1      61.494  28.037 109.981  1.00  0.00     0.011 A
HETATM   15  C11 UNL     1      60.370  27.891 109.028  1.00  0.00     0.005 A
HETATM   16  C12 UNL     1      60.324  28.884 107.890  1.00  0.00     0.105 C
BRANCH  16  17
HETATM   17  C13 UNL     1      58.956  29.158 107.457  1.00  0.00     0.222 C
BRANCH  17  18
HETATM   18  N2  UNL     1      58.545  30.315 107.127  1.00  0.00    -0.311 NA
BRANCH  18  19
HETATM   19  N3  UNL     1      58.000  31.238 106.488  1.00  0.00    -0.278 N
ATOM     20  H32 UNL     1      57.236  31.384 107.147  1.00  0.00     0.191 HD
ATOM     21  H31 UNL     1      57.809  31.932 105.765  1.00  0.00     0.191 HD
ENDBRANCH  18  19
ENDBRANCH  17  18
BRANCH  17  22
HETATM   22  O3  UNL     1      58.007  28.149 107.377  1.00  0.00    -0.332 OA
HETATM   23  C14 UNL     1      56.814  28.171 108.169  1.00  0.00     0.212 C
ENDBRANCH  17  22
ENDBRANCH  16  17
ENDBRANCH   4   8
TORSDOF 6
ENDMDL