MODEL 5
REMARK VINA RESULT: -4.925875931      2.918      6.335
REMARK  4 active torsions:
REMARK  status: ('A' for Active; 'I' for Inactive)
REMARK       I    between atoms: C2_2  and  N1_4
REMARK    1  A    between atoms: N1_4  and  C3_6
REMARK    2  A    between atoms: C8_11  and  C9_12
REMARK       I    between atoms: C9_12  and  N2_14
REMARK    3  A    between atoms: N2_14  and  C10_15
REMARK    4  A    between atoms: N2_14  and  C12_18
ROOT
HETATM    1  C10 UNL     1      59.425  26.586 101.433  1.00  0.00     0.191 C
HETATM    2  C11 UNL     1      58.225  25.875 101.777  1.00  0.00     0.105 C
HETATM    3  N3  UNL     1      57.257  25.326 102.048  1.00  0.00    -0.191 NA
ENDROOT
BRANCH   1   4
HETATM    4  N2  UNL     1      59.348  28.018 101.485  1.00  0.00    -0.281 N
HETATM    5  C9  UNL     1      59.452  28.798 102.665  1.00  0.00     0.231 C
HETATM    6  O2  UNL     1      59.351  30.045 102.558  1.00  0.00    -0.273 OA
BRANCH   5   7
HETATM    7  C8  UNL     1      59.669  28.230 103.978  1.00  0.00     0.085 C
HETATM    8  C7  UNL     1      61.070  28.264 104.506  1.00  0.00     0.022 C
HETATM    9  C3  UNL     1      60.933  29.360 105.589  1.00  0.00     0.093 C
HETATM   10  C6  UNL     1      61.229  27.063 105.407  1.00  0.00     0.008 C
HETATM   11  C4  UNL     1      59.735  28.778 106.257  1.00  0.00     0.009 C
HETATM   12  C5  UNL     1      60.112  27.332 106.418  1.00  0.00     0.007 C
HETATM   13  C15 UNL     1      58.767  28.843 105.061  1.00  0.00     0.021 C
BRANCH   9  14
HETATM   14  N1  UNL     1      62.097  29.519 106.380  1.00  0.00    -0.356 N
HETATM   15  C2  UNL     1      63.183  30.367 106.144  1.00  0.00     0.213 C
HETATM   16  C1  UNL     1      64.352  30.451 107.045  1.00  0.00     0.117 C
HETATM   17  O1  UNL     1      63.169  31.094 105.122  1.00  0.00    -0.274 OA
ATOM     18  H1  UNL     1      62.150  28.946 107.223  1.00  0.00     0.162 HD
ENDBRANCH   9  14
ENDBRANCH   5   7
BRANCH   4  19
HETATM   19  C12 UNL     1      59.139  28.697 100.192  1.00  0.00     0.177 C
HETATM   20  C13 UNL     1      60.049  29.879 100.005  1.00  0.00     0.076 C
HETATM   21  C14 UNL     1      59.353  27.654  99.119  1.00  0.00     0.076 C
HETATM   22  F1  UNL     1      57.841  29.152 100.092  1.00  0.00    -0.220 F
ENDBRANCH   4  19
ENDBRANCH   1   4
TORSDOF 4
ENDMDL