MODEL 1
REMARK VINA RESULT: -5.314401749      0.000      0.000
REMARK  3 active torsions:
REMARK  status: ('A' for Active; 'I' for Inactive)
REMARK    1  A    between atoms: C2_2  and  C3_3
REMARK       I    between atoms: C3_3  and  N1_5
REMARK    2  A    between atoms: N1_5  and  C4_7
REMARK    3  A    between atoms: C6_11  and  C7_12
ROOT
HETATM    1  C4  UNL     1      57.580  23.954 101.391  1.00  0.00     0.210 C
HETATM    2  C5  UNL     1      57.719  22.601 102.025  1.00  0.00     0.247 C
HETATM    3  O2  UNL     1      58.612  21.742 102.135  1.00  0.00    -0.271 OA
HETATM    4  N2  UNL     1      56.388  22.743 102.435  1.00  0.00    -0.325 N
HETATM    5  C6  UNL     1      55.256  22.627 103.255  1.00  0.00     0.121 C
HETATM    6  C9  UNL     1      54.062  23.290 102.696  1.00  0.00     0.105 C
HETATM    7  S1  UNL     1      54.816  24.530 101.600  1.00  0.00    -0.139 SA
HETATM    8  C10 UNL     1      56.206  23.445 101.175  1.00  0.00     0.182 C
ENDROOT
BRANCH   1   9
HETATM    9  N1  UNL     1      57.736  25.049 102.312  1.00  0.00    -0.342 N
HETATM   10  C3  UNL     1      58.532  26.145 101.941  1.00  0.00     0.241 C
HETATM   11  O1  UNL     1      59.093  26.162 100.829  1.00  0.00    -0.269 OA
ATOM     12  H1  UNL     1      57.275  25.029 103.222  1.00  0.00     0.163 HD
BRANCH  10  13
HETATM   13  C2  UNL     1      58.723  27.277 102.833  1.00  0.00     0.064 C
HETATM   14  C1  UNL     1      59.624  27.289 103.798  1.00  0.00     0.017 C
ENDBRANCH  10  13
ENDBRANCH   1   9
BRANCH   5  15
HETATM   15  C7  UNL     1      55.016  21.156 103.515  1.00  0.00     0.006 C
HETATM   16  C8  UNL     1      56.005  20.361 103.895  1.00  0.00     0.054 C
HETATM   17 BR1  UNL     1      55.779  18.509 104.239  1.00  0.00    -0.064 Br
ENDBRANCH   5  15
TORSDOF 3
ENDMDL