MODEL 2
REMARK VINA RESULT: -7.745955192      1.524      2.071
REMARK  5 active torsions:
REMARK  status: ('A' for Active; 'I' for Inactive)
REMARK    1  A    between atoms: C4_5  and  C5_6
REMARK       I    between atoms: C5_6  and  N2_8
REMARK    2  A    between atoms: N2_8  and  N3_10
REMARK    3  A    between atoms: N3_10  and  C6_11
REMARK    4  A    between atoms: C6_11  and  C7_12
REMARK    5  A    between atoms: C13_19  and  N4_20
ROOT
HETATM    1  C5  UNL     1      58.531  26.309 101.469  1.00  0.00     0.282 C
HETATM    2  O1  UNL     1      59.098  25.984 100.486  1.00  0.00    -0.265 OA
HETATM    3  N2  UNL     1      57.391  25.767 102.111  1.00  0.00    -0.199 N
ATOM      4  H2  UNL     1      57.093  26.240 102.964  1.00  0.00     0.205 HD
ENDROOT
BRANCH   1   5
HETATM    5  C4  UNL     1      58.997  27.529 102.265  1.00  0.00     0.070 A
HETATM    6  C3  UNL     1      59.250  27.296 103.596  1.00  0.00     0.037 A
HETATM    7  C2  UNL     1      59.911  28.238 104.322  1.00  0.00     0.091 A
HETATM    8  N1  UNL     1      60.328  29.408 103.788  1.00  0.00    -0.368 N
HETATM    9  C1  UNL     1      61.099  30.356 104.554  1.00  0.00     0.154 C
HETATM   10  C14 UNL     1      60.065  29.630 102.474  1.00  0.00     0.127 A
HETATM   11  C13 UNL     1      59.390  28.683 101.684  1.00  0.00     0.134 A
BRANCH  11  12
HETATM   12  N4  UNL     1      59.098  28.978 100.337  1.00  0.00    -0.113 N
HETATM   13  O2  UNL     1      60.041  29.168  99.563  1.00  0.00    -0.532 OA
HETATM   14  O3  UNL     1      57.848  29.088  99.786  1.00  0.00    -0.532 OA
ENDBRANCH  11  12
ENDBRANCH   1   5
BRANCH   3  15
HETATM   15  N3  UNL     1      56.673  24.736 101.746  1.00  0.00    -0.335 NA
BRANCH  15  16
HETATM   16  C6  UNL     1      56.036  23.834 101.441  1.00  0.00     0.223 C
BRANCH  16  17
HETATM   17  C7  UNL     1      54.746  23.331 101.913  1.00  0.00     0.033 A
HETATM   18  C8  UNL     1      54.669  22.197 102.660  1.00  0.00     0.017 A
HETATM   19  C9  UNL     1      53.400  21.794 103.049  1.00  0.00     0.001 A
HETATM   20  C10 UNL     1      52.263  22.491 102.706  1.00  0.00     0.003 A
HETATM   21  C11 UNL     1      52.345  23.650 101.933  1.00  0.00     0.043 A
HETATM   22  C12 UNL     1      53.596  24.044 101.553  1.00  0.00     0.129 A
HETATM   23  F1  UNL     1      53.654  25.192 100.819  1.00  0.00    -0.205 F
ENDBRANCH  16  17
ENDBRANCH  15  16
ENDBRANCH   3  15
TORSDOF 5
ENDMDL