MODEL 1
REMARK VINA RESULT: -4.750612005      0.000      0.000
REMARK  3 active torsions:
REMARK  status: ('A' for Active; 'I' for Inactive)
REMARK    1  A    between atoms: C2_2  and  N1_4
REMARK    2  A    between atoms: C8_10  and  C10_12
REMARK       I    between atoms: C10_12  and  N2_14
REMARK    3  A    between atoms: N2_14  and  S1_16
ROOT
HETATM    1  N1  UNL     1      61.497  29.180 106.218  1.00  0.00    -0.379 N
HETATM    2  C3  UNL     1      61.330  29.220 104.783  1.00  0.00     0.124 C
HETATM    3  C4  UNL     1      61.300  27.880 104.115  1.00  0.00     0.008 A
HETATM    4  C5  UNL     1      59.981  27.541 103.464  1.00  0.00     0.011 A
HETATM    5  C6  UNL     1      60.375  26.916 104.759  1.00  0.00    -0.006 A
HETATM    6  C7  UNL     1      59.839  27.522 106.006  1.00  0.00     0.045 C
HETATM    7  C8  UNL     1      60.997  28.072 106.902  1.00  0.00     0.108 C
HETATM    8  C9  UNL     1      61.889  26.917 107.164  1.00  0.00     0.049 C
ENDROOT
BRANCH   7   9
HETATM    9  C10 UNL     1      60.208  28.528 108.098  1.00  0.00     0.258 C
HETATM   10  O1  UNL     1      60.555  28.138 109.222  1.00  0.00    -0.270 OA
HETATM   11  N2  UNL     1      59.113  29.365 107.890  1.00  0.00    -0.253 N
ATOM     12  H2  UNL     1      58.897  29.646 106.933  1.00  0.00     0.181 HD
BRANCH  11  13
HETATM   13  S1  UNL     1      58.100  29.953 109.161  1.00  0.00     0.229 S
HETATM   14  C11 UNL     1      56.849  31.050 108.481  1.00  0.00     0.186 C
HETATM   15  O2  UNL     1      57.448  28.794 109.800  1.00  0.00    -0.206 OA
HETATM   16  O3  UNL     1      58.926  30.789 110.114  1.00  0.00    -0.206 OA
ENDBRANCH  11  13
ENDBRANCH   7   9
BRANCH   1  17
HETATM   17  C2  UNL     1      62.795  29.655 106.515  1.00  0.00     0.173 C
HETATM   18  C1  UNL     1      63.023  30.464 107.720  1.00  0.00     0.049 C
HETATM   19 CL1  UNL     1      63.303  30.669 105.111  1.00  0.00    -0.103 Cl
ENDBRANCH   1  17
TORSDOF 3
ENDMDL