MODEL 5
REMARK VINA RESULT: -4.700148071      2.087      2.711
REMARK  3 active torsions:
REMARK  status: ('A' for Active; 'I' for Inactive)
REMARK    1  A    between atoms: C4_4  and  C5_5
REMARK    2  A    between atoms: C5_5  and  C6_6
REMARK    3  A    between atoms: C5_5  and  S1_8
ROOT
HETATM    1  C5  UNL     1      60.521  27.594 105.384  1.00  0.00     0.106 C
ENDROOT
BRANCH   1   2
HETATM    2  C4  UNL     1      60.240  27.853 106.800  1.00  0.00     0.010 C
HETATM    3  C3  UNL     1      61.328  28.290 107.695  1.00  0.00     0.037 C
HETATM    4  C2  UNL     1      60.853  28.778 109.036  1.00  0.00     0.118 C
HETATM    5  C1  UNL     1      61.639  28.061 110.114  1.00  0.00     0.039 C
HETATM    6  O3  UNL     1      59.525  28.555 109.289  1.00  0.00    -0.376 OA
HETATM    7  C11 UNL     1      58.619  28.804 108.322  1.00  0.00     0.054 C
HETATM    8  C10 UNL     1      59.091  28.841 106.912  1.00  0.00     0.043 C
HETATM    9  C12 UNL     1      57.980  30.168 108.614  1.00  0.00     0.045 C
HETATM   10  C13 UNL     1      57.472  27.797 108.494  1.00  0.00     0.045 C
ENDBRANCH   1   2
BRANCH   1  11
HETATM   11  C6  UNL     1      61.094  26.204 105.218  1.00  0.00     0.246 C
HETATM   12  O1  UNL     1      61.998  25.769 105.886  1.00  0.00    -0.306 OA
ENDBRANCH   1  11
BRANCH   1  13
HETATM   13  S1  UNL     1      59.213  27.732 104.240  1.00  0.00    -0.163 SA
HETATM   14  C7  UNL     1      59.613  26.705 102.807  1.00  0.00     0.170 C
HETATM   15  C8  UNL     1      59.118  27.526 101.704  1.00  0.00     0.228 C
HETATM   16  O2  UNL     1      59.074  27.072 100.507  1.00  0.00    -0.273 OA
HETATM   17  N1  UNL     1      58.711  28.801 102.050  1.00  0.00    -0.335 N
HETATM   18  C9  UNL     1      59.252  29.276 103.310  1.00  0.00     0.236 C
ATOM     19  H1  UNL     1      58.085  29.360 101.469  1.00  0.00     0.164 HD
HETATM   20 CL1  UNL     1      60.937  29.769 103.165  1.00  0.00    -0.091 Cl
ENDBRANCH   1  13
TORSDOF 3
ENDMDL