MODEL 4
REMARK VINA RESULT: -5.166445201      5.318      7.265
REMARK  3 active torsions:
REMARK  status: ('A' for Active; 'I' for Inactive)
REMARK    1  A    between atoms: N2_7  and  S1_9
REMARK    2  A    between atoms: S1_9  and  N3_12
REMARK    3  A    between atoms: N3_12  and  C5_14
ROOT
HETATM    1  C1  UNL     1      62.790  30.267 109.641  1.00  0.00     0.071 C
HETATM    2  C2  UNL     1      62.144  30.218 108.295  1.00  0.00     0.039 A
HETATM    3  N1  UNL     1      60.815  30.153 108.045  1.00  0.00    -0.263 N
ATOM      4  H1  UNL     1      60.078  30.129 108.749  1.00  0.00     0.194 HD
HETATM    5  O1  UNL     1      60.635  30.125 106.758  1.00  0.00    -0.218 OA
HETATM    6  C3  UNL     1      61.769  30.169 106.115  1.00  0.00     0.188 A
HETATM    7  N2  UNL     1      62.001  30.162 104.835  1.00  0.00    -0.249 N
ATOM      8  H2  UNL     1      62.953  30.201 104.473  1.00  0.00     0.182 HD
HETATM    9  C9  UNL     1      62.752  30.228 107.073  1.00  0.00     0.016 A
HETATM   10  C10 UNL     1      64.213  30.292 106.852  1.00  0.00     0.055 C
ENDROOT
BRANCH   7  11
HETATM   11  S1  UNL     1      60.642  30.083 103.767  1.00  0.00     0.304 S
HETATM   12  O2  UNL     1      59.373  30.447 104.443  1.00  0.00    -0.188 OA
HETATM   13  O3  UNL     1      60.927  31.019 102.602  1.00  0.00    -0.188 OA
BRANCH  11  14
HETATM   14  N3  UNL     1      60.550  28.469 103.183  1.00  0.00    -0.191 NA
HETATM   15  C4  UNL     1      61.110  27.520 104.120  1.00  0.00     0.131 C
BRANCH  14  16
HETATM   16  C5  UNL     1      59.243  28.060 102.820  1.00  0.00     0.099 A
HETATM   17  C6  UNL     1      59.187  26.909 101.816  1.00  0.00     0.022 A
HETATM   18  C7  UNL     1      58.267  25.790 102.238  1.00  0.00     0.013 C
HETATM   19  C8  UNL     1      58.671  28.246 101.470  1.00  0.00     0.106 A
HETATM   20 CL1  UNL     1      59.633  29.203 100.292  1.00  0.00    -0.123 Cl
ENDBRANCH  14  16
ENDBRANCH  11  14
ENDBRANCH   7  11
TORSDOF 3
ENDMDL