MODEL 4
REMARK VINA RESULT: -4.594112816      3.079      4.544
REMARK  6 active torsions:
REMARK  status: ('A' for Active; 'I' for Inactive)
REMARK    1  A    between atoms: C2_2  and  N1_4
REMARK    2  A    between atoms: N1_4  and  N2_6
REMARK    3  A    between atoms: C7_13  and  C8_14
REMARK    4  A    between atoms: C7_13  and  N5_20
REMARK    5  A    between atoms: C8_14  and  N3_16
REMARK    6  A    between atoms: N3_16  and  N4_17
ROOT
HETATM    1  N2  UNL     1      59.855  28.715 105.133  1.00  0.00    -0.305 N
ATOM      2  H2  UNL     1      58.957  28.336 105.435  1.00  0.00     0.186 HD
HETATM    3  C3  UNL     1      60.745  28.967 106.026  1.00  0.00     0.057 C
HETATM    4  C4  UNL     1      62.088  29.521 105.693  1.00  0.00     0.065 C
HETATM    5  C5  UNL     1      62.190  30.645 106.711  1.00  0.00     0.088 C
HETATM    6  C6  UNL     1      61.556  30.017 107.902  1.00  0.00     0.178 C
HETATM    7  O1  UNL     1      61.686  30.423 109.029  1.00  0.00    -0.294 OA
HETATM    8  C7  UNL     1      60.740  28.816 107.480  1.00  0.00     0.297 C
ENDROOT
BRANCH   8   9
HETATM    9  C8  UNL     1      61.494  27.599 107.858  1.00  0.00     0.133 C
HETATM   10  C9  UNL     1      61.869  26.578 106.848  1.00  0.00     0.086 C
BRANCH   9  11
HETATM   11  N3  UNL     1      61.854  27.371 109.040  1.00  0.00    -0.339 NA
BRANCH  11  12
HETATM   12  N4  UNL     1      62.244  26.846 110.105  1.00  0.00    -0.280 N
ATOM     13  H42 UNL     1      62.302  27.742 110.589  1.00  0.00     0.191 HD
ATOM     14  H41 UNL     1      62.541  26.197 110.834  1.00  0.00     0.191 HD
ENDBRANCH  11  12
ENDBRANCH   9  11
ENDBRANCH   8   9
BRANCH   8  15
HETATM   15  N5  UNL     1      59.447  28.820 108.082  1.00  0.00     0.035 N
HETATM   16  C10 UNL     1      58.670  27.634 107.754  1.00  0.00     0.297 C
HETATM   17  C11 UNL     1      58.697  29.951 107.562  1.00  0.00     0.297 C
HETATM   18 CL1  UNL     1      59.466  28.954 109.808  1.00  0.00     0.119 Cl
ENDBRANCH   8  15
BRANCH   1  19
HETATM   19  N1  UNL     1      60.059  28.935 103.767  1.00  0.00    -0.294 N
ATOM     20  H1  UNL     1      60.666  29.707 103.491  1.00  0.00     0.187 HD
BRANCH  19  21
HETATM   21  C2  UNL     1      59.478  28.156 102.753  1.00  0.00     0.088 C
HETATM   22  C1  UNL     1      59.080  26.761 103.027  1.00  0.00     0.083 C
HETATM   23  S1  UNL     1      59.238  28.781 101.278  1.00  0.00    -0.064 SA
ENDBRANCH  19  21
ENDBRANCH   1  19
TORSDOF 6
ENDMDL