MODEL 2
REMARK VINA RESULT: -6.826117719      0.117      1.070
REMARK  4 active torsions:
REMARK  status: ('A' for Active; 'I' for Inactive)
REMARK    1  A    between atoms: C1_2  and  C2_3
REMARK       I    between atoms: C1_2  and  N1_14
REMARK    2  A    between atoms: C2_3  and  S1_4
REMARK    3  A    between atoms: S1_4  and  C3_7
REMARK    4  A    between atoms: N1_14  and  C9_16
ROOT
HETATM    1  O1  UNL     1      58.326  23.466 101.419  1.00  0.00    -0.272 OA
HETATM    2  C1  UNL     1      57.310  24.194 101.684  1.00  0.00     0.236 C
HETATM    3  N1  UNL     1      57.501  25.246 102.576  1.00  0.00    -0.326 N
ATOM      4  H1  UNL     1      56.849  25.268 103.362  1.00  0.00     0.169 HD
ENDROOT
BRANCH   2   5
HETATM    5  C2  UNL     1      56.037  23.839 101.015  1.00  0.00     0.248 C
BRANCH   5   6
HETATM    6  S1  UNL     1      54.900  23.285 102.272  1.00  0.00     0.183 S
HETATM    7  O2  UNL     1      55.170  21.878 102.646  1.00  0.00    -0.222 OA
HETATM    8  O3  UNL     1      55.178  24.181 103.477  1.00  0.00    -0.222 OA
BRANCH   6   9
HETATM    9  C3  UNL     1      53.249  23.496 101.792  1.00  0.00     0.059 A
HETATM   10  C4  UNL     1      52.820  24.483 100.944  1.00  0.00     0.026 A
HETATM   11  C5  UNL     1      51.490  24.577 100.609  1.00  0.00     0.044 A
HETATM   12  C6  UNL     1      50.546  23.678 101.117  1.00  0.00     0.116 A
HETATM   13  F1  UNL     1      49.227  23.733 100.817  1.00  0.00    -0.206 F
HETATM   14  C7  UNL     1      50.960  22.672 101.973  1.00  0.00     0.044 A
HETATM   15  C8  UNL     1      52.303  22.615 102.285  1.00  0.00     0.026 A
ENDBRANCH   6   9
ENDBRANCH   5   6
ENDBRANCH   2   5
BRANCH   3  16
HETATM   16  C9  UNL     1      58.363  26.185 102.564  1.00  0.00     0.037 A
HETATM   17  C10 UNL     1      59.273  26.444 103.558  1.00  0.00     0.046 A
HETATM   18  C11 UNL     1      60.129  27.514 103.418  1.00  0.00     0.090 A
HETATM   19  N2  UNL     1      60.129  28.339 102.345  1.00  0.00    -0.375 N
HETATM   20  C12 UNL     1      59.246  28.104 101.360  1.00  0.00     0.090 A
ATOM     21  H2  UNL     1      60.781  29.120 102.287  1.00  0.00     0.164 HD
HETATM   22  C13 UNL     1      58.384  27.045 101.474  1.00  0.00     0.046 A
ENDBRANCH   3  16
TORSDOF 4
ENDMDL