MODEL 4
REMARK VINA RESULT: -5.632072093      1.441      2.208
REMARK  4 active torsions:
REMARK  status: ('A' for Active; 'I' for Inactive)
REMARK    1  A    between atoms: C4_8  and  C5_9
REMARK    2  A    between atoms: C5_9  and  C6_10
REMARK    3  A    between atoms: C6_10  and  C7_11
REMARK    4  A    between atoms: C7_11  and  C8_12
ROOT
HETATM    1  F1  UNL     1      26.810  -2.884  34.149  1.00  0.00    -0.170 F
HETATM    2  C1  UNL     1      26.804  -1.535  34.526  1.00  0.00     0.391 C
HETATM    3  F2  UNL     1      26.205  -1.411  35.766  1.00  0.00    -0.170 F
HETATM    4  O1  UNL     1      26.058  -0.767  33.654  1.00  0.00    -0.311 OA
HETATM    5  C2  UNL     1      26.631  -0.802  32.387  1.00  0.00     0.254 C
HETATM    6  S1  UNL     1      28.393  -0.483  32.853  1.00  0.00    -0.100 SA
HETATM    7  C3  UNL     1      28.195  -1.057  34.527  1.00  0.00     0.077 C
HETATM    8  C4  UNL     1      29.055  -1.054  35.493  1.00  0.00    -0.004 C
ENDROOT
BRANCH   8   9
HETATM    9  C5  UNL     1      30.446  -0.543  35.380  1.00  0.00     0.028 C
BRANCH   9  10
HETATM   10  C6  UNL     1      31.135  -0.645  36.712  1.00  0.00     0.004 C
BRANCH  10  11
HETATM   11  C7  UNL     1      32.564  -1.008  36.508  1.00  0.00     0.005 C
BRANCH  11  12
HETATM   12  C8  UNL     1      33.516   0.018  37.092  1.00  0.00    -0.014 C
HETATM   13  C9  UNL     1      34.721  -0.576  37.742  1.00  0.00     0.004 C
HETATM   14  C10 UNL     1      35.605   0.638  37.944  1.00  0.00     0.000 C
HETATM   15  C11 UNL     1      35.356   1.488  36.730  1.00  0.00     0.000 C
HETATM   16  C12 UNL     1      34.072   0.968  36.089  1.00  0.00     0.004 C
ENDBRANCH  11  12
ENDBRANCH  10  11
ENDBRANCH   9  10
ENDBRANCH   8   9
TORSDOF 4
ENDMDL