MODEL 3
REMARK VINA RESULT: -4.517157408      2.268      5.035
REMARK  4 active torsions:
REMARK  status: ('A' for Active; 'I' for Inactive)
REMARK    1  A    between atoms: C2_2  and  C3_3
REMARK    2  A    between atoms: C3_3  and  C4_4
REMARK    3  A    between atoms: C9_9  and  C11_11
REMARK    4  A    between atoms: C11_11  and  O1_13
ROOT
HETATM    1  C4  UNL     1      33.240  -1.032  35.358  1.00  0.00    -0.003 C
HETATM    2  C5  UNL     1      32.424  -2.300  35.449  1.00  0.00     0.005 C
HETATM    3  C6  UNL     1      33.482  -3.427  35.480  1.00  0.00     0.000 C
HETATM    4  C7  UNL     1      34.135  -3.285  36.839  1.00  0.00     0.001 C
HETATM    5  C8  UNL     1      34.692  -1.934  37.086  1.00  0.00     0.013 C
HETATM    6  C9  UNL     1      33.808  -0.771  36.715  1.00  0.00     0.001 C
HETATM    7  C10 UNL     1      32.718  -0.656  37.767  1.00  0.00     0.019 C
ENDROOT
BRANCH   6   8
HETATM    8  C11 UNL     1      34.651   0.475  36.830  1.00  0.00     0.120 C
HETATM    9  C12 UNL     1      35.646   0.246  37.978  1.00  0.00     0.059 C
HETATM   10  S1  UNL     1      35.585   0.876  35.358  1.00  0.00    -0.056 SA
BRANCH   8  11
HETATM   11  O1  UNL     1      33.841   1.523  37.288  1.00  0.00    -0.378 OA
ATOM     12  H1  UNL     1      34.225   1.879  38.081  1.00  0.00     0.211 HD
ENDBRANCH   8  11
ENDBRANCH   6   8
BRANCH   1  13
HETATM   13  C3  UNL     1      32.477   0.035  34.698  1.00  0.00     0.005 C
BRANCH  13  14
HETATM   14  C2  UNL     1      31.210  -0.526  34.091  1.00  0.00    -0.004 C
HETATM   15  C1  UNL     1      30.031   0.412  34.339  1.00  0.00     0.005 C
ENDBRANCH  13  14
ENDBRANCH   1  13
TORSDOF 4
ENDMDL