MODEL 1
REMARK VINA RESULT: -5.163179016      0.000      0.000
REMARK  5 active torsions:
REMARK  status: ('A' for Active; 'I' for Inactive)
REMARK    1  A    between atoms: C2_2  and  O1_4
REMARK    2  A    between atoms: O1_4  and  C4_5
REMARK    3  A    between atoms: C4_5  and  C5_6
REMARK    4  A    between atoms: C4_5  and  S1_14
REMARK    5  A    between atoms: C5_6  and  C6_7
ROOT
HETATM    1  C5  UNL     1      30.413  -0.717  36.323  1.00  0.00     0.050 C
ENDROOT
BRANCH   1   2
HETATM    2  C4  UNL     1      31.879  -0.884  36.569  1.00  0.00     0.217 C
BRANCH   2   3
HETATM    3  O1  UNL     1      32.418   0.406  36.408  1.00  0.00    -0.369 OA
BRANCH   3   4
HETATM    4  C2  UNL     1      33.794   0.369  36.230  1.00  0.00     0.115 C
HETATM    5  C1  UNL     1      34.115   1.459  35.229  1.00  0.00     0.039 C
HETATM    6  C3  UNL     1      34.554   0.685  37.488  1.00  0.00     0.039 C
ENDBRANCH   3   4
ENDBRANCH   2   3
BRANCH   2   7
HETATM    7  S1  UNL     1      32.570  -2.019  35.341  1.00  0.00     0.073 SA
HETATM    8  F1  UNL     1      31.964  -3.583  35.645  1.00  0.00    -0.162 F
ENDBRANCH   2   7
ENDBRANCH   1   2
BRANCH   1   9
HETATM    9  C6  UNL     1      29.928  -1.053  34.938  1.00  0.00    -0.011 C
HETATM   10  C7  UNL     1      28.820  -2.049  34.927  1.00  0.00     0.005 C
HETATM   11  C8  UNL     1      27.445  -1.459  34.939  1.00  0.00     0.004 C
HETATM   12  C9  UNL     1      27.218  -0.433  33.865  1.00  0.00    -0.019 C
HETATM   13  C10 UNL     1      26.339  -1.041  32.797  1.00  0.00     0.010 C
HETATM   14  C11 UNL     1      28.539   0.015  33.241  1.00  0.00     0.004 C
HETATM   15  C12 UNL     1      29.459   0.309  34.383  1.00  0.00     0.005 C
ENDBRANCH   1   9
TORSDOF 5
ENDMDL