MODEL 5
REMARK VINA RESULT: -4.469350683      1.698      5.969
REMARK  8 active torsions:
REMARK  status: ('A' for Active; 'I' for Inactive)
REMARK    1  A    between atoms: C2_2  and  C3_3
REMARK    2  A    between atoms: C3_3  and  C4_4
REMARK    3  A    between atoms: C4_4  and  C5_5
REMARK    4  A    between atoms: C5_5  and  C7_7
REMARK    5  A    between atoms: C7_7  and  O1_10
REMARK    6  A    between atoms: O1_10  and  C9_11
REMARK    7  A    between atoms: C9_11  and  C10_13
REMARK    8  A    between atoms: C10_13  and  C11_14
ROOT
HETATM    1  C7  UNL     1      32.721  -0.353  36.169  1.00  0.00     0.210 C
HETATM    2  C8  UNL     1      32.837  -1.855  35.957  1.00  0.00     0.085 C
HETATM    3  F1  UNL     1      32.128  -0.079  37.381  1.00  0.00    -0.211 F
ENDROOT
BRANCH   1   4
HETATM    4  C5  UNL     1      34.063   0.306  36.142  1.00  0.00     0.049 C
HETATM    5  C6  UNL     1      34.046   1.353  35.052  1.00  0.00     0.016 C
BRANCH   4   6
HETATM    6  C4  UNL     1      34.419   0.947  37.468  1.00  0.00     0.010 C
BRANCH   6   7
HETATM    7  C3  UNL     1      35.818   0.497  37.847  1.00  0.00     0.000 C
BRANCH   7   8
HETATM    8  C2  UNL     1      35.869  -1.006  38.027  1.00  0.00    -0.005 C
HETATM    9  C1  UNL     1      37.164  -1.313  38.746  1.00  0.00     0.005 C
ENDBRANCH   7   8
ENDBRANCH   6   7
ENDBRANCH   4   6
ENDBRANCH   1   4
BRANCH   1  10
HETATM   10  O1  UNL     1      31.885   0.148  35.143  1.00  0.00    -0.302 OA
BRANCH  10  11
HETATM   11  C9  UNL     1      30.806  -0.572  34.649  1.00  0.00     0.116 C
HETATM   12  S1  UNL     1      30.945  -1.295  33.203  1.00  0.00    -0.058 SA
BRANCH  11  13
HETATM   13  C10 UNL     1      29.591  -0.629  35.492  1.00  0.00     0.077 C
BRANCH  13  14
HETATM   14  C11 UNL     1      28.535  -1.535  34.913  1.00  0.00     0.003 C
HETATM   15  C12 UNL     1      27.405  -0.627  34.425  1.00  0.00     0.005 C
ENDBRANCH  13  14
ENDBRANCH  11  13
ENDBRANCH  10  11
ENDBRANCH   1  10
TORSDOF 8
ENDMDL