MODEL 2
REMARK VINA RESULT: -5.207389848      2.834      4.313
REMARK  7 active torsions:
REMARK  status: ('A' for Active; 'I' for Inactive)
REMARK    1  A    between atoms: C2_2  and  C3_3
REMARK    2  A    between atoms: C3_3  and  C4_4
REMARK    3  A    between atoms: C4_4  and  C5_5
REMARK    4  A    between atoms: C5_5  and  C6_6
REMARK    5  A    between atoms: C6_6  and  C7_7
REMARK    6  A    between atoms: C7_7  and  C8_8
REMARK    7  A    between atoms: C8_8  and  C10_10
ROOT
HETATM    1  C8  UNL     1      30.352  -1.694  35.423  1.00  0.00     0.042 C
HETATM    2  C9  UNL     1      31.286  -1.575  34.215  1.00  0.00     0.017 C
ENDROOT
BRANCH   1   3
HETATM    3  C7  UNL     1      30.744  -0.752  36.509  1.00  0.00     0.011 C
BRANCH   3   4
HETATM    4  C6  UNL     1      32.192  -0.358  36.457  1.00  0.00     0.001 C
BRANCH   4   5
HETATM    5  C5  UNL     1      32.990  -0.791  37.647  1.00  0.00     0.000 C
BRANCH   5   6
HETATM    6  C4  UNL     1      34.373  -0.182  37.667  1.00  0.00     0.000 C
BRANCH   6   7
HETATM    7  C3  UNL     1      34.417   1.185  37.015  1.00  0.00    -0.000 C
BRANCH   7   8
HETATM    8  C2  UNL     1      35.886   1.413  36.633  1.00  0.00    -0.005 C
HETATM    9  C1  UNL     1      36.172   0.993  35.227  1.00  0.00     0.005 C
ENDBRANCH   7   8
ENDBRANCH   6   7
ENDBRANCH   5   6
ENDBRANCH   4   5
ENDBRANCH   3   4
ENDBRANCH   1   3
BRANCH   1  10
HETATM   10  C10 UNL     1      28.986  -1.417  34.909  1.00  0.00     0.103 C
HETATM   11  C11 UNL     1      28.565  -0.321  34.350  1.00  0.00     0.190 C
HETATM   12  F1  UNL     1      29.212   0.796  34.100  1.00  0.00    -0.196 F
HETATM   13  S1  UNL     1      26.844  -0.552  33.937  1.00  0.00     0.012 SA
HETATM   14  C12 UNL     1      26.714  -2.038  35.019  1.00  0.00     0.421 C
HETATM   15  F2  UNL     1      25.915  -2.991  34.432  1.00  0.00    -0.164 F
HETATM   16  F3  UNL     1      26.225  -1.595  36.220  1.00  0.00    -0.164 F
HETATM   17  O1  UNL     1      28.041  -2.402  35.017  1.00  0.00    -0.275 OA
ENDBRANCH   1  10
TORSDOF 7
ENDMDL