MODEL 5
REMARK VINA RESULT: -4.874425495      4.975      8.738
REMARK  5 active torsions:
REMARK  status: ('A' for Active; 'I' for Inactive)
REMARK    1  A    between atoms: C2_2  and  C3_3
REMARK    2  A    between atoms: C3_3  and  C4_4
REMARK    3  A    between atoms: C4_4  and  C5_5
REMARK    4  A    between atoms: C7_7  and  C8_8
REMARK    5  A    between atoms: C8_8  and  C10_10
ROOT
HETATM    1  C5  UNL     1      28.998  -0.660  33.851  1.00  0.00     0.142 C
HETATM    2  C6  UNL     1      27.509  -0.475  33.734  1.00  0.00     0.071 C
HETATM    3  C7  UNL     1      26.952  -1.860  33.370  1.00  0.00    -0.026 C
HETATM    4  C12 UNL     1      27.546  -2.412  32.343  1.00  0.00     0.182 C
HETATM    5  F1  UNL     1      27.158  -3.617  31.930  1.00  0.00    -0.196 F
HETATM    6  S1  UNL     1      28.875  -1.528  31.500  1.00  0.00     0.060 SA
HETATM    7  O1  UNL     1      29.525  -0.377  32.586  1.00  0.00    -0.308 OA
ENDROOT
BRANCH   1   8
HETATM    8  C4  UNL     1      29.639   0.130  34.933  1.00  0.00     0.033 C
BRANCH   8   9
HETATM    9  C3  UNL     1      30.030  -0.743  36.091  1.00  0.00     0.002 C
BRANCH   9  10
HETATM   10  C2  UNL     1      31.517  -1.045  36.072  1.00  0.00    -0.004 C
HETATM   11  C1  UNL     1      32.160  -0.517  37.331  1.00  0.00     0.005 C
ENDBRANCH   9  10
ENDBRANCH   8   9
ENDBRANCH   1   8
BRANCH   3  12
HETATM   12  C8  UNL     1      25.871  -2.287  34.198  1.00  0.00     0.014 C
HETATM   13  C9  UNL     1      26.274  -1.889  35.643  1.00  0.00     0.015 C
BRANCH  12  14
HETATM   14  C10 UNL     1      24.477  -1.909  34.062  1.00  0.00     0.004 C
HETATM   15  C11 UNL     1      23.599  -2.711  33.158  1.00  0.00     0.006 C
ENDBRANCH  12  14
ENDBRANCH   3  12
TORSDOF 5
ENDMDL