MODEL 5
REMARK VINA RESULT: -5.154164916      2.559      3.164
REMARK  7 active torsions:
REMARK  status: ('A' for Active; 'I' for Inactive)
REMARK    1  A    between atoms: C4_4  and  C5_5
REMARK    2  A    between atoms: C5_5  and  C6_6
REMARK    3  A    between atoms: C6_6  and  C7_7
REMARK    4  A    between atoms: C7_7  and  C8_8
REMARK    5  A    between atoms: C8_8  and  C9_9
REMARK    6  A    between atoms: C9_9  and  O1_10
REMARK    7  A    between atoms: C9_9  and  S1_12
ROOT
HETATM    1  C5  UNL     1      31.713  -0.693  36.991  1.00  0.00     0.005 C
ENDROOT
BRANCH   1   2
HETATM    2  C4  UNL     1      33.053  -0.356  37.614  1.00  0.00    -0.014 C
HETATM    3  C3  UNL     1      34.000  -1.539  37.609  1.00  0.00     0.009 C
HETATM    4  C2  UNL     1      35.345  -0.801  37.570  1.00  0.00    -0.015 C
HETATM    5  C1  UNL     1      36.483  -1.737  37.271  1.00  0.00     0.010 C
HETATM    6  C11 UNL     1      35.086   0.163  36.432  1.00  0.00    -0.015 C
HETATM    7  C10 UNL     1      33.740   0.735  36.829  1.00  0.00     0.009 C
HETATM    8  C12 UNL     1      36.145   1.237  36.348  1.00  0.00     0.010 C
ENDBRANCH   1   2
BRANCH   1   9
HETATM    9  C6  UNL     1      31.872  -1.602  35.809  1.00  0.00     0.000 C
BRANCH   9  10
HETATM   10  C7  UNL     1      30.643  -1.748  34.972  1.00  0.00     0.004 C
BRANCH  10  11
HETATM   11  C8  UNL     1      29.527  -0.891  35.466  1.00  0.00     0.045 C
BRANCH  11  12
HETATM   12  C9  UNL     1      29.075   0.105  34.413  1.00  0.00     0.212 C
BRANCH  12  13
HETATM   13  O1  UNL     1      30.004   1.103  34.184  1.00  0.00    -0.383 OA
ATOM     14  H1  UNL     1      30.878   0.765  34.030  1.00  0.00     0.211 HD
ENDBRANCH  12  13
BRANCH  12  15
HETATM   15  S1  UNL     1      28.829  -0.799  32.860  1.00  0.00     0.073 SA
HETATM   16  F1  UNL     1      27.731   0.062  31.866  1.00  0.00    -0.162 F
ENDBRANCH  12  15
ENDBRANCH  11  12
ENDBRANCH  10  11
ENDBRANCH   9  10
ENDBRANCH   1   9
TORSDOF 7
ENDMDL