MODEL 2
REMARK VINA RESULT: -5.033141188      1.365      1.771
REMARK  7 active torsions:
REMARK  status: ('A' for Active; 'I' for Inactive)
REMARK    1  A    between atoms: C2_2  and  C3_3
REMARK    2  A    between atoms: C3_3  and  C4_4
REMARK    3  A    between atoms: C4_4  and  C5_5
REMARK    4  A    between atoms: C5_5  and  C6_6
REMARK    5  A    between atoms: C6_6  and  C7_7
REMARK    6  A    between atoms: C12_12  and  S1_14
REMARK    7  A    between atoms: S1_14  and  O1_15
ROOT
HETATM    1  C7  UNL     1      32.365  -1.281  36.855  1.00  0.00     0.039 C
HETATM    2  C8  UNL     1      33.339  -2.228  36.183  1.00  0.00     0.009 C
HETATM    3  C9  UNL     1      32.502  -3.102  35.281  1.00  0.00     0.009 C
HETATM    4  C10 UNL     1      31.074  -2.642  35.429  1.00  0.00     0.035 C
HETATM    5  C11 UNL     1      30.301  -2.737  34.133  1.00  0.00     0.014 C
HETATM    6  C12 UNL     1      31.222  -1.218  35.913  1.00  0.00     0.186 C
HETATM    7  F1  UNL     1      30.036  -0.823  36.527  1.00  0.00    -0.228 F
ENDROOT
BRANCH   1   8
HETATM    8  C6  UNL     1      32.994   0.008  37.239  1.00  0.00     0.009 C
BRANCH   8   9
HETATM    9  C5  UNL     1      34.435  -0.141  37.652  1.00  0.00     0.001 C
BRANCH   9  10
HETATM   10  C4  UNL     1      35.156   1.132  37.203  1.00  0.00     0.000 C
BRANCH  10  11
HETATM   11  C3  UNL     1      34.771   1.521  35.813  1.00  0.00    -0.000 C
BRANCH  11  12
HETATM   12  C2  UNL     1      35.672   0.797  34.844  1.00  0.00    -0.005 C
HETATM   13  C1  UNL     1      37.112   1.110  35.096  1.00  0.00     0.005 C
ENDBRANCH  11  12
ENDBRANCH  10  11
ENDBRANCH   9  10
ENDBRANCH   8   9
ENDBRANCH   1   8
BRANCH   6  14
HETATM   14  S1  UNL     1      31.475  -0.124  34.518  1.00  0.00     0.078 SA
BRANCH  14  15
HETATM   15  O1  UNL     1      30.251   1.020  34.274  1.00  0.00    -0.117 OA
HETATM   16  F2  UNL     1      29.136   0.400  33.967  1.00  0.00    -0.034 F
ENDBRANCH  14  15
ENDBRANCH   6  14
TORSDOF 7
ENDMDL