MODEL 1
REMARK VINA RESULT: -4.792577485      0.000      0.000
REMARK  7 active torsions:
REMARK  status: ('A' for Active; 'I' for Inactive)
REMARK    1  A    between atoms: C2_2  and  C3_3
REMARK    2  A    between atoms: C3_3  and  C4_4
REMARK    3  A    between atoms: C8_8  and  O1_9
REMARK    4  A    between atoms: O1_9  and  C9_10
REMARK    5  A    between atoms: C9_10  and  C10_11
REMARK    6  A    between atoms: C9_10  and  S1_13
REMARK    7  A    between atoms: S1_13  and  C11_14
ROOT
HETATM    1  C4  UNL     1      34.272   0.549  36.923  1.00  0.00     0.015 C
HETATM    2  C5  UNL     1      35.221   1.297  36.057  1.00  0.00     0.007 C
HETATM    3  C6  UNL     1      34.239   2.012  35.101  1.00  0.00     0.003 C
HETATM    4  C7  UNL     1      33.375   0.840  34.700  1.00  0.00     0.032 C
HETATM    5  C8  UNL     1      33.261  -0.030  35.927  1.00  0.00     0.127 C
ENDROOT
BRANCH   5   6
HETATM    6  O1  UNL     1      31.999   0.086  36.440  1.00  0.00    -0.367 OA
BRANCH   6   7
HETATM    7  C9  UNL     1      31.222  -1.034  36.391  1.00  0.00     0.211 C
BRANCH   7   8
HETATM    8  C10 UNL     1      31.858  -2.180  35.637  1.00  0.00     0.264 C
HETATM    9  F1  UNL     1      31.017  -3.241  35.469  1.00  0.00    -0.252 F
ENDBRANCH   7   8
BRANCH   7  10
HETATM   10  S1  UNL     1      29.586  -0.762  35.690  1.00  0.00    -0.135 SA
BRANCH  10  11
HETATM   11  C11 UNL     1      29.672   0.367  34.279  1.00  0.00     0.072 C
HETATM   12  C12 UNL     1      28.618  -0.015  33.236  1.00  0.00     0.016 C
ENDBRANCH  10  11
ENDBRANCH   7  10
ENDBRANCH   6   7
ENDBRANCH   5   6
BRANCH   1  13
HETATM   13  C3  UNL     1      34.802  -0.498  37.818  1.00  0.00     0.007 C
BRANCH  13  14
HETATM   14  C2  UNL     1      36.204  -0.292  38.248  1.00  0.00    -0.004 C
HETATM   15  C1  UNL     1      36.936  -1.507  38.686  1.00  0.00     0.005 C
ENDBRANCH  13  14
ENDBRANCH   1  13
TORSDOF 7
ENDMDL