MODEL 5
REMARK VINA RESULT: -4.422622708      1.534      2.007
REMARK  7 active torsions:
REMARK  status: ('A' for Active; 'I' for Inactive)
REMARK    1  A    between atoms: C2_2  and  C3_3
REMARK    2  A    between atoms: C3_3  and  C4_4
REMARK    3  A    between atoms: C4_4  and  C6_6
REMARK    4  A    between atoms: C6_6  and  C7_7
REMARK    5  A    between atoms: C7_7  and  O1_9
REMARK    6  A    between atoms: O1_9  and  C8_10
REMARK    7  A    between atoms: C8_10  and  C10_13
ROOT
HETATM    1  C7  UNL     1      33.025  -1.500  36.595  1.00  0.00     0.117 C
HETATM    2  S1  UNL     1      34.096  -2.624  36.171  1.00  0.00    -0.058 SA
ENDROOT
BRANCH   1   3
HETATM    3  C6  UNL     1      33.468  -0.312  37.343  1.00  0.00     0.081 C
BRANCH   3   4
HETATM    4  C4  UNL     1      34.769   0.264  36.839  1.00  0.00    -0.012 C
HETATM    5  C5  UNL     1      35.715   0.382  38.015  1.00  0.00     0.010 C
BRANCH   4   6
HETATM    6  C3  UNL     1      34.511   1.647  36.310  1.00  0.00     0.004 C
BRANCH   6   7
HETATM    7  C2  UNL     1      33.964   1.623  34.910  1.00  0.00    -0.004 C
HETATM    8  C1  UNL     1      34.905   0.780  34.060  1.00  0.00     0.005 C
ENDBRANCH   6   7
ENDBRANCH   4   6
ENDBRANCH   3   4
ENDBRANCH   1   3
BRANCH   1   9
HETATM    9  O1  UNL     1      31.719  -1.636  36.267  1.00  0.00    -0.299 OA
BRANCH   9  10
HETATM   10  C8  UNL     1      31.128  -1.517  35.016  1.00  0.00     0.242 C
HETATM   11  C9  UNL     1      30.657  -2.858  34.476  1.00  0.00     0.088 C
HETATM   12  F1  UNL     1      31.941  -0.923  34.073  1.00  0.00    -0.208 F
BRANCH  10  13
HETATM   13  C10 UNL     1      29.886  -0.639  35.211  1.00  0.00     0.157 C
HETATM   14  C11 UNL     1      29.855   0.521  34.280  1.00  0.00     0.057 C
HETATM   15  C12 UNL     1      28.679  -1.536  35.084  1.00  0.00     0.057 C
HETATM   16  F2  UNL     1      29.915  -0.159  36.512  1.00  0.00    -0.238 F
ENDBRANCH  10  13
ENDBRANCH   9  10
ENDBRANCH   1   9
TORSDOF 7
ENDMDL