MODEL 1
REMARK VINA RESULT: -7.421965166      0.000      0.000
REMARK  4 active torsions:
REMARK  status: ('A' for Active; 'I' for Inactive)
REMARK    1  A    between atoms: N2_10  and  C8_12
REMARK    2  A    between atoms: C8_12  and  C9_13
REMARK    3  A    between atoms: C9_13  and  C10_14
REMARK    4  A    between atoms: C10_14  and  N3_15
ROOT
HETATM    1  C1  UNL     1      48.126  31.889  17.702  1.00  0.00     0.018 C
HETATM    2  C2  UNL     1      47.508  31.876  18.748  1.00  0.00    -0.074 C
HETATM    3  C3  UNL     1      46.789  31.840  19.999  1.00  0.00     0.060 A
HETATM    4  C4  UNL     1      47.205  30.974  20.994  1.00  0.00     0.026 A
HETATM    5  C5  UNL     1      46.510  30.956  22.169  1.00  0.00     0.019 A
HETATM    6  C6  UNL     1      45.424  31.776  22.366  1.00  0.00     0.090 A
HETATM    7  N1  UNL     1      45.063  32.598  21.365  1.00  0.00    -0.351 N
ATOM      8  H1  UNL     1      44.256  33.203  21.517  1.00  0.00     0.166 HD
HETATM    9  C7  UNL     1      45.689  32.680  20.179  1.00  0.00     0.119 A
HETATM   10  N2  UNL     1      45.378  33.439  19.220  1.00  0.00    -0.375 N
ATOM     11  H2  UNL     1      45.969  33.364  18.392  1.00  0.00     0.161 HD
ENDROOT
BRANCH  10  12
HETATM   12  C8  UNL     1      44.322  34.380  19.132  1.00  0.00     0.123 C
BRANCH  12  13
HETATM   13  C9  UNL     1      44.321  35.176  17.848  1.00  0.00     0.039 C
BRANCH  13  14
HETATM   14  C10 UNL     1      45.773  35.540  17.523  1.00  0.00     0.123 C
BRANCH  14  15
HETATM   15  N3  UNL     1      46.184  34.939  16.279  1.00  0.00    -0.367 N
HETATM   16  C11 UNL     1      47.425  34.816  16.017  1.00  0.00     0.196 C
HETATM   17  N4  UNL     1      47.923  34.236  14.816  1.00  0.00    -0.067 NA
HETATM   18  N5  UNL     1      48.406  35.268  16.943  1.00  0.00    -0.067 NA
ATOM     19  H3  UNL     1      45.485  34.614  15.611  1.00  0.00     0.161 HD
ENDBRANCH  14  15
ENDBRANCH  13  14
ENDBRANCH  12  13
ENDBRANCH  10  12
TORSDOF 4
ENDMDL