MODEL 4
REMARK VINA RESULT: -7.145236909      1.630      2.417
REMARK  5 active torsions:
REMARK  status: ('A' for Active; 'I' for Inactive)
REMARK    1  A    between atoms: C3_3  and  C4_4
REMARK    2  A    between atoms: C4_4  and  C5_5
REMARK    3  A    between atoms: C5_5  and  C6_6
REMARK    4  A    between atoms: C6_6  and  C7_7
REMARK    5  A    between atoms: C10_13  and  N2_14
ROOT
HETATM    1  C1  UNL     1      49.551  40.865  20.154  1.00  0.00     0.012 C
HETATM    2  C2  UNL     1      49.389  40.145  21.108  1.00  0.00    -0.117 C
HETATM    3  C3  UNL     1      49.180  39.277  22.294  1.00  0.00     0.093 C
ENDROOT
BRANCH   3   4
HETATM    4  C4  UNL     1      48.645  37.985  21.779  1.00  0.00     0.012 C
BRANCH   4   5
HETATM    5  C5  UNL     1      49.558  37.310  20.763  1.00  0.00     0.006 C
BRANCH   5   6
HETATM    6  C6  UNL     1      49.069  35.922  20.563  1.00  0.00     0.040 C
BRANCH   6   7
HETATM    7  C7  UNL     1      47.930  35.801  19.630  1.00  0.00    -0.038 A
HETATM    8  C8  UNL     1      46.636  35.681  19.574  1.00  0.00     0.066 A
HETATM    9  C9  UNL     1      45.443  35.584  20.236  1.00  0.00     0.272 A
HETATM   10  C11 UNL     1      46.615  35.658  18.206  1.00  0.00     0.066 A
HETATM   11  O1  UNL     1      45.436  35.603  21.481  1.00  0.00    -0.267 OA
HETATM   12  N1  UNL     1      44.280  35.465  19.533  1.00  0.00    -0.156 N
HETATM   13  C10 UNL     1      44.250  35.440  18.193  1.00  0.00     0.679 A
ATOM     14  H1  UNL     1      43.402  35.393  20.046  1.00  0.00     0.187 HD
HETATM   15  N3  UNL     1      45.423  35.537  17.549  1.00  0.00    -0.191 N
ATOM     16  H3  UNL     1      45.426  35.521  16.529  1.00  0.00     0.184 HD
HETATM   17  C12 UNL     1      47.906  35.776  18.182  1.00  0.00     0.039 A
BRANCH  13  18
HETATM   18  N2  UNL     1      43.152  35.329  17.515  1.00  0.00    -0.234 N
ATOM     19  H22 UNL     1      42.267  35.609  17.936  1.00  0.00     0.174 HD
ATOM     20  H21 UNL     1      43.123  34.968  16.561  1.00  0.00     0.174 HD
ENDBRANCH  13  18
ENDBRANCH   6   7
ENDBRANCH   5   6
ENDBRANCH   4   5
ENDBRANCH   3   4
TORSDOF 5
ENDMDL