MODEL 3
REMARK VINA RESULT: -7.389843363      2.004      3.082
REMARK  6 active torsions:
REMARK  status: ('A' for Active; 'I' for Inactive)
REMARK    1  A    between atoms: N1_1  and  C1_5
REMARK    2  A    between atoms: C1_5  and  C2_6
REMARK    3  A    between atoms: C2_6  and  C3_7
REMARK    4  A    between atoms: C3_7  and  C4_8
REMARK    5  A    between atoms: C6_15  and  C7_16
REMARK    6  A    between atoms: C7_16  and  C8_17
ROOT
HETATM    1  C4  UNL     1      45.482  34.885  18.073  1.00  0.00     0.059 A
HETATM    2  N2  UNL     1      44.346  35.193  17.405  1.00  0.00    -0.307 N
ATOM      3  H2  UNL     1      44.251  35.165  16.390  1.00  0.00     0.170 HD
HETATM    4  C5  UNL     1      43.364  35.538  18.247  1.00  0.00     0.325 A
HETATM    5  O1  UNL     1      42.187  35.880  17.963  1.00  0.00    -0.247 OA
HETATM    6  N3  UNL     1      43.893  35.448  19.504  1.00  0.00    -0.306 N
ATOM      7  H3  UNL     1      43.397  35.647  20.373  1.00  0.00     0.170 HD
HETATM    8  C6  UNL     1      45.173  35.054  19.406  1.00  0.00     0.063 A
ENDROOT
BRANCH   1   9
HETATM    9  C3  UNL     1      46.628  34.508  17.536  1.00  0.00     0.007 C
BRANCH   9  10
HETATM   10  C2  UNL     1      47.375  35.451  16.681  1.00  0.00     0.056 C
BRANCH  10  11
HETATM   11  C1  UNL     1      48.075  34.765  15.538  1.00  0.00     0.233 C
BRANCH  11  12
HETATM   12  N1  UNL     1      47.698  33.360  15.582  1.00  0.00    -0.079 N
ATOM     13  H13 UNL     1      47.937  32.910  16.465  1.00  0.00     0.274 HD
ATOM     14  H12 UNL     1      46.689  33.219  15.632  1.00  0.00     0.274 HD
ATOM     15  H11 UNL     1      48.124  32.907  14.774  1.00  0.00     0.274 HD
ENDBRANCH  11  12
ENDBRANCH  10  11
ENDBRANCH   9  10
ENDBRANCH   1   9
BRANCH   8  16
HETATM   16  C7  UNL     1      45.969  34.870  20.442  1.00  0.00     0.043 C
BRANCH  16  17
HETATM   17  C8  UNL     1      47.039  35.811  20.780  1.00  0.00    -0.034 A
HETATM   18  C9  UNL     1      46.760  36.856  21.635  1.00  0.00     0.011 A
HETATM   19  C10 UNL     1      47.785  37.728  21.937  1.00  0.00     0.001 A
HETATM   20  C11 UNL     1      49.061  37.601  21.424  1.00  0.00     0.000 A
HETATM   21  C12 UNL     1      49.321  36.549  20.570  1.00  0.00     0.001 A
HETATM   22  C13 UNL     1      48.313  35.667  20.257  1.00  0.00     0.011 A
ENDBRANCH  16  17
ENDBRANCH   8  16
TORSDOF 6
ENDMDL