MODEL 4
REMARK VINA RESULT: -6.067933986      2.609      4.938
REMARK  5 active torsions:
REMARK  status: ('A' for Active; 'I' for Inactive)
REMARK    1  A    between atoms: O1_3  and  C3_4
REMARK    2  A    between atoms: C3_4  and  C4_5
REMARK    3  A    between atoms: N2_10  and  C7_11
REMARK    4  A    between atoms: C7_11  and  N3_12
REMARK    5  A    between atoms: N3_12  and  C8_14
ROOT
HETATM    1  C1  UNL     1      48.028  34.417  15.123  1.00  0.00     0.044 C
HETATM    2  C2  UNL     1      48.086  34.724  16.287  1.00  0.00     0.043 C
HETATM    3  O1  UNL     1      48.132  35.061  17.616  1.00  0.00    -0.298 OA
ENDROOT
BRANCH   3   4
HETATM    4  C3  UNL     1      47.087  35.891  18.090  1.00  0.00     0.246 C
BRANCH   4   5
HETATM    5  C4  UNL     1      45.859  35.178  18.399  1.00  0.00     0.054 A
HETATM    6  C5  UNL     1      44.683  35.234  17.700  1.00  0.00     0.116 A
HETATM    7  N1  UNL     1      43.766  34.446  18.273  1.00  0.00    -0.360 N
HETATM    8  C6  UNL     1      44.365  33.892  19.336  1.00  0.00     0.184 A
ATOM      9  H1  UNL     1      42.805  34.297  17.964  1.00  0.00     0.166 HD
HETATM   10  N2  UNL     1      45.655  34.338  19.419  1.00  0.00    -0.326 N
BRANCH  10  11
HETATM   11  C7  UNL     1      46.535  33.907  20.463  1.00  0.00     0.254 C
BRANCH  11  12
HETATM   12  N3  UNL     1      47.711  33.251  19.872  1.00  0.00    -0.353 N
ATOM     13  H3  UNL     1      48.562  33.793  19.724  1.00  0.00     0.163 HD
BRANCH  12  14
HETATM   14  C8  UNL     1      47.686  31.890  19.508  1.00  0.00     0.182 C
HETATM   15  N4  UNL     1      48.069  31.464  18.206  1.00  0.00    -0.070 NA
HETATM   16  S1  UNL     1      47.205  30.782  20.602  1.00  0.00    -0.044 SA
ENDBRANCH  12  14
ENDBRANCH  11  12
ENDBRANCH  10  11
ENDBRANCH   4   5
ENDBRANCH   3   4
TORSDOF 5
ENDMDL