MODEL 2
REMARK VINA RESULT: -6.492489393      0.650      1.179
REMARK  6 active torsions:
REMARK  status: ('A' for Active; 'I' for Inactive)
REMARK    1  A    between atoms: N1_1  and  C1_5
REMARK    2  A    between atoms: C1_5  and  C2_6
REMARK    3  A    between atoms: C2_6  and  N2_7
REMARK    4  A    between atoms: N2_7  and  C3_9
REMARK    5  A    between atoms: C6_12  and  C7_13
REMARK    6  A    between atoms: C7_13  and  N3_14
ROOT
HETATM    1  C3  UNL     1      45.968  35.161  18.708  1.00  0.00     0.100 A
HETATM    2  C4  UNL     1      46.037  35.167  20.089  1.00  0.00     0.049 A
HETATM    3  C5  UNL     1      47.184  35.627  20.713  1.00  0.00     0.014 A
HETATM    4  C6  UNL     1      48.260  36.080  19.978  1.00  0.00    -0.024 A
HETATM    5  C11 UNL     1      48.166  36.063  18.603  1.00  0.00     0.098 A
HETATM    6  N5  UNL     1      47.037  35.610  18.027  1.00  0.00    -0.352 N
ATOM      7  H5  UNL     1      46.990  35.607  17.009  1.00  0.00     0.166 HD
ENDROOT
BRANCH   1   8
HETATM    8  N2  UNL     1      44.898  34.733  18.093  1.00  0.00    -0.375 N
ATOM      9  H2  UNL     1      44.849  34.694  17.075  1.00  0.00     0.161 HD
BRANCH   8  10
HETATM   10  C2  UNL     1      43.784  34.317  18.921  1.00  0.00     0.148 C
BRANCH  10  11
HETATM   11  C1  UNL     1      42.759  35.457  18.849  1.00  0.00     0.249 C
BRANCH  11  12
HETATM   12  N1  UNL     1      42.707  36.005  17.510  1.00  0.00    -0.078 N
ATOM     13  H13 UNL     1      43.006  35.326  16.810  1.00  0.00     0.274 HD
ATOM     14  H12 UNL     1      41.748  36.139  17.191  1.00  0.00     0.274 HD
ATOM     15  H11 UNL     1      43.249  36.868  17.458  1.00  0.00     0.274 HD
ENDBRANCH  11  12
ENDBRANCH  10  11
ENDBRANCH   8  10
ENDBRANCH   1   8
BRANCH   4  16
HETATM   16  C7  UNL     1      49.525  36.588  20.564  1.00  0.00     0.169 C
BRANCH  16  17
HETATM   17  N3  UNL     1      49.388  37.961  21.038  1.00  0.00    -0.347 N
HETATM   18  C8  UNL     1      49.937  39.011  20.430  1.00  0.00     0.109 A
HETATM   19  C9  UNL     1      49.601  40.133  21.149  1.00  0.00     0.106 A
HETATM   20  N4  UNL     1      48.855  39.710  22.172  1.00  0.00    -0.361 N
HETATM   21  C10 UNL     1      48.724  38.381  22.103  1.00  0.00     0.182 A
ATOM     22  H4  UNL     1      48.448  40.306  22.893  1.00  0.00     0.166 HD
ENDBRANCH  16  17
ENDBRANCH   4  16
TORSDOF 6
ENDMDL