MODEL 3
REMARK VINA RESULT: -7.353026305      1.722      2.347
REMARK  5 active torsions:
REMARK  status: ('A' for Active; 'I' for Inactive)
REMARK    1  A    between atoms: C4_4  and  C5_5
REMARK    2  A    between atoms: C5_5  and  C6_6
REMARK    3  A    between atoms: C6_6  and  N1_7
REMARK    4  A    between atoms: C8_11  and  N3_12
REMARK    5  A    between atoms: N5_19  and  O1_20
ROOT
HETATM    1  C6  UNL     1      49.486  37.012  20.077  1.00  0.00     0.155 C
ENDROOT
BRANCH   1   2
HETATM    2  C5  UNL     1      48.679  35.777  20.453  1.00  0.00     0.060 C
BRANCH   2   3
HETATM    3  C4  UNL     1      47.544  35.578  19.515  1.00  0.00    -0.053 A
HETATM    4  C3  UNL     1      46.237  35.479  19.985  1.00  0.00     0.034 A
HETATM    5  C2  UNL     1      45.187  35.295  19.116  1.00  0.00     0.036 A
HETATM    6  C1  UNL     1      43.823  35.200  19.695  1.00  0.00     0.071 C
HETATM    7  N5  UNL     1      45.393  35.205  17.789  1.00  0.00    -0.241 N
HETATM    8  C10 UNL     1      46.639  35.294  17.292  1.00  0.00     0.123 A
HETATM    9  C9  UNL     1      47.711  35.481  18.150  1.00  0.00     0.027 A
BRANCH   7  10
HETATM   10  O1  UNL     1      44.295  35.021  16.985  1.00  0.00    -0.283 OA
ATOM     11  H1  UNL     1      43.992  34.130  16.851  1.00  0.00     0.245 HD
ENDBRANCH   7  10
ENDBRANCH   2   3
ENDBRANCH   1   2
BRANCH   1  12
HETATM   12  N1  UNL     1      49.312  38.069  21.044  1.00  0.00    -0.273 N
HETATM   13  C7  UNL     1      49.817  39.321  20.901  1.00  0.00     0.218 A
HETATM   14  N2  UNL     1      49.453  40.036  21.999  1.00  0.00    -0.185 N
HETATM   15  C8  UNL     1      48.736  39.234  22.802  1.00  0.00     0.691 A
ATOM     16  H2  UNL     1      49.685  41.012  22.181  1.00  0.00     0.185 HD
HETATM   17  N4  UNL     1      48.664  38.050  22.204  1.00  0.00    -0.129 N
ATOM     18  H4  UNL     1      48.178  37.238  22.585  1.00  0.00     0.206 HD
BRANCH  15  19
HETATM   19  N3  UNL     1      48.219  39.562  23.936  1.00  0.00    -0.233 N
ATOM     20  H32 UNL     1      48.034  40.506  24.275  1.00  0.00     0.174 HD
ATOM     21  H31 UNL     1      47.918  38.919  24.668  1.00  0.00     0.174 HD
ENDBRANCH  15  19
ENDBRANCH   1  12
TORSDOF 5
ENDMDL