MODEL 1
REMARK VINA RESULT: -6.561463675      0.000      0.000
REMARK  6 active torsions:
REMARK  status: ('A' for Active; 'I' for Inactive)
REMARK    1  A    between atoms: O1_1  and  C1_3
REMARK    2  A    between atoms: N2_8  and  C4_9
REMARK    3  A    between atoms: C4_9  and  C5_10
REMARK    4  A    between atoms: C7_14  and  C8_15
REMARK    5  A    between atoms: C8_15  and  C9_16
REMARK    6  A    between atoms: C9_16  and  O2_17
ROOT
HETATM    1  C5  UNL     1      47.073  35.199  19.097  1.00  0.00    -0.023 A
HETATM    2  C6  UNL     1      47.928  35.790  18.193  1.00  0.00     0.097 A
HETATM    3  N3  UNL     1      48.740  36.611  18.867  1.00  0.00    -0.368 N
ATOM      4  H3  UNL     1      49.474  37.179  18.444  1.00  0.00     0.165 HD
HETATM    5  C7  UNL     1      48.453  36.584  20.188  1.00  0.00     0.011 A
HETATM    6  C10 UNL     1      47.399  35.697  20.364  1.00  0.00     0.035 A
ENDROOT
BRANCH   1   7
HETATM    7  C4  UNL     1      46.013  34.217  18.748  1.00  0.00     0.172 C
BRANCH   7   8
HETATM    8  N2  UNL     1      46.387  32.896  19.250  1.00  0.00    -0.318 N
HETATM    9  C1  UNL     1      45.619  32.090  19.999  1.00  0.00     0.223 A
HETATM   10  N1  UNL     1      46.264  30.946  20.290  1.00  0.00    -0.331 N
HETATM   11  C2  UNL     1      47.459  31.051  19.705  1.00  0.00     0.109 A
ATOM     12  H1  UNL     1      45.913  30.163  20.842  1.00  0.00     0.168 HD
HETATM   13  C3  UNL     1      47.550  32.253  19.057  1.00  0.00     0.112 A
BRANCH   9  14
HETATM   14  O1  UNL     1      44.310  32.401  20.424  1.00  0.00    -0.332 OA
ATOM     15  H1  UNL     1      43.523  32.217  19.923  1.00  0.00     0.221 HD
ENDBRANCH   9  14
ENDBRANCH   7   8
ENDBRANCH   1   7
BRANCH   5  16
HETATM   16  C8  UNL     1      49.104  37.338  21.292  1.00  0.00     0.083 C
BRANCH  16  17
HETATM   17  C9  UNL     1      50.207  38.187  20.662  1.00  0.00     0.170 C
BRANCH  17  18
HETATM   18  O2  UNL     1      51.253  37.370  20.232  1.00  0.00    -0.400 OA
ATOM     19  H2  UNL     1      51.949  37.900  19.863  1.00  0.00     0.209 HD
ENDBRANCH  17  18
ENDBRANCH  16  17
ENDBRANCH   5  16
TORSDOF 6
ENDMDL