MODEL 2
REMARK VINA RESULT: -5.898222213      2.346      4.533
REMARK  5 active torsions:
REMARK  status: ('A' for Active; 'I' for Inactive)
REMARK    1  A    between atoms: C1_2  and  N2_4
REMARK    2  A    between atoms: N2_4  and  C2_6
REMARK    3  A    between atoms: C2_6  and  C3_7
REMARK    4  A    between atoms: C3_7  and  C4_8
REMARK    5  A    between atoms: C4_8  and  N3_9
ROOT
HETATM    1  N3  UNL     1      47.563  32.114  18.268  1.00  0.00    -0.226 N
ATOM      2  H3  UNL     1      47.590  31.240  17.744  1.00  0.00     0.177 HD
HETATM    3  C5  UNL     1      47.633  33.239  17.641  1.00  0.00     0.677 A
HETATM    4  N4  UNL     1      47.597  34.461  18.349  1.00  0.00    -0.202 N
ATOM      5  H4  UNL     1      47.516  34.447  19.365  1.00  0.00     0.183 HD
HETATM    6  C6  UNL     1      47.667  35.611  17.726  1.00  0.00     0.107 A
HETATM    7  C7  UNL     1      47.783  35.627  16.272  1.00  0.00     0.035 A
HETATM    8  C8  UNL     1      47.822  34.517  15.537  1.00  0.00     0.107 A
HETATM    9  N5  UNL     1      47.746  33.268  16.232  1.00  0.00    -0.202 N
ATOM     10  H5  UNL     1      47.773  32.394  15.708  1.00  0.00     0.183 HD
ENDROOT
BRANCH   1  11
HETATM   11  C4  UNL     1      47.446  32.088  19.721  1.00  0.00     0.139 C
BRANCH  11  12
HETATM   12  C3  UNL     1      46.119  31.522  20.152  1.00  0.00     0.040 C
BRANCH  12  13
HETATM   13  C2  UNL     1      45.219  32.594  20.709  1.00  0.00     0.123 C
BRANCH  13  14
HETATM   14  N2  UNL     1      44.405  33.243  19.705  1.00  0.00    -0.369 N
ATOM     15  H2  UNL     1      43.928  32.656  19.022  1.00  0.00     0.161 HD
BRANCH  14  16
HETATM   16  C1  UNL     1      44.233  34.641  19.614  1.00  0.00     0.180 C
HETATM   17  N1  UNL     1      45.145  35.533  20.229  1.00  0.00    -0.070 NA
HETATM   18  S1  UNL     1      42.986  35.328  18.802  1.00  0.00    -0.044 SA
ENDBRANCH  14  16
ENDBRANCH  13  14
ENDBRANCH  12  13
ENDBRANCH  11  12
ENDBRANCH   1  11
TORSDOF 5
ENDMDL