MODEL 3
REMARK VINA RESULT: -7.170097757      4.377      6.109
REMARK  5 active torsions:
REMARK  status: ('A' for Active; 'I' for Inactive)
REMARK    1  A    between atoms: N1_7  and  C7_8
REMARK    2  A    between atoms: C7_8  and  C8_9
REMARK    3  A    between atoms: C8_9  and  C9_10
REMARK    4  A    between atoms: C9_10  and  N2_11
REMARK    5  A    between atoms: C10_16  and  N5_17
ROOT
HETATM    1  N2  UNL     1      49.884  38.893  20.339  1.00  0.00    -0.205 N
HETATM    2  N3  UNL     1      49.868  39.525  19.175  1.00  0.00    -0.211 N
ATOM      3  H3  UNL     1      49.889  39.059  18.268  1.00  0.00     0.210 HD
HETATM    4  N4  UNL     1      49.821  40.819  19.331  1.00  0.00    -0.115 N
ATOM      5  H4  UNL     1      49.799  41.517  18.588  1.00  0.00     0.207 HD
HETATM    6  C10 UNL     1      49.806  41.061  20.662  1.00  0.00     0.707 A
HETATM    7  N6  UNL     1      49.847  39.853  21.250  1.00  0.00    -0.113 N
ATOM      8  H6  UNL     1      49.848  39.697  22.257  1.00  0.00     0.207 HD
ENDROOT
BRANCH   1   9
HETATM    9  C9  UNL     1      49.933  37.481  20.579  1.00  0.00     0.173 C
BRANCH   9  10
HETATM   10  C8  UNL     1      48.579  36.927  21.039  1.00  0.00     0.044 C
BRANCH  10  11
HETATM   11  C7  UNL     1      48.317  35.700  20.212  1.00  0.00     0.130 C
BRANCH  11  12
HETATM   12  N1  UNL     1      47.002  35.597  19.679  1.00  0.00    -0.360 N
HETATM   13  C2  UNL     1      46.815  35.649  18.356  1.00  0.00     0.007 A
HETATM   14  C1  UNL     1      47.950  35.800  17.398  1.00  0.00     0.068 C
HETATM   15  C3  UNL     1      45.554  35.558  17.803  1.00  0.00     0.025 A
HETATM   16  C4  UNL     1      44.468  35.411  18.638  1.00  0.00     0.003 A
HETATM   17  C5  UNL     1      44.644  35.357  19.983  1.00  0.00     0.017 A
HETATM   18  C6  UNL     1      45.937  35.453  20.477  1.00  0.00     0.091 A
ENDBRANCH  11  12
ENDBRANCH  10  11
ENDBRANCH   9  10
ENDBRANCH   1   9
BRANCH   6  19
HETATM   19  N5  UNL     1      49.764  42.215  21.232  1.00  0.00    -0.232 N
ATOM     20  H52 UNL     1      50.412  42.596  21.921  1.00  0.00     0.174 HD
ATOM     21  H51 UNL     1      49.065  42.942  21.083  1.00  0.00     0.174 HD
ENDBRANCH   6  19
TORSDOF 5
ENDMDL