MODEL 5
REMARK VINA RESULT: -5.632826187      3.053      6.357
REMARK  8 active torsions:
REMARK  status: ('A' for Active; 'I' for Inactive)
REMARK    1  A    between atoms: C2_2  and  C3_3
REMARK    2  A    between atoms: C2_2  and  C6_10
REMARK    3  A    between atoms: C3_3  and  C4_4
REMARK    4  A    between atoms: C4_4  and  C5_5
REMARK    5  A    between atoms: C5_5  and  N1_6
REMARK    6  A    between atoms: C6_10  and  C7_11
REMARK    7  A    between atoms: C7_11  and  C8_12
REMARK    8  A    between atoms: C8_12  and  C9_13
ROOT
HETATM    1  C1  UNL     1       3.237  -0.370  21.423  1.00  0.00     0.010 C
HETATM    2  C2  UNL     1       2.479   0.343  22.469  1.00  0.00    -0.019 C
ENDROOT
BRANCH   2   3
HETATM    3  C3  UNL     1       2.123   1.769  22.238  1.00  0.00     0.006 C
BRANCH   3   4
HETATM    4  C4  UNL     1       2.950   2.826  22.821  1.00  0.00     0.027 C
BRANCH   4   5
HETATM    5  C5  UNL     1       4.092   3.388  22.079  1.00  0.00     0.229 C
BRANCH   5   6
HETATM    6  N1  UNL     1       4.063   3.128  20.642  1.00  0.00    -0.079 N
ATOM      7  H13 UNL     1       3.114   3.226  20.281  1.00  0.00     0.274 HD
ATOM      8  H12 UNL     1       4.522   3.885  20.134  1.00  0.00     0.274 HD
ATOM      9  H11 UNL     1       4.456   2.228  20.370  1.00  0.00     0.274 HD
ENDBRANCH   5   6
ENDBRANCH   4   5
ENDBRANCH   3   4
ENDBRANCH   2   3
BRANCH   2  10
HETATM   10  C6  UNL     1       1.220  -0.406  22.834  1.00  0.00     0.004 C
BRANCH  10  11
HETATM   11  C7  UNL     1       1.394  -1.682  23.552  1.00  0.00     0.001 C
BRANCH  11  12
HETATM   12  C8  UNL     1       0.412  -1.683  24.738  1.00  0.00     0.005 C
BRANCH  12  13
HETATM   13  C9  UNL     1       0.936  -2.490  25.881  1.00  0.00    -0.014 A
HETATM   14  C10 UNL     1       0.412  -3.813  26.239  1.00  0.00     0.005 A
HETATM   15  C11 UNL     1      -0.009  -2.670  27.074  1.00  0.00     0.005 A
ENDBRANCH  12  13
ENDBRANCH  11  12
ENDBRANCH  10  11
ENDBRANCH   2  10
TORSDOF 8
ENDMDL