MODEL 3
REMARK VINA RESULT: -6.011481864      1.730      6.499
REMARK  7 active torsions:
REMARK  status: ('A' for Active; 'I' for Inactive)
REMARK    1  A    between atoms: C2_2  and  C3_3
REMARK    2  A    between atoms: C3_3  and  C4_4
REMARK    3  A    between atoms: C4_4  and  C5_5
REMARK    4  A    between atoms: C5_5  and  C6_6
REMARK    5  A    between atoms: C6_6  and  C7_7
REMARK    6  A    between atoms: C7_7  and  N1_8
REMARK    7  A    between atoms: N1_8  and  C8_11
ROOT
HETATM    1  C7  UNL     1       2.849   0.891  22.081  1.00  0.00     0.232 C
ENDROOT
BRANCH   1   2
HETATM    2  C6  UNL     1       1.457   0.476  22.422  1.00  0.00     0.027 C
BRANCH   2   3
HETATM    3  C5  UNL     1       1.389  -1.003  22.749  1.00  0.00     0.002 C
BRANCH   3   4
HETATM    4  C4  UNL     1       1.384  -1.168  24.249  1.00  0.00     0.004 C
BRANCH   4   5
HETATM    5  C3  UNL     1       0.558  -2.393  24.636  1.00  0.00     0.026 C
BRANCH   5   6
HETATM    6  C2  UNL     1      -0.250  -2.081  25.846  1.00  0.00    -0.037 C
HETATM    7  C1  UNL     1      -0.035  -2.688  27.001  1.00  0.00     0.007 C
ENDBRANCH   5   6
ENDBRANCH   4   5
ENDBRANCH   3   4
ENDBRANCH   2   3
ENDBRANCH   1   2
BRANCH   1   8
HETATM    8  N1  UNL     1       2.861   2.033  21.226  1.00  0.00    -0.071 N
ATOM      9  H12 UNL     1       3.807   2.295  20.947  1.00  0.00     0.277 HD
ATOM     10  H11 UNL     1       2.489   1.823  20.299  1.00  0.00     0.277 HD
BRANCH   8  11
HETATM   11  C8  UNL     1       2.162   3.117  21.859  1.00  0.00     0.185 C
HETATM   12  C9  UNL     1       2.987   3.906  22.855  1.00  0.00     0.033 C
HETATM   13  C10 UNL     1       2.204   5.136  22.372  1.00  0.00     0.004 C
HETATM   14  C11 UNL     1       2.126   4.405  21.024  1.00  0.00     0.033 C
ENDBRANCH   8  11
ENDBRANCH   1   8
TORSDOF 7
ENDMDL