MODEL 1
REMARK VINA RESULT: -5.410270887      0.000      0.000
REMARK  7 active torsions:
REMARK  status: ('A' for Active; 'I' for Inactive)
REMARK    1  A    between atoms: C2_2  and  C3_3
REMARK    2  A    between atoms: C3_3  and  C4_4
REMARK    3  A    between atoms: C4_4  and  C5_5
REMARK    4  A    between atoms: C4_4  and  N1_8
REMARK    5  A    between atoms: C5_5  and  C6_6
REMARK    6  A    between atoms: N1_8  and  C8_10
REMARK    7  A    between atoms: C8_10  and  C9_11
ROOT
HETATM    1  C4  UNL     1       3.535   1.886  21.822  1.00  0.00     0.080 C
ENDROOT
BRANCH   1   2
HETATM    2  C3  UNL     1       2.616   1.266  22.780  1.00  0.00     0.024 C
BRANCH   2   3
HETATM    3  C2  UNL     1       1.330   0.687  22.376  1.00  0.00    -0.002 C
HETATM    4  C1  UNL     1       1.322  -0.741  22.997  1.00  0.00     0.005 C
ENDBRANCH   2   3
ENDBRANCH   1   2
BRANCH   1   5
HETATM    5  C5  UNL     1       3.804   3.332  21.825  1.00  0.00     0.024 C
BRANCH   5   6
HETATM    6  C6  UNL     1       2.844   4.297  21.261  1.00  0.00    -0.002 C
HETATM    7  C7  UNL     1       2.314   5.104  22.489  1.00  0.00     0.005 C
ENDBRANCH   5   6
ENDBRANCH   1   5
BRANCH   1   8
HETATM    8  N1  UNL     1       4.727   1.083  21.749  1.00  0.00    -0.397 N
ATOM      9  H1  UNL     1       5.613   1.456  22.090  1.00  0.00     0.159 HD
BRANCH   8  10
HETATM   10  C8  UNL     1       4.673  -0.195  21.214  1.00  0.00     0.060 C
BRANCH  10  11
HETATM   11  C9  UNL     1       4.242  -0.309  19.780  1.00  0.00     0.024 A
HETATM   12  C10 UNL     1       3.085  -1.300  19.593  1.00  0.00     0.010 A
HETATM   13  C11 UNL     1       4.441  -1.632  19.062  1.00  0.00     0.010 A
ENDBRANCH  10  11
ENDBRANCH   8  10
ENDBRANCH   1   8
TORSDOF 7
ENDMDL