MODEL 3
REMARK VINA RESULT: -6.201912565      0.866      6.874
REMARK  8 active torsions:
REMARK  status: ('A' for Active; 'I' for Inactive)
REMARK    1  A    between atoms: C2_2  and  C3_3
REMARK    2  A    between atoms: C3_3  and  C4_4
REMARK    3  A    between atoms: C4_4  and  C5_5
REMARK    4  A    between atoms: C5_5  and  N1_6
REMARK    5  A    between atoms: N1_6  and  C6_8
REMARK    6  A    between atoms: C6_8  and  C7_9
REMARK    7  A    between atoms: C7_9  and  C8_10
REMARK    8  A    between atoms: C8_10  and  C9_11
ROOT
HETATM    1  N1  UNL     1       1.751  -0.778  21.917  1.00  0.00    -0.421 N
ATOM      2  H1  UNL     1       1.882  -0.951  20.921  1.00  0.00     0.153 HD
ENDROOT
BRANCH   1   3
HETATM    3  C5  UNL     1       1.850  -1.814  22.888  1.00  0.00     0.114 C
BRANCH   3   4
HETATM    4  C4  UNL     1       1.136  -1.436  24.155  1.00  0.00     0.023 C
BRANCH   4   5
HETATM    5  C3  UNL     1       0.368  -2.574  24.778  1.00  0.00     0.028 C
BRANCH   5   6
HETATM    6  C2  UNL     1      -0.118  -2.166  26.110  1.00  0.00    -0.037 C
HETATM    7  C1  UNL     1       0.009  -2.899  27.198  1.00  0.00     0.007 C
ENDBRANCH   5   6
ENDBRANCH   4   5
ENDBRANCH   3   4
ENDBRANCH   1   3
BRANCH   1   8
HETATM    8  C6  UNL     1       1.454   0.535  22.438  1.00  0.00     0.113 C
BRANCH   8   9
HETATM    9  C7  UNL     1       2.527   1.466  22.002  1.00  0.00     0.020 C
BRANCH   9  10
HETATM   10  C8  UNL     1       2.967   2.423  23.095  1.00  0.00     0.006 C
BRANCH  10  11
HETATM   11  C9  UNL     1       3.273   3.730  22.393  1.00  0.00    -0.014 C
HETATM   12  C10 UNL     1       2.419   4.898  22.806  1.00  0.00     0.005 C
HETATM   13  C11 UNL     1       2.156   5.133  21.312  1.00  0.00     0.001 C
HETATM   14  C12 UNL     1       2.696   3.729  21.008  1.00  0.00     0.005 C
ENDBRANCH  10  11
ENDBRANCH   9  10
ENDBRANCH   8   9
ENDBRANCH   1   8
TORSDOF 8
ENDMDL