MODEL 1
REMARK VINA RESULT: -6.272105814      0.000      0.000
REMARK  7 active torsions:
REMARK  status: ('A' for Active; 'I' for Inactive)
REMARK    1  A    between atoms: C2_2  and  C3_3
REMARK    2  A    between atoms: C3_3  and  C4_4
REMARK    3  A    between atoms: C4_4  and  C5_5
REMARK    4  A    between atoms: C5_5  and  C6_6
REMARK    5  A    between atoms: C6_6  and  N1_7
REMARK    6  A    between atoms: N1_7  and  C7_10
REMARK    7  A    between atoms: C7_10  and  C8_11
ROOT
HETATM    1  N1  UNL     1       2.843   1.007  21.537  1.00  0.00    -0.075 N
ATOM      2  H11 UNL     1       2.503   1.121  20.582  1.00  0.00     0.277 HD
ATOM      3  H12 UNL     1       3.840   1.140  21.370  1.00  0.00     0.277 HD
ENDROOT
BRANCH   1   4
HETATM    4  C6  UNL     1       2.573  -0.295  22.026  1.00  0.00     0.232 C
BRANCH   4   5
HETATM    5  C5  UNL     1       1.386  -0.272  22.963  1.00  0.00     0.028 C
BRANCH   5   6
HETATM    6  C4  UNL     1       1.264  -1.699  23.487  1.00  0.00     0.005 C
BRANCH   6   7
HETATM    7  C3  UNL     1       1.271  -1.735  24.979  1.00  0.00     0.026 C
BRANCH   7   8
HETATM    8  C2  UNL     1      -0.012  -2.176  25.585  1.00  0.00    -0.037 C
HETATM    9  C1  UNL     1      -0.083  -2.555  26.867  1.00  0.00     0.007 C
ENDBRANCH   7   8
ENDBRANCH   6   7
ENDBRANCH   5   6
ENDBRANCH   4   5
ENDBRANCH   1   4
BRANCH   1  10
HETATM   10  C7  UNL     1       2.322   2.019  22.394  1.00  0.00     0.237 C
BRANCH  10  11
HETATM   11  C8  UNL     1       3.240   3.225  22.487  1.00  0.00     0.011 C
HETATM   12  C9  UNL     1       4.000   3.346  21.211  1.00  0.00     0.006 C
HETATM   13  C10 UNL     1       3.447   4.552  20.498  1.00  0.00     0.000 C
HETATM   14  C11 UNL     1       2.106   4.840  21.150  1.00  0.00     0.000 C
HETATM   15  C12 UNL     1       2.349   4.451  22.592  1.00  0.00     0.006 C
ENDBRANCH  10  11
ENDBRANCH   1  10
TORSDOF 7
ENDMDL