MODEL 5
REMARK VINA RESULT: -5.965383407      0.928      1.415
REMARK  8 active torsions:
REMARK  status: ('A' for Active; 'I' for Inactive)
REMARK    1  A    between atoms: C2_2  and  C3_3
REMARK    2  A    between atoms: C3_3  and  C4_4
REMARK    3  A    between atoms: C4_4  and  N1_5
REMARK    4  A    between atoms: N1_5  and  C5_8
REMARK    5  A    between atoms: C5_8  and  C6_9
REMARK    6  A    between atoms: C6_9  and  C7_10
REMARK    7  A    between atoms: C7_10  and  C8_11
REMARK    8  A    between atoms: C8_11  and  C9_12
ROOT
HETATM    1  C5  UNL     1       2.859  -1.015  21.518  1.00  0.00     0.232 C
ENDROOT
BRANCH   1   2
HETATM    2  N1  UNL     1       3.917  -0.070  21.650  1.00  0.00    -0.075 N
ATOM      3  H12 UNL     1       4.748  -0.393  21.155  1.00  0.00     0.277 HD
ATOM      4  H11 UNL     1       4.274  -0.065  22.604  1.00  0.00     0.277 HD
BRANCH   2   5
HETATM    5  C4  UNL     1       3.568   1.270  21.232  1.00  0.00     0.236 C
BRANCH   5   6
HETATM    6  C3  UNL     1       4.026   2.292  22.229  1.00  0.00     0.054 C
BRANCH   6   7
HETATM    7  C2  UNL     1       2.873   3.040  22.801  1.00  0.00    -0.035 C
HETATM    8  C1  UNL     1       2.210   3.893  22.043  1.00  0.00     0.007 C
ENDBRANCH   6   7
ENDBRANCH   5   6
ENDBRANCH   2   5
ENDBRANCH   1   2
BRANCH   1   9
HETATM    9  C6  UNL     1       1.568  -0.461  22.007  1.00  0.00     0.027 C
BRANCH   9  10
HETATM   10  C7  UNL     1       1.387  -0.610  23.477  1.00  0.00     0.002 C
BRANCH  10  11
HETATM   11  C8  UNL     1       1.216  -2.099  23.827  1.00  0.00     0.005 C
BRANCH  11  12
HETATM   12  C9  UNL     1       1.083  -2.147  25.332  1.00  0.00    -0.014 C
HETATM   13  C10 UNL     1       1.142  -3.493  25.969  1.00  0.00     0.004 C
HETATM   14  C11 UNL     1      -0.207  -3.215  26.600  1.00  0.00     0.001 C
HETATM   15  C12 UNL     1      -0.365  -1.980  25.737  1.00  0.00     0.004 C
ENDBRANCH  11  12
ENDBRANCH  10  11
ENDBRANCH   9  10
ENDBRANCH   1   9
TORSDOF 8
ENDMDL