MODEL 5
REMARK VINA RESULT: -6.136994462      3.224      4.861
REMARK  12 active torsions:
REMARK  status: ('A' for Active; 'I' for Inactive)
REMARK    1  A    between atoms: O1_2  and  C2_3
REMARK    2  A    between atoms: C7_9  and  O2_10
REMARK    3  A    between atoms: N1_12  and  N2_13
REMARK    4  A    between atoms: N3_16  and  C10_17
REMARK    5  A    between atoms: C10_17  and  S3_19
REMARK    6  A    between atoms: S3_19  and  S4_20
REMARK    7  A    between atoms: S4_20  and  C11_21
REMARK    8  A    between atoms: C11_21  and  C12_23
REMARK    9  A    between atoms: C12_23  and  C13_24
REMARK   10  A    between atoms: C13_24  and  N4_25
REMARK   11  A    between atoms: C13_24  and  C14_29
REMARK   12  A    between atoms: C17_34  and  O6_35
ROOT
HETATM    1  N2  UNL     1      32.509   4.058   8.340  1.00  0.00    -0.314 N
HETATM    2  C8  UNL     1      31.761   3.024   7.692  1.00  0.00     0.163 C
HETATM    3  C9  UNL     1      30.268   3.133   7.909  1.00  0.00     0.145 C
HETATM    4  N3  UNL     1      29.856   4.523   7.973  1.00  0.00    -0.363 N
HETATM    5  C15 UNL     1      30.802   5.522   7.534  1.00  0.00     0.145 C
HETATM    6  C16 UNL     1      32.015   5.407   8.432  1.00  0.00     0.163 C
ENDROOT
BRANCH   1   7
HETATM    7  N1  UNL     1      33.777   3.819   8.929  1.00  0.00    -0.212 N
HETATM    8  C7  UNL     1      34.015   3.488  10.195  1.00  0.00     0.174 A
HETATM    9  C6  UNL     1      35.379   3.333  10.410  1.00  0.00     0.044 A
HETATM   10  C2  UNL     1      36.172   2.978  11.609  1.00  0.00     0.160 C
HETATM   11  C5  UNL     1      35.994   3.587   9.202  1.00  0.00     0.066 A
HETATM   12  C3  UNL     1      37.286   1.994  11.289  1.00  0.00     0.047 C
HETATM   13  C4  UNL     1      38.407   2.665  10.525  1.00  0.00     0.082 C
HETATM   14  S1  UNL     1      37.789   3.496   9.036  1.00  0.00    -0.125 SA
HETATM   15  C17 UNL     1      34.977   3.882   8.318  1.00  0.00     0.181 A
BRANCH   8  16
HETATM   16  O2  UNL     1      32.992   3.327  11.147  1.00  0.00    -0.344 OA
ATOM     17  H2  UNL     1      32.787   3.917  11.863  1.00  0.00     0.219 HD
ENDBRANCH   8  16
BRANCH  10  18
HETATM   18  O1  UNL     1      36.718   4.055  12.253  1.00  0.00    -0.386 OA
HETATM   19  C1  UNL     1      36.905   3.859  13.615  1.00  0.00     0.202 C
ENDBRANCH  10  18
BRANCH  15  20
HETATM   20  O6  UNL     1      35.114   4.205   6.971  1.00  0.00    -0.344 OA
ATOM     21  H6  UNL     1      34.454   4.109   6.295  1.00  0.00     0.219 HD
ENDBRANCH  15  20
ENDBRANCH   1   7
BRANCH   4  22
HETATM   22  C10 UNL     1      28.587   4.921   8.439  1.00  0.00     0.147 C
HETATM   23  S2  UNL     1      27.878   4.024   9.602  1.00  0.00    -0.052 SA
BRANCH  22  24
HETATM   24  S3  UNL     1      27.825   6.370   7.744  1.00  0.00    -0.020 SA
BRANCH  24  25
HETATM   25  S4  UNL     1      27.661   6.232   5.631  1.00  0.00    -0.012 SA
BRANCH  25  26
HETATM   26  C11 UNL     1      28.435   7.627   4.827  1.00  0.00     0.199 C
HETATM   27  O3  UNL     1      29.531   7.535   4.328  1.00  0.00    -0.285 OA
BRANCH  26  28
HETATM   28  C12 UNL     1      27.697   8.910   4.785  1.00  0.00     0.135 C
BRANCH  28  29
HETATM   29  C13 UNL     1      28.000   9.599   3.486  1.00  0.00     0.291 C
BRANCH  29  30
HETATM   30  N4  UNL     1      27.570   8.792   2.380  1.00  0.00    -0.065 N
ATOM     31  H43 UNL     1      26.737   8.249   2.607  1.00  0.00     0.275 HD
ATOM     32  H42 UNL     1      27.179   9.357   1.626  1.00  0.00     0.275 HD
ATOM     33  H41 UNL     1      28.334   8.199   2.055  1.00  0.00     0.275 HD
ENDBRANCH  29  30
BRANCH  29  34
HETATM   34  C14 UNL     1      27.327  10.919   3.387  1.00  0.00     0.204 C
HETATM   35  O4  UNL     1      26.106  11.020   3.682  1.00  0.00    -0.646 OA
HETATM   36  O5  UNL     1      27.974  12.078   2.977  1.00  0.00    -0.646 OA
ENDBRANCH  29  34
ENDBRANCH  28  29
ENDBRANCH  26  28
ENDBRANCH  25  26
ENDBRANCH  24  25
ENDBRANCH  22  24
ENDBRANCH   4  22
TORSDOF 12
ENDMDL