MODEL 3
REMARK VINA RESULT: -7.967216941      1.052      1.085
REMARK  6 active torsions:
REMARK  status: ('A' for Active; 'I' for Inactive)
REMARK    1  A    between atoms: C2_3  and  N2_4
REMARK       I    between atoms: N2_4  and  C3_6
REMARK    2  A    between atoms: C3_6  and  C4_8
REMARK    3  A    between atoms: C4_8  and  S1_9
REMARK    4  A    between atoms: S1_9  and  C5_10
REMARK    5  A    between atoms: C7_15  and  C8_16
REMARK       I    between atoms: C8_16  and  N5_18
REMARK    6  A    between atoms: N5_18  and  C9_20
ROOT
HETATM    1  N1  UNL     1      34.765   7.016  10.454  1.00  0.00    -0.193 NA
HETATM    2  C1  UNL     1      34.238   6.005  10.228  1.00  0.00     0.115 C
HETATM    3  C2  UNL     1      33.592   4.709   9.944  1.00  0.00     0.207 C
HETATM    4  C13 UNL     1      33.439   4.537   8.445  1.00  0.00     0.149 C
HETATM    5  S4  UNL     1      35.023   4.225   7.655  1.00  0.00    -0.122 SA
HETATM    6  C14 UNL     1      36.178   3.644   8.891  1.00  0.00     0.027 A
HETATM    7  C15 UNL     1      37.501   3.404   8.565  1.00  0.00     0.021 A
HETATM    8  C16 UNL     1      38.413   2.950   9.481  1.00  0.00     0.002 A
HETATM    9  C17 UNL     1      37.942   2.738  10.765  1.00  0.00     0.002 A
HETATM   10  C18 UNL     1      36.644   2.965  11.120  1.00  0.00     0.030 A
HETATM   11  C19 UNL     1      35.740   3.429  10.163  1.00  0.00     0.047 A
HETATM   12  N9  UNL     1      34.383   3.672  10.526  1.00  0.00    -0.350 N
ATOM     13  H9  UNL     1      33.957   3.076  11.236  1.00  0.00     0.163 HD
ENDROOT
BRANCH   3  14
HETATM   14  N2  UNL     1      32.284   4.752  10.534  1.00  0.00    -0.321 N
HETATM   15  C3  UNL     1      31.416   3.609  10.534  1.00  0.00     0.230 C
HETATM   16  O1  UNL     1      31.880   2.568   9.982  1.00  0.00    -0.273 OA
ATOM     17  H2  UNL     1      31.963   5.619  10.965  1.00  0.00     0.166 HD
BRANCH  15  18
HETATM   18  C4  UNL     1      30.075   3.632  11.136  1.00  0.00     0.184 C
BRANCH  18  19
HETATM   19  S1  UNL     1      28.809   2.862  10.110  1.00  0.00    -0.096 SA
BRANCH  19  20
HETATM   20  C5  UNL     1      29.001   3.506   8.428  1.00  0.00     0.114 A
HETATM   21  N3  UNL     1      29.115   2.823   7.302  1.00  0.00    -0.332 N
HETATM   22  C6  UNL     1      29.237   3.444   6.174  1.00  0.00     0.140 A
ATOM     23  H3  UNL     1      29.107   1.804   7.323  1.00  0.00     0.168 HD
HETATM   24  N4  UNL     1      29.370   2.731   4.913  1.00  0.00    -0.081 NA
HETATM   25  C7  UNL     1      29.240   4.817   6.209  1.00  0.00     0.117 A
HETATM   26  S3  UNL     1      29.068   5.126   7.875  1.00  0.00    -0.056 SA
BRANCH  25  27
HETATM   27  C8  UNL     1      29.368   5.739   5.059  1.00  0.00     0.280 C
HETATM   28  O2  UNL     1      29.023   6.939   5.184  1.00  0.00    -0.266 OA
HETATM   29  N5  UNL     1      29.876   5.291   3.808  1.00  0.00    -0.153 N
ATOM     30  H5  UNL     1      29.244   4.904   3.107  1.00  0.00     0.187 HD
BRANCH  29  31
HETATM   31  C9  UNL     1      31.168   5.378   3.558  1.00  0.00     0.704 A
HETATM   32  N6  UNL     1      32.077   4.576   4.120  1.00  0.00    -0.130 N
HETATM   33  N7  UNL     1      33.263   4.970   3.624  1.00  0.00    -0.265 N
ATOM     34  H6  UNL     1      31.907   3.822   4.786  1.00  0.00     0.205 HD
HETATM   35  C10 UNL     1      33.062   5.986   2.786  1.00  0.00     0.177 A
ATOM     36  H7  UNL     1      34.168   4.559   3.853  1.00  0.00     0.189 HD
HETATM   37  N8  UNL     1      31.762   6.272   2.716  1.00  0.00    -0.158 N
HETATM   38  S2  UNL     1      33.893   7.145   1.714  1.00  0.00    -0.090 SA
HETATM   39  C11 UNL     1      31.379   7.326   1.848  1.00  0.00     0.160 C
HETATM   40  C12 UNL     1      32.484   8.351   1.713  1.00  0.00     0.103 C
ENDBRANCH  29  31
ENDBRANCH  25  27
ENDBRANCH  19  20
ENDBRANCH  18  19
ENDBRANCH  15  18
ENDBRANCH   3  14
TORSDOF 6
ENDMDL