MODEL 1
REMARK VINA RESULT: -7.674449282      0.000      0.000
REMARK  6 active torsions:
REMARK  status: ('A' for Active; 'I' for Inactive)
REMARK    1  A    between atoms: C4_6  and  C5_7
REMARK    2  A    between atoms: C6_11  and  N3_12
REMARK    3  A    between atoms: C11_18  and  N4_19
REMARK       I    between atoms: N4_19  and  C12_21
REMARK    4  A    between atoms: C12_21  and  C13_23
REMARK    5  A    between atoms: C13_23  and  C14_24
REMARK    6  A    between atoms: C15_27  and  N6_28
ROOT
HETATM    1  N3  UNL     1      30.367   8.629   4.359  1.00  0.00    -0.355 N
HETATM    2  C7  UNL     1      30.130   8.618   5.785  1.00  0.00     0.130 C
HETATM    3  C8  UNL     1      29.937   7.207   6.298  1.00  0.00     0.061 C
HETATM    4  C9  UNL     1      31.206   6.446   5.948  1.00  0.00    -0.018 A
HETATM    5  C10 UNL     1      31.619   6.614   4.661  1.00  0.00     0.011 A
HETATM    6  S2  UNL     1      33.034   5.640   4.588  1.00  0.00    -0.073 SA
HETATM    7  C11 UNL     1      33.046   5.061   6.192  1.00  0.00     0.098 A
HETATM    8  C17 UNL     1      31.942   5.644   6.742  1.00  0.00     0.086 A
HETATM    9  C18 UNL     1      31.620   5.368   8.152  1.00  0.00     0.103 C
HETATM   10  N9  UNL     1      31.363   5.127   9.278  1.00  0.00    -0.191 NA
HETATM   11  C19 UNL     1      30.897   7.490   3.656  1.00  0.00     0.171 C
ENDROOT
BRANCH   7  12
HETATM   12  N4  UNL     1      33.997   4.181   6.790  1.00  0.00    -0.320 N
HETATM   13  C12 UNL     1      34.983   4.671   7.688  1.00  0.00     0.229 C
HETATM   14  O1  UNL     1      35.043   5.882   7.960  1.00  0.00    -0.273 OA
ATOM     15  H4  UNL     1      33.968   3.186   6.570  1.00  0.00     0.169 HD
BRANCH  13  16
HETATM   16  C13 UNL     1      35.950   3.740   8.309  1.00  0.00     0.180 C
BRANCH  16  17
HETATM   17  C14 UNL     1      35.751   3.751   9.773  1.00  0.00     0.110 A
HETATM   18  N5  UNL     1      34.488   3.966  10.242  1.00  0.00    -0.180 N
HETATM   19  C15 UNL     1      34.198   4.008  11.551  1.00  0.00     0.681 A
ATOM     20  H5  UNL     1      33.733   4.101   9.569  1.00  0.00     0.185 HD
HETATM   21  N7  UNL     1      35.180   3.833  12.458  1.00  0.00    -0.141 N
HETATM   22  C16 UNL     1      36.442   3.616  12.006  1.00  0.00     0.339 A
ATOM     23  H7  UNL     1      34.980   3.862  13.458  1.00  0.00     0.189 HD
HETATM   24  O2  UNL     1      37.370   3.451  12.847  1.00  0.00    -0.246 OA
HETATM   25  N8  UNL     1      36.723   3.577  10.667  1.00  0.00    -0.297 N
ATOM     26  H8  UNL     1      37.679   3.413  10.353  1.00  0.00     0.172 HD
BRANCH  19  27
HETATM   27  N6  UNL     1      32.986   4.217  11.977  1.00  0.00    -0.234 N
ATOM     28  H62 UNL     1      32.354   4.770  11.399  1.00  0.00     0.174 HD
ATOM     29  H61 UNL     1      32.659   3.841  12.867  1.00  0.00     0.174 HD
ENDBRANCH  19  27
ENDBRANCH  16  17
ENDBRANCH  13  16
ENDBRANCH   7  12
BRANCH   1  30
HETATM   30  C6  UNL     1      30.054   9.812   3.625  1.00  0.00     0.165 A
HETATM   31  S1  UNL     1      31.071  11.144   3.207  1.00  0.00     0.024 SA
HETATM   32  N2  UNL     1      29.939  12.070   2.377  1.00  0.00    -0.308 N
HETATM   33  C5  UNL     1      28.833  11.320   2.455  1.00  0.00     0.132 A
ATOM     34  H2  UNL     1      30.065  12.976   1.926  1.00  0.00     0.176 HD
HETATM   35  N10 UNL     1      28.908  10.191   3.082  1.00  0.00    -0.320 N
ATOM     36  H10 UNL     1      28.084   9.595   3.160  1.00  0.00     0.169 HD
BRANCH  33  37
HETATM   37  C4  UNL     1      27.560  11.792   1.831  1.00  0.00     0.066 A
HETATM   38  C3  UNL     1      26.309  11.251   1.910  1.00  0.00     0.111 A
HETATM   39  N1  UNL     1      25.351  11.859   1.281  1.00  0.00    -0.362 N
HETATM   40  C2  UNL     1      25.605  12.963   0.596  1.00  0.00     0.047 A
ATOM     41  H1  UNL     1      24.402  11.487   1.316  1.00  0.00     0.165 HD
HETATM   42  C1  UNL     1      24.647  13.821  -0.196  1.00  0.00     0.076 C
HETATM   43  S3  UNL     1      27.290  13.161   0.846  1.00  0.00    -0.072 SA
ENDBRANCH  33  37
ENDBRANCH   1  30
TORSDOF 6
ENDMDL