MODEL 3
REMARK VINA RESULT: -8.039700899      1.096      1.186
REMARK  6 active torsions:
REMARK  status: ('A' for Active; 'I' for Inactive)
REMARK    1  A    between atoms: C2_2  and  O1_3
REMARK    2  A    between atoms: O1_3  and  C3_4
REMARK    3  A    between atoms: C3_4  and  C4_6
REMARK    4  A    between atoms: C8_12  and  C9_13
REMARK    5  A    between atoms: C9_13  and  C10_14
REMARK    6  A    between atoms: C19_31  and  N5_32
ROOT
HETATM    1  N5  UNL     1      35.986   3.906  11.481  1.00  0.00    -0.305 N
HETATM    2  C20 UNL     1      36.183   3.188  12.597  1.00  0.00     0.187 A
HETATM    3  N6  UNL     1      37.216   2.339  12.440  1.00  0.00    -0.342 N
ATOM      4  H6  UNL     1      37.579   1.681  13.129  1.00  0.00     0.167 HD
HETATM    5  C21 UNL     1      37.674   2.538  11.181  1.00  0.00     0.130 A
HETATM    6  C22 UNL     1      38.796   1.817  10.593  1.00  0.00     0.119 C
HETATM    7  N7  UNL     1      39.683   1.236  10.133  1.00  0.00    -0.190 NA
HETATM    8  C23 UNL     1      36.904   3.508  10.602  1.00  0.00     0.137 A
ENDROOT
BRANCH   1   9
HETATM    9  C19 UNL     1      34.943   4.904  11.352  1.00  0.00     0.359 C
HETATM   10  N4  UNL     1      33.783   4.291  10.788  1.00  0.00    -0.379 N
HETATM   11  C18 UNL     1      32.546   4.623  11.424  1.00  0.00     0.118 C
ATOM     12  H4  UNL     1      33.834   3.660   9.988  1.00  0.00     0.157 HD
HETATM   13  C17 UNL     1      31.480   3.571  11.283  1.00  0.00     0.020 C
HETATM   14  C16 UNL     1      30.776   3.794   9.937  1.00  0.00     0.011 C
HETATM   15  C15 UNL     1      31.201   2.714   9.036  1.00  0.00     0.103 C
HETATM   16  C14 UNL     1      30.798   2.762   7.628  1.00  0.00     0.217 C
HETATM   17  N3  UNL     1      30.026   3.672   6.911  1.00  0.00    -0.360 N
HETATM   18  O3  UNL     1      31.261   1.756   6.948  1.00  0.00    -0.274 OA
HETATM   19  C13 UNL     1      30.169   5.080   6.734  1.00  0.00     0.133 C
ATOM     20  H3  UNL     1      29.223   3.263   6.433  1.00  0.00     0.162 HD
HETATM   21  C8  UNL     1      31.423   5.539   6.030  1.00  0.00     0.060 C
HETATM   22  C7  UNL     1      32.643   5.537   6.921  1.00  0.00     0.034 A
HETATM   23  C4  UNL     1      33.148   6.292   7.961  1.00  0.00     0.092 A
HETATM   24  N1  UNL     1      33.508   4.479   6.668  1.00  0.00    -0.366 N
HETATM   25  C5  UNL     1      34.343   5.645   8.320  1.00  0.00     0.088 A
HETATM   26  C6  UNL     1      34.533   4.511   7.482  1.00  0.00     0.120 A
HETATM   27  N8  UNL     1      35.403   5.808   9.292  1.00  0.00    -0.260 N
HETATM   28  O4  UNL     1      35.323   6.002  10.637  1.00  0.00    -0.232 OA
ATOM     29  H8  UNL     1      36.350   5.772   8.914  1.00  0.00     0.194 HD
ATOM     30  H1  UNL     1      33.363   3.773   5.946  1.00  0.00     0.165 HD
BRANCH  21  31
HETATM   31  C9  UNL     1      31.578   4.773   4.731  1.00  0.00     0.077 C
BRANCH  31  32
HETATM   32  C10 UNL     1      31.083   5.658   3.609  1.00  0.00     0.051 A
HETATM   33  N2  UNL     1      29.900   5.628   3.011  1.00  0.00    -0.363 N
HETATM   34  C11 UNL     1      29.641   6.467   2.065  1.00  0.00     0.095 A
ATOM     35  H2  UNL     1      29.199   4.946   3.297  1.00  0.00     0.165 HD
HETATM   36  C12 UNL     1      30.616   7.367   1.716  1.00  0.00     0.068 A
HETATM   37  S1  UNL     1      31.870   6.937   2.795  1.00  0.00    -0.087 SA
ENDBRANCH  31  32
ENDBRANCH  21  31
BRANCH  23  38
HETATM   38  C3  UNL     1      32.565   7.554   8.600  1.00  0.00     0.297 C
HETATM   39  O2  UNL     1      32.516   7.778   9.833  1.00  0.00    -0.259 OA
BRANCH  38  40
HETATM   40  O1  UNL     1      32.015   8.621   7.953  1.00  0.00    -0.318 OA
BRANCH  40  41
HETATM   41  C2  UNL     1      30.683   8.832   7.680  1.00  0.00     0.174 C
HETATM   42  C1  UNL     1      30.466   8.864   6.163  1.00  0.00     0.034 C
ENDBRANCH  40  41
ENDBRANCH  38  40
ENDBRANCH  23  38
ENDBRANCH   1   9
TORSDOF 6
ENDMDL