MODEL 5
REMARK VINA RESULT: -7.497676778      1.997      3.093
REMARK  5 active torsions:
REMARK  status: ('A' for Active; 'I' for Inactive)
REMARK    1  A    between atoms: C7_8  and  N1_9
REMARK    2  A    between atoms: N2_11  and  C8_13
REMARK    3  A    between atoms: C10_20  and  C11_21
REMARK    4  A    between atoms: N6_24  and  C13_25
REMARK    5  A    between atoms: C19_36  and  N8_37
ROOT
HETATM    1  C8  UNL     1      32.268   6.799   5.526  1.00  0.00     0.152 A
HETATM    2  N3  UNL     1      32.170   6.518   4.192  1.00  0.00    -0.291 N
ATOM      3  H3  UNL     1      31.584   7.030   3.532  1.00  0.00     0.172 HD
HETATM    4  C9  UNL     1      32.947   5.486   3.873  1.00  0.00     0.326 A
HETATM    5  O1  UNL     1      33.086   4.976   2.729  1.00  0.00    -0.247 OA
HETATM    6  N4  UNL     1      33.545   5.105   5.031  1.00  0.00    -0.304 N
ATOM      7  H4  UNL     1      34.204   4.330   5.104  1.00  0.00     0.171 HD
HETATM    8  C10 UNL     1      33.171   5.868   6.065  1.00  0.00     0.101 A
ENDROOT
BRANCH   1   9
HETATM    9  N2  UNL     1      31.657   7.822   6.230  1.00  0.00    -0.282 N
HETATM   10  N1  UNL     1      30.628   8.024   6.801  1.00  0.00    -0.290 N
ATOM     11  H1  UNL     1      30.549   8.954   7.213  1.00  0.00     0.187 HD
ATOM     12  H2  UNL     1      32.262   8.642   6.274  1.00  0.00     0.188 HD
BRANCH  10  13
HETATM   13  C7  UNL     1      29.503   7.198   7.001  1.00  0.00     0.123 A
HETATM   14  S1  UNL     1      29.394   5.776   7.957  1.00  0.00    -0.070 SA
HETATM   15  C6  UNL     1      27.753   5.388   7.704  1.00  0.00     0.017 A
HETATM   16  C5  UNL     1      27.333   6.391   6.869  1.00  0.00    -0.004 A
HETATM   17  C20 UNL     1      26.837   4.303   8.175  1.00  0.00     0.215 C
HETATM   18  C4  UNL     1      25.864   6.256   6.493  1.00  0.00     0.079 C
HETATM   19  C19 UNL     1      28.228   7.316   6.511  1.00  0.00     0.145 A
HETATM   20  C2  UNL     1      25.189   5.920   7.830  1.00  0.00     0.058 C
HETATM   21  C1  UNL     1      25.418   7.071   8.793  1.00  0.00     0.046 C
HETATM   22  C3  UNL     1      23.697   5.892   7.548  1.00  0.00     0.046 C
HETATM   23  O7  UNL     1      25.549   4.705   8.331  1.00  0.00    -0.376 OA
BRANCH  19  24
HETATM   24  N8  UNL     1      27.923   8.432   5.628  1.00  0.00    -0.112 N
HETATM   25  O5  UNL     1      26.768   8.886   5.660  1.00  0.00    -0.532 OA
HETATM   26  O6  UNL     1      28.890   8.942   4.799  1.00  0.00    -0.532 OA
ENDBRANCH  19  24
ENDBRANCH  10  13
ENDBRANCH   1   9
BRANCH   8  27
HETATM   27  C11 UNL     1      33.696   5.797   7.440  1.00  0.00     0.104 A
HETATM   28  C12 UNL     1      33.374   4.680   8.211  1.00  0.00     0.142 A
HETATM   29  N5  UNL     1      32.689   3.614   7.566  1.00  0.00    -0.081 NA
HETATM   30  N6  UNL     1      33.762   4.618   9.491  1.00  0.00    -0.259 N
HETATM   31  C17 UNL     1      34.482   5.674  10.017  1.00  0.00     0.332 A
HETATM   32  O3  UNL     1      34.873   5.649  11.237  1.00  0.00    -0.246 OA
HETATM   33  N7  UNL     1      34.790   6.731   9.296  1.00  0.00    -0.274 N
HETATM   34  C18 UNL     1      34.418   6.845   7.992  1.00  0.00     0.265 A
ATOM     35  H7  UNL     1      35.323   7.486   9.728  1.00  0.00     0.173 HD
HETATM   36  O4  UNL     1      34.725   7.867   7.343  1.00  0.00    -0.267 OA
BRANCH  30  37
HETATM   37  C13 UNL     1      33.512   3.523  10.345  1.00  0.00     0.233 C
HETATM   38  C14 UNL     1      32.343   2.648  10.199  1.00  0.00     0.056 C
HETATM   39  C15 UNL     1      31.189   3.584  10.500  1.00  0.00     0.031 C
HETATM   40  C16 UNL     1      31.843   4.476  11.533  1.00  0.00     0.170 C
HETATM   41  O2  UNL     1      33.187   4.100  11.623  1.00  0.00    -0.366 OA
ENDBRANCH  30  37
ENDBRANCH   8  27
TORSDOF 5
ENDMDL