MODEL 2
REMARK VINA RESULT: -7.588446874      1.527      1.625
REMARK  6 active torsions:
REMARK  status: ('A' for Active; 'I' for Inactive)
REMARK    1  A    between atoms: O1_2  and  C2_3
REMARK    2  A    between atoms: C2_3  and  C3_4
REMARK    3  A    between atoms: C8_11  and  N1_12
REMARK    4  A    between atoms: C9_13  and  S2_14
REMARK    5  A    between atoms: S2_14  and  C10_15
REMARK    6  A    between atoms: C21_36  and  N6_37
ROOT
HETATM    1  C10 UNL     1      31.210   3.804   8.623  1.00  0.00     0.280 C
HETATM    2  N2  UNL     1      32.441   4.433   8.105  1.00  0.00    -0.056 N
ATOM      3  H21 UNL     1      32.358   5.445   8.007  1.00  0.00     0.279 HD
ATOM      4  H22 UNL     1      32.613   4.218   7.124  1.00  0.00     0.279 HD
HETATM    5  C11 UNL     1      33.495   4.052   8.939  1.00  0.00     0.189 C
HETATM    6  C12 UNL     1      34.835   3.717   8.333  1.00  0.00     0.033 C
HETATM    7  C13 UNL     1      35.749   3.613   9.561  1.00  0.00     0.004 C
HETATM    8  C14 UNL     1      35.007   3.300  10.834  1.00  0.00     0.032 C
HETATM    9  C15 UNL     1      34.007   4.390  11.237  1.00  0.00     0.132 C
HETATM   10  C16 UNL     1      33.797   5.160   9.925  1.00  0.00     0.065 C
HETATM   11  O3  UNL     1      32.731   3.797  11.507  1.00  0.00    -0.333 OA
HETATM   12  C17 UNL     1      31.390   4.022  11.124  1.00  0.00     0.132 C
HETATM   13  N3  UNL     1      30.651   3.786  12.152  1.00  0.00    -0.382 N
ATOM     14  H31 UNL     1      29.683   3.948  11.875  1.00  0.00     0.158 HD
ATOM     15  H32 UNL     1      31.114   3.495  13.012  1.00  0.00     0.158 HD
HETATM   16  C18 UNL     1      30.725   4.438   9.889  1.00  0.00     0.208 C
HETATM   17  C19 UNL     1      29.300   4.024  10.013  1.00  0.00     0.075 C
HETATM   18  N4  UNL     1      28.180   3.693  10.089  1.00  0.00    -0.196 NA
ENDROOT
BRANCH   1  19
HETATM   19  S2  UNL     1      29.978   3.681   7.323  1.00  0.00    -0.058 SA
BRANCH  19  20
HETATM   20  C9  UNL     1      30.537   4.256   5.745  1.00  0.00     0.151 A
HETATM   21  N1  UNL     1      30.456   5.535   5.340  1.00  0.00    -0.302 N
HETATM   22  C23 UNL     1      31.004   5.546   4.083  1.00  0.00     0.142 A
HETATM   23  C20 UNL     1      31.415   4.299   3.720  1.00  0.00     0.123 A
HETATM   24  N8  UNL     1      31.179   6.565   3.216  1.00  0.00    -0.336 N
HETATM   25  N5  UNL     1      31.120   3.508   4.759  1.00  0.00    -0.330 N
HETATM   26  C21 UNL     1      31.993   4.130   2.482  1.00  0.00     0.131 A
ATOM     27  H5  UNL     1      31.300   2.505   4.808  1.00  0.00     0.168 HD
HETATM   28  N7  UNL     1      32.141   5.182   1.661  1.00  0.00    -0.337 N
HETATM   29  C22 UNL     1      31.737   6.413   2.016  1.00  0.00     0.183 A
ATOM     30  H7  UNL     1      32.571   5.042   0.747  1.00  0.00     0.168 HD
ATOM     31  H8  UNL     1      30.868   7.496   3.492  1.00  0.00     0.168 HD
BRANCH  21  32
HETATM   32  C8  UNL     1      29.915   6.698   6.014  1.00  0.00     0.152 C
HETATM   33  C3  UNL     1      28.778   7.325   5.258  1.00  0.00     0.141 A
HETATM   34  O2  UNL     1      28.203   8.380   6.041  1.00  0.00    -0.353 OA
HETATM   35  C4  UNL     1      28.919   8.622   4.867  1.00  0.00     0.224 A
HETATM   36  S1  UNL     1      30.650   9.088   5.292  1.00  0.00    -0.123 SA
HETATM   37  C5  UNL     1      30.922   7.689   6.419  1.00  0.00     0.027 C
HETATM   38  C6  UNL     1      32.349   7.205   6.379  1.00  0.00     0.029 C
HETATM   39  C7  UNL     1      30.618   8.228   7.823  1.00  0.00     0.029 C
BRANCH  33  40
HETATM   40  C2  UNL     1      27.771   6.312   4.817  1.00  0.00     0.210 C
BRANCH  40  41
HETATM   41  O1  UNL     1      27.558   6.113   3.501  1.00  0.00    -0.393 OA
HETATM   42  C1  UNL     1      27.571   4.839   3.052  1.00  0.00     0.201 C
ENDBRANCH  40  41
ENDBRANCH  33  40
ENDBRANCH  21  32
BRANCH  26  43
HETATM   43  N6  UNL     1      32.379   2.952   2.145  1.00  0.00    -0.383 N
ATOM     44  H62 UNL     1      33.329   2.772   1.822  1.00  0.00     0.157 HD
ATOM     45  H61 UNL     1      31.708   2.186   2.207  1.00  0.00     0.157 HD
ENDBRANCH  26  43
ENDBRANCH  19  20
ENDBRANCH   1  19
TORSDOF 6
ENDMDL