MODEL 3
REMARK VINA RESULT: -9.490974318      0.987      1.558
REMARK  8 active torsions:
REMARK  status: ('A' for Active; 'I' for Inactive)
REMARK    1  A    between atoms: C4_5  and  C5_6
REMARK    2  A    between atoms: C10_11  and  N2_12
REMARK    3  A    between atoms: N2_12  and  C11_14
REMARK    4  A    between atoms: C13_18  and  S1_19
REMARK    5  A    between atoms: S1_19  and  C14_20
REMARK    6  A    between atoms: C14_20  and  C15_21
REMARK    7  A    between atoms: C16_27  and  N6_28
REMARK    8  A    between atoms: C18_38  and  N10_39
ROOT
HETATM    1  C11 UNL     1      27.889   2.986   9.860  1.00  0.00     0.698 C
HETATM    2  N3  UNL     1      27.173   2.906   8.700  1.00  0.00    -0.184 N
ATOM      3  H3  UNL     1      27.651   3.182   7.843  1.00  0.00     0.184 HD
HETATM    4  C12 UNL     1      25.871   2.490   8.578  1.00  0.00     0.129 A
HETATM    5  C13 UNL     1      24.988   2.897   7.601  1.00  0.00     0.116 A
HETATM    6  N7  UNL     1      23.845   2.248   7.878  1.00  0.00    -0.290 N
ATOM      7  H7  UNL     1      22.982   2.330   7.339  1.00  0.00     0.187 HD
HETATM    8  N8  UNL     1      23.997   1.487   8.952  1.00  0.00    -0.282 N
ATOM      9  H8  UNL     1      23.267   0.900   9.354  1.00  0.00     0.188 HD
HETATM   10  C17 UNL     1      25.246   1.593   9.440  1.00  0.00     0.166 A
HETATM   11  N9  UNL     1      25.740   0.962  10.517  1.00  0.00    -0.173 N
ATOM     12  H9  UNL     1      25.130   0.255  10.928  1.00  0.00     0.186 HD
HETATM   13  C18 UNL     1      26.922   1.130  11.131  1.00  0.00     0.692 C
HETATM   14  N11 UNL     1      27.902   2.008  10.769  1.00  0.00    -0.022 N
ATOM     15  H11 UNL     1      28.782   1.900  11.273  1.00  0.00     0.203 HD
ENDROOT
BRANCH   1  16
HETATM   16  N2  UNL     1      28.581   4.027  10.109  1.00  0.00    -0.185 N
ATOM     17  H2  UNL     1      28.128   4.937  10.193  1.00  0.00     0.185 HD
BRANCH  16  18
HETATM   18  C10 UNL     1      29.998   3.911  10.268  1.00  0.00     0.093 A
HETATM   19  C9  UNL     1      30.766   4.214  11.353  1.00  0.00     0.052 A
HETATM   20  C8  UNL     1      32.098   4.006  11.249  1.00  0.00     0.001 A
HETATM   21  C7  UNL     1      33.080   4.244  12.234  1.00  0.00     0.016 A
HETATM   22  C19 UNL     1      32.562   3.509  10.066  1.00  0.00     0.086 A
HETATM   23  C6  UNL     1      34.393   3.973  11.954  1.00  0.00     0.026 A
HETATM   24  C5  UNL     1      34.839   3.473  10.756  1.00  0.00     0.014 A
HETATM   25  N12 UNL     1      33.893   3.251   9.828  1.00  0.00    -0.353 N
ATOM     26  H12 UNL     1      34.169   2.880   8.919  1.00  0.00     0.166 HD
HETATM   27  S2  UNL     1      31.134   3.346   9.134  1.00  0.00    -0.053 SA
BRANCH  24  28
HETATM   28  C4  UNL     1      36.250   3.181  10.460  1.00  0.00     0.038 C
HETATM   29  C3  UNL     1      36.765   3.771   9.188  1.00  0.00     0.030 C
HETATM   30  C2  UNL     1      38.168   3.282   8.966  1.00  0.00     0.117 C
HETATM   31  N1  UNL     1      38.795   2.659  10.072  1.00  0.00    -0.417 N
HETATM   32  C1  UNL     1      38.913   1.245  10.002  1.00  0.00     0.143 C
HETATM   33  C21 UNL     1      38.569   3.216  11.357  1.00  0.00     0.117 C
HETATM   34  C20 UNL     1      37.149   3.692  11.572  1.00  0.00     0.030 C
ENDBRANCH  24  28
ENDBRANCH  16  18
ENDBRANCH   1  16
BRANCH  13  35
HETATM   35  N10 UNL     1      27.197   0.423  12.152  1.00  0.00    -0.234 N
ATOM     36 2H10 UNL     1      26.674   0.670  12.991  1.00  0.00     0.174 HD
ATOM     37 1H10 UNL     1      27.895  -0.316  12.072  1.00  0.00     0.174 HD
ENDBRANCH  13  35
BRANCH   5  38
HETATM   38  S1  UNL     1      25.355   4.037   6.276  1.00  0.00    -0.102 SA
BRANCH  38  39
HETATM   39  C14 UNL     1      24.790   5.726   6.693  1.00  0.00     0.144 C
BRANCH  39  40
HETATM   40  C15 UNL     1      25.465   6.231   7.895  1.00  0.00     0.089 A
HETATM   41  N4  UNL     1      26.794   6.272   8.084  1.00  0.00    -0.241 N
HETATM   42  O1  UNL     1      27.007   6.778   9.244  1.00  0.00    -0.155 OA
ATOM     43  H4  UNL     1      27.506   5.956   7.425  1.00  0.00     0.196 HD
HETATM   44  N5  UNL     1      25.887   7.080   9.839  1.00  0.00    -0.224 N
HETATM   45  C16 UNL     1      24.872   6.751   9.021  1.00  0.00     0.146 A
ATOM     46  H5  UNL     1      25.796   7.493  10.767  1.00  0.00     0.198 HD
BRANCH  45  47
HETATM   47  N6  UNL     1      23.591   6.902   9.266  1.00  0.00    -0.382 N
ATOM     48  H62 UNL     1      22.922   7.423   8.699  1.00  0.00     0.157 HD
ATOM     49  H61 UNL     1      23.052   6.534  10.050  1.00  0.00     0.157 HD
ENDBRANCH  45  47
ENDBRANCH  39  40
ENDBRANCH  38  39
ENDBRANCH   5  38
TORSDOF 8
ENDMDL