MODEL 5
REMARK VINA RESULT: -7.107278185      4.956      8.925
REMARK  6 active torsions:
REMARK  status: ('A' for Active; 'I' for Inactive)
REMARK    1  A    between atoms: O1_2  and  C2_3
REMARK    2  A    between atoms: C3_6  and  S1_7
REMARK    3  A    between atoms: S1_7  and  C4_8
REMARK    4  A    between atoms: C5_11  and  S2_12
REMARK    5  A    between atoms: C9_16  and  N3_17
REMARK    6  A    between atoms: C16_30  and  N6_31
ROOT
HETATM    1  C4  UNL     1      29.622   3.677   6.237  1.00  0.00     0.105 A
HETATM    2  N2  UNL     1      29.089   3.311   7.441  1.00  0.00    -0.343 N
ATOM      3  H2  UNL     1      28.107   3.039   7.492  1.00  0.00     0.167 HD
HETATM    4  C5  UNL     1      29.833   3.303   8.555  1.00  0.00     0.071 A
HETATM    5  C7  UNL     1      31.145   3.667   8.472  1.00  0.00     0.054 A
HETATM    6  C8  UNL     1      31.704   4.038   7.277  1.00  0.00     0.041 A
HETATM    7  C9  UNL     1      33.033   4.404   7.214  1.00  0.00     0.132 A
HETATM    8  N5  UNL     1      33.527   4.757   6.020  1.00  0.00    -0.176 N
ATOM      9  H5  UNL     1      34.507   5.030   5.956  1.00  0.00     0.186 HD
HETATM   10  C16 UNL     1      32.780   4.765   4.903  1.00  0.00     0.678 A
HETATM   11  N7  UNL     1      31.489   4.413   4.950  1.00  0.00    -0.188 N
ATOM     12  H7  UNL     1      30.928   4.423   4.099  1.00  0.00     0.184 HD
HETATM   13  C17 UNL     1      30.933   4.050   6.110  1.00  0.00     0.097 A
ENDROOT
BRANCH   1  14
HETATM   14  S1  UNL     1      28.533   3.641   4.843  1.00  0.00    -0.050 SA
BRANCH  14  15
HETATM   15  C3  UNL     1      28.352   2.044   4.117  1.00  0.00     0.110 A
HETATM   16  N1  UNL     1      27.440   1.177   4.580  1.00  0.00    -0.314 N
HETATM   17  C2  UNL     1      27.296  -0.045   4.004  1.00  0.00     0.225 A
ATOM     18  H1  UNL     1      26.851   1.438   5.370  1.00  0.00     0.170 HD
HETATM   19  N10 UNL     1      28.073  -0.394   2.960  1.00  0.00    -0.306 N
HETATM   20  C20 UNL     1      28.992   0.453   2.476  1.00  0.00     0.139 A
ATOM     21  H10 UNL     1      27.960  -1.314   2.533  1.00  0.00     0.171 HD
HETATM   22  C18 UNL     1      29.140   1.684   3.053  1.00  0.00     0.112 A
HETATM   23  N9  UNL     1      29.882   0.381   1.474  1.00  0.00    -0.337 N
HETATM   24  N8  UNL     1      30.122   2.358   2.399  1.00  0.00    -0.347 N
HETATM   25  C19 UNL     1      30.579   1.550   1.424  1.00  0.00     0.182 A
ATOM     26  H8  UNL     1      30.452   3.300   2.608  1.00  0.00     0.167 HD
ATOM     27  H9  UNL     1      30.015  -0.417   0.854  1.00  0.00     0.168 HD
BRANCH  17  28
HETATM   28  O1  UNL     1      26.348  -0.941   4.487  1.00  0.00    -0.327 OA
HETATM   29  C1  UNL     1      26.700  -2.272   4.811  1.00  0.00     0.213 C
ENDBRANCH  17  28
ENDBRANCH  14  15
ENDBRANCH   1  14
BRANCH   4  30
HETATM   30  S2  UNL     1      29.183   2.833  10.150  1.00  0.00    -0.117 SA
HETATM   31  C6  UNL     1      27.366   2.834  10.011  1.00  0.00     0.097 C
ENDBRANCH   4  30
BRANCH   7  32
HETATM   32  N3  UNL     1      33.804   4.386   8.400  1.00  0.00    -0.366 N
HETATM   33  C10 UNL     1      34.213   3.141   8.983  1.00  0.00     0.129 C
HETATM   34  C11 UNL     1      34.108   3.121  10.496  1.00  0.00     0.081 C
HETATM   35  C12 UNL     1      34.929   4.285  10.985  1.00  0.00     0.152 C
HETATM   36  C13 UNL     1      34.323   5.581  10.503  1.00  0.00     0.081 C
HETATM   37  N4  UNL     1      35.365   4.255  12.341  1.00  0.00    -0.304 N
HETATM   38  O3  UNL     1      36.274   4.126  10.580  1.00  0.00    -0.272 OA
HETATM   39  C14 UNL     1      34.173   5.629   9.015  1.00  0.00     0.129 C
HETATM   40  C15 UNL     1      36.646   3.839  11.885  1.00  0.00     0.365 C
ATOM     41  H4  UNL     1      34.941   4.447  13.248  1.00  0.00     0.167 HD
HETATM   42  O2  UNL     1      37.660   3.398  12.482  1.00  0.00    -0.238 OA
ENDBRANCH   7  32
BRANCH  10  43
HETATM   43  N6  UNL     1      33.313   5.120   3.757  1.00  0.00    -0.234 N
ATOM     44  H62 UNL     1      33.672   4.403   3.126  1.00  0.00     0.174 HD
ATOM     45  H61 UNL     1      33.366   6.105   3.501  1.00  0.00     0.174 HD
ENDBRANCH  10  43
TORSDOF 6
ENDMDL