MODEL 1
REMARK VINA RESULT: -9.130243857      0.000      0.000
REMARK  5 active torsions:
REMARK  status: ('A' for Active; 'I' for Inactive)
REMARK    1  A    between atoms: S1_2  and  C2_3
REMARK    2  A    between atoms: C3_6  and  N2_7
REMARK    3  A    between atoms: C5_13  and  C6_14
REMARK    4  A    between atoms: C8_18  and  N5_19
REMARK    5  A    between atoms: C11_24  and  C12_25
ROOT
HETATM    1  C12 UNL     1      30.372   3.490   8.827  1.00  0.00     0.157 C
HETATM    2  C13 UNL     1      31.038   2.180   8.455  1.00  0.00     0.034 C
HETATM    3  C14 UNL     1      28.909   3.296   8.782  1.00  0.00     0.071 C
HETATM    4  N7  UNL     1      27.764   3.141   8.759  1.00  0.00    -0.196 NA
ENDROOT
BRANCH   1   5
HETATM    5  C11 UNL     1      30.726   3.896  10.203  1.00  0.00     0.106 A
HETATM    6  N5  UNL     1      31.929   4.319  10.625  1.00  0.00    -0.293 N
HETATM    7  C9  UNL     1      31.792   4.580  11.952  1.00  0.00     0.117 A
HETATM    8  C10 UNL     1      30.484   4.309  12.337  1.00  0.00     0.107 A
HETATM    9  N6  UNL     1      29.867   3.893  11.235  1.00  0.00    -0.353 N
ATOM     10  H6  UNL     1      28.888   3.614  11.182  1.00  0.00     0.166 HD
BRANCH   6  11
HETATM   11  C8  UNL     1      33.112   4.469   9.853  1.00  0.00     0.145 A
HETATM   12  C7  UNL     1      33.042   5.272   8.709  1.00  0.00     0.123 A
HETATM   13  N4  UNL     1      32.074   5.987   8.112  1.00  0.00    -0.334 N
HETATM   14  C21 UNL     1      34.182   5.408   7.978  1.00  0.00     0.139 A
HETATM   15  C6  UNL     1      32.587   6.583   6.998  1.00  0.00     0.140 A
ATOM     16  H4  UNL     1      31.112   6.071   8.439  1.00  0.00     0.168 HD
HETATM   17  N11 UNL     1      33.860   6.213   6.948  1.00  0.00    -0.325 N
ATOM     18  H11 UNL     1      34.514   6.503   6.220  1.00  0.00     0.169 HD
HETATM   19  N10 UNL     1      35.304   4.800   8.345  1.00  0.00    -0.325 N
HETATM   20  C15 UNL     1      35.386   4.022   9.447  1.00  0.00     0.135 A
ATOM     21  H10 UNL     1      36.139   4.927   7.772  1.00  0.00     0.169 HD
HETATM   22  N8  UNL     1      34.274   3.877  10.179  1.00  0.00    -0.324 N
HETATM   23  C16 UNL     1      36.663   3.413   9.742  1.00  0.00     0.076 A
ATOM     24  H8  UNL     1      34.310   3.294  11.015  1.00  0.00     0.169 HD
HETATM   25  C17 UNL     1      36.821   2.609  10.844  1.00  0.00     0.033 A
HETATM   26  N9  UNL     1      37.747   3.593   8.973  1.00  0.00    -0.363 N
HETATM   27  C18 UNL     1      38.037   2.011  11.153  1.00  0.00     0.004 A
HETATM   28  C19 UNL     1      39.119   2.229  10.327  1.00  0.00     0.017 A
HETATM   29  C20 UNL     1      38.938   3.038   9.230  1.00  0.00     0.088 A
ATOM     30  H9  UNL     1      37.658   4.185   8.147  1.00  0.00     0.165 HD
BRANCH  15  31
HETATM   31  C5  UNL     1      31.795   7.435   6.121  1.00  0.00     0.146 A
HETATM   32  N3  UNL     1      31.786   7.172   4.789  1.00  0.00    -0.343 N
HETATM   33  C4  UNL     1      31.051   7.967   3.998  1.00  0.00     0.121 A
ATOM     34  H3  UNL     1      32.321   6.395   4.403  1.00  0.00     0.166 HD
HETATM   35  C3  UNL     1      31.053   7.683   2.626  1.00  0.00     0.132 A
HETATM   36  C23 UNL     1      30.322   9.020   4.497  1.00  0.00     0.141 A
HETATM   37  N1  UNL     1      30.316   8.482   1.844  1.00  0.00    -0.321 N
HETATM   38  C2  UNL     1      29.609   9.507   2.348  1.00  0.00     0.147 A
ATOM     39  H1  UNL     1      30.290   8.309   0.839  1.00  0.00     0.169 HD
HETATM   40  N13 UNL     1      29.596   9.791   3.654  1.00  0.00    -0.321 N
ATOM     41  H13 UNL     1      29.049  10.575   4.008  1.00  0.00     0.169 HD
HETATM   42  N12 UNL     1      30.336   9.272   5.813  1.00  0.00    -0.305 N
HETATM   43  C22 UNL     1      31.069   8.483   6.624  1.00  0.00     0.277 A
ATOM     44  H12 UNL     1      29.800  10.051   6.196  1.00  0.00     0.170 HD
HETATM   45  O1  UNL     1      31.036   8.780   7.855  1.00  0.00    -0.265 OA
BRANCH  35  46
HETATM   46  N2  UNL     1      31.738   6.694   2.158  1.00  0.00    -0.383 N
ATOM     47  H22 UNL     1      32.552   6.858   1.565  1.00  0.00     0.157 HD
ATOM     48  H21 UNL     1      31.505   5.721   2.357  1.00  0.00     0.157 HD
ENDBRANCH  35  46
BRANCH  38  49
HETATM   49  S1  UNL     1      28.627  10.567   1.273  1.00  0.00    -0.098 SA
HETATM   50  C1  UNL     1      27.928  11.918   2.274  1.00  0.00     0.099 C
ENDBRANCH  38  49
ENDBRANCH  15  31
ENDBRANCH   6  11
ENDBRANCH   1   5
TORSDOF 5
ENDMDL