MODEL 2
REMARK VINA RESULT: -9.078401688      4.810      9.796
REMARK  6 active torsions:
REMARK  status: ('A' for Active; 'I' for Inactive)
REMARK    1  A    between atoms: N1_1  and  C1_4
REMARK    2  A    between atoms: C2_7  and  N3_8
REMARK    3  A    between atoms: C5_11  and  N4_12
REMARK    4  A    between atoms: C14_29  and  S1_30
REMARK    5  A    between atoms: S1_30  and  C15_31
REMARK    6  A    between atoms: C15_31  and  C16_32
ROOT
HETATM    1  C1  UNL     1      31.724   3.578   7.192  1.00  0.00     0.678 A
HETATM    2  N2  UNL     1      31.265   4.470   6.337  1.00  0.00    -0.177 N
ATOM      3  H2  UNL     1      30.647   4.151   5.591  1.00  0.00     0.185 HD
HETATM    4  C2  UNL     1      31.570   5.788   6.397  1.00  0.00     0.121 A
HETATM    5  C13 UNL     1      32.403   6.196   7.408  1.00  0.00     0.086 A
HETATM    6  C14 UNL     1      32.892   5.248   8.317  1.00  0.00     0.090 A
HETATM    7  N11 UNL     1      32.549   3.975   8.196  1.00  0.00    -0.186 N
ATOM      8  H11 UNL     1      32.907   3.289   8.859  1.00  0.00     0.185 HD
ENDROOT
BRANCH   4   9
HETATM    9  N3  UNL     1      31.045   6.701   5.452  1.00  0.00    -0.367 N
HETATM   10  C3  UNL     1      30.242   7.823   5.863  1.00  0.00     0.126 C
HETATM   11  C4  UNL     1      30.719   9.113   5.255  1.00  0.00     0.045 C
HETATM   12  C5  UNL     1      31.082   8.975   3.787  1.00  0.00     0.099 C
HETATM   13  C11 UNL     1      30.615   7.639   3.315  1.00  0.00     0.045 C
HETATM   14  C12 UNL     1      31.319   6.508   4.053  1.00  0.00     0.126 C
BRANCH  12  15
HETATM   15  N4  UNL     1      30.470  10.055   3.060  1.00  0.00    -0.278 N
HETATM   16  C6  UNL     1      31.193  10.889   2.251  1.00  0.00     0.329 A
HETATM   17  O1  UNL     1      32.452  10.829   2.037  1.00  0.00    -0.246 OA
HETATM   18  N5  UNL     1      30.328  11.766   1.740  1.00  0.00    -0.301 N
HETATM   19  C7  UNL     1      29.084  11.512   2.200  1.00  0.00     0.149 A
ATOM     20  H5  UNL     1      30.570  12.518   1.095  1.00  0.00     0.171 HD
HETATM   21  C8  UNL     1      27.867  12.138   1.959  1.00  0.00     0.277 A
HETATM   22  C10 UNL     1      29.180  10.424   3.038  1.00  0.00     0.145 A
HETATM   23  O2  UNL     1      27.785  13.134   1.191  1.00  0.00    -0.266 OA
HETATM   24  N6  UNL     1      26.786  11.630   2.586  1.00  0.00    -0.318 N
HETATM   25  C9  UNL     1      26.905  10.564   3.402  1.00  0.00     0.185 A
ATOM     26  H6  UNL     1      25.871  12.056   2.442  1.00  0.00     0.169 HD
HETATM   27  N7  UNL     1      28.060   9.945   3.650  1.00  0.00    -0.336 N
ATOM     28  H7  UNL     1      28.104   9.141   4.277  1.00  0.00     0.168 HD
ENDBRANCH  12  15
ENDBRANCH   4   9
BRANCH   1  29
HETATM   29  N1  UNL     1      31.378   2.339   7.057  1.00  0.00    -0.234 N
ATOM     30  H12 UNL     1      30.729   2.047   6.326  1.00  0.00     0.174 HD
ATOM     31  H11 UNL     1      31.763   1.643   7.695  1.00  0.00     0.174 HD
ENDBRANCH   1  29
BRANCH   6  32
HETATM   32  S1  UNL     1      33.912   5.830   9.625  1.00  0.00    -0.104 SA
BRANCH  32  33
HETATM   33  C15 UNL     1      33.841   4.920  11.151  1.00  0.00     0.158 C
BRANCH  33  34
HETATM   34  C16 UNL     1      35.134   4.187  11.403  1.00  0.00     0.097 C
HETATM   35  N8  UNL     1      35.842   3.917  10.354  1.00  0.00    -0.343 N
HETATM   36  C17 UNL     1      37.061   3.248  10.342  1.00  0.00     0.069 A
ATOM     37  H8  UNL     1      35.473   4.223   9.454  1.00  0.00     0.167 HD
HETATM   38  C18 UNL     1      37.705   3.092   9.117  1.00  0.00     0.034 A
HETATM   39  C21 UNL     1      37.742   2.743  11.426  1.00  0.00     0.117 A
HETATM   40  C19 UNL     1      38.930   2.476   9.026  1.00  0.00     0.019 A
HETATM   41  C20 UNL     1      39.583   1.982  10.148  1.00  0.00     0.089 A
HETATM   42  N9  UNL     1      38.935   2.148  11.311  1.00  0.00    -0.357 N
ATOM     43  H9  UNL     1      39.379   1.799  12.160  1.00  0.00     0.166 HD
HETATM   44  S2  UNL     1      36.932   2.879  13.023  1.00  0.00     0.007 SA
HETATM   45  N10 UNL     1      35.502   3.874  12.727  1.00  0.00    -0.314 N
ATOM     46  H10 UNL     1      34.946   4.220  13.508  1.00  0.00     0.175 HD
ENDBRANCH  33  34
ENDBRANCH  32  33
ENDBRANCH   6  32
TORSDOF 6
ENDMDL