MODEL 2
REMARK VINA RESULT: -5.127559339      1.577      1.995
REMARK  4 active torsions:
REMARK  status: ('A' for Active; 'I' for Inactive)
REMARK    1  A    between atoms: C2_3  and  O1_6
REMARK    2  A    between atoms: O1_6  and  C4_7
REMARK    3  A    between atoms: C6_9  and  O2_10
REMARK    4  A    between atoms: N3_16  and  N4_17
ROOT
HETATM    1  N1  UNL     1      78.535  52.178 106.259  1.00  0.00    -0.193 NA
HETATM    2  C1  UNL     1      79.645  52.506 106.431  1.00  0.00     0.106 C
HETATM    3  C2  UNL     1      81.029  52.928 106.624  1.00  0.00     0.337 C
HETATM    4  C3  UNL     1      81.657  52.967 105.301  1.00  0.00     0.106 C
HETATM    5  N2  UNL     1      82.151  52.997 104.259  1.00  0.00    -0.193 NA
ENDROOT
BRANCH   3   6
HETATM    6  O1  UNL     1      81.103  54.157 107.274  1.00  0.00    -0.332 OA
BRANCH   6   7
HETATM    7  C4  UNL     1      80.360  54.164 108.447  1.00  0.00     0.252 C
HETATM    8  C5  UNL     1      81.169  53.760 109.632  1.00  0.00     0.072 A
HETATM    9  C6  UNL     1      82.579  53.974 109.829  1.00  0.00     0.131 A
HETATM   10  C7  UNL     1      81.755  55.086 110.207  1.00  0.00     0.026 A
HETATM   11  C8  UNL     1      80.999  55.301 111.459  1.00  0.00     0.013 C
HETATM   12  C9  UNL     1      79.534  55.176 111.099  1.00  0.00     0.047 C
HETATM   13  C10 UNL     1      79.160  55.784 109.808  1.00  0.00     0.085 C
HETATM   14  N3  UNL     1      79.841  55.462 108.649  1.00  0.00    -0.284 N
BRANCH   9  15
HETATM   15  O2  UNL     1      83.375  54.111 108.689  1.00  0.00    -0.395 OA
ATOM     16  H2  UNL     1      84.293  53.876 108.765  1.00  0.00     0.210 HD
ENDBRANCH   9  15
BRANCH  14  17
HETATM   17  N4  UNL     1      79.932  56.355 107.649  1.00  0.00    -0.341 N
ATOM     18  H42 UNL     1      80.843  56.715 107.364  1.00  0.00     0.177 HD
ATOM     19  H41 UNL     1      79.072  56.719 107.238  1.00  0.00     0.177 HD
ENDBRANCH  14  17
ENDBRANCH   6   7
ENDBRANCH   3   6
TORSDOF 4
ENDMDL