MODEL 1
REMARK VINA RESULT: -5.378978361      0.000      0.000
REMARK  4 active torsions:
REMARK  status: ('A' for Active; 'I' for Inactive)
REMARK    1  A    between atoms: O1_1  and  C1_3
REMARK    2  A    between atoms: C1_3  and  C2_4
REMARK    3  A    between atoms: C4_7  and  N1_8
REMARK    4  A    between atoms: C10_16  and  O3_17
ROOT
HETATM    1  C2  UNL     1      82.242  53.706 105.946  1.00  0.00     0.130 C
HETATM    2  C3  UNL     1      81.698  55.084 106.079  1.00  0.00     0.213 C
HETATM    3  O2  UNL     1      80.789  55.230 107.119  1.00  0.00    -0.360 OA
HETATM    4  C4  UNL     1      81.334  54.648 108.253  1.00  0.00     0.257 C
HETATM    5  C8  UNL     1      81.532  53.166 107.910  1.00  0.00     0.174 C
HETATM    6  C9  UNL     1      80.430  52.684 106.987  1.00  0.00     0.071 C
HETATM    7  C10 UNL     1      81.107  52.746 105.609  1.00  0.00     0.159 C
HETATM    8  O4  UNL     1      82.709  53.156 107.124  1.00  0.00    -0.363 OA
ENDROOT
BRANCH   4   9
HETATM    9  N1  UNL     1      80.515  54.812 109.426  1.00  0.00    -0.322 N
HETATM   10  C5  UNL     1      80.958  54.652 110.687  1.00  0.00     0.111 A
HETATM   11  C6  UNL     1      79.935  54.879 111.566  1.00  0.00     0.106 A
HETATM   12  N2  UNL     1      78.854  55.184 110.821  1.00  0.00    -0.361 N
HETATM   13  C7  UNL     1      79.221  55.139 109.528  1.00  0.00     0.184 A
ATOM     14  H2  UNL     1      77.925  55.408 111.175  1.00  0.00     0.166 HD
ENDBRANCH   4   9
BRANCH   1  15
HETATM   15  C1  UNL     1      83.326  53.685 104.914  1.00  0.00     0.207 C
BRANCH  15  16
HETATM   16  O1  UNL     1      82.739  53.636 103.639  1.00  0.00    -0.398 OA
ATOM     17  H1  UNL     1      83.427  53.628 102.984  1.00  0.00     0.209 HD
ENDBRANCH  15  16
ENDBRANCH   1  15
BRANCH   7  18
HETATM   18  O3  UNL     1      80.267  53.240 104.643  1.00  0.00    -0.392 OA
ATOM     19  H3  UNL     1      79.501  53.667 105.008  1.00  0.00     0.210 HD
ENDBRANCH   7  18
TORSDOF 4
ENDMDL