MODEL 4
REMARK VINA RESULT: -4.929818625      1.419      1.846
REMARK  4 active torsions:
REMARK  status: ('A' for Active; 'I' for Inactive)
REMARK    1  A    between atoms: O1_1  and  C1_3
REMARK    2  A    between atoms: C2_6  and  C3_7
REMARK    3  A    between atoms: C3_7  and  N1_8
REMARK    4  A    between atoms: C8_14  and  O4_15
ROOT
HETATM    1  C1  UNL     1      81.141  50.712 105.758  1.00  0.00     0.301 C
HETATM    2  O2  UNL     1      81.534  51.412 104.623  1.00  0.00    -0.285 OA
HETATM    3  S1  UNL     1      81.176  53.074 104.985  1.00  0.00     0.001 SA
HETATM    4  C2  UNL     1      81.038  52.901 106.808  1.00  0.00     0.138 C
HETATM    5  C8  UNL     1      81.594  51.483 106.963  1.00  0.00     0.191 C
ENDROOT
BRANCH   4   6
HETATM    6  C3  UNL     1      82.015  53.798 107.508  1.00  0.00     0.292 C
BRANCH   6   7
HETATM    7  N1  UNL     1      81.416  54.973 108.082  1.00  0.00     0.093 N
HETATM    8  C4  UNL     1      80.080  54.619 108.502  1.00  0.00     0.298 C
HETATM    9  C5  UNL     1      79.362  55.783 109.148  1.00  0.00     0.198 C
HETATM   10  O3  UNL     1      79.377  56.832 108.230  1.00  0.00    -0.388 OA
HETATM   11  C6  UNL     1      80.661  57.227 107.943  1.00  0.00     0.198 C
HETATM   12  C7  UNL     1      81.471  56.126 107.254  1.00  0.00     0.298 C
ENDBRANCH   6   7
ENDBRANCH   4   6
BRANCH   5  13
HETATM   13  O4  UNL     1      81.085  50.866 108.087  1.00  0.00    -0.389 OA
ATOM     14  H4  UNL     1      81.811  50.511 108.586  1.00  0.00     0.210 HD
ENDBRANCH   5  13
BRANCH   1  15
HETATM   15  O1  UNL     1      79.803  50.403 105.777  1.00  0.00    -0.368 OA
ATOM     16  H1  UNL     1      79.538  49.906 106.542  1.00  0.00     0.212 HD
ENDBRANCH   1  15
TORSDOF 4
ENDMDL