MODEL 2
REMARK VINA RESULT: -5.028492125      1.601      2.102
REMARK  4 active torsions:
REMARK  status: ('A' for Active; 'I' for Inactive)
REMARK    1  A    between atoms: O1_2  and  C2_3
REMARK    2  A    between atoms: C3_5  and  C4_6
REMARK    3  A    between atoms: C4_6  and  O3_7
REMARK    4  A    between atoms: C7_12  and  O5_13
ROOT
HETATM    1  C2  UNL     1      81.128  53.758 107.614  1.00  0.00     0.298 C
HETATM    2  O2  UNL     1      80.092  53.380 106.753  1.00  0.00    -0.348 OA
HETATM    3  C3  UNL     1      80.524  52.372 105.905  1.00  0.00     0.179 C
HETATM    4  C5  UNL     1      81.849  52.638 105.270  1.00  0.00     0.178 C
HETATM    5  C6  UNL     1      81.659  53.713 104.222  1.00  0.00     0.205 C
HETATM    6  O4  UNL     1      81.340  54.941 104.769  1.00  0.00    -0.356 OA
HETATM    7  C7  UNL     1      82.062  55.295 105.866  1.00  0.00     0.295 C
HETATM    8  C8  UNL     1      82.361  54.170 106.820  1.00  0.00     0.156 C
HETATM    9  C9  UNL     1      83.386  54.661 107.819  1.00  0.00     0.056 C
HETATM   10  O6  UNL     1      82.828  53.027 106.178  1.00  0.00    -0.360 OA
ENDROOT
BRANCH   3  11
HETATM   11  C4  UNL     1      80.491  51.003 106.592  1.00  0.00     0.198 C
BRANCH  11  12
HETATM   12  O3  UNL     1      79.333  50.319 106.244  1.00  0.00    -0.398 OA
ATOM     13  H3  UNL     1      79.042  50.585 105.380  1.00  0.00     0.209 HD
ENDBRANCH  11  12
ENDBRANCH   3  11
BRANCH   1  14
HETATM   14  O1  UNL     1      80.684  54.812 108.392  1.00  0.00    -0.363 OA
HETATM   15  C1  UNL     1      79.387  54.553 108.805  1.00  0.00     0.204 C
ENDBRANCH   1  14
BRANCH   7  16
HETATM   16  O5  UNL     1      81.344  56.259 106.573  1.00  0.00    -0.368 OA
ATOM     17  H5  UNL     1      80.520  56.410 106.123  1.00  0.00     0.212 HD
ENDBRANCH   7  16
TORSDOF 4
ENDMDL