MODEL 1
REMARK VINA RESULT: -4.906060701      0.000      0.000
REMARK  4 active torsions:
REMARK  status: ('A' for Active; 'I' for Inactive)
REMARK    1  A    between atoms: S1_2  and  C2_3
REMARK    2  A    between atoms: C3_5  and  C4_6
REMARK    3  A    between atoms: C7_11  and  O3_12
REMARK    4  A    between atoms: C8_14  and  O4_15
ROOT
HETATM    1  C4  UNL     1      79.140  51.782 106.566  1.00  0.00     0.198 A
HETATM    2  O2  UNL     1      78.273  52.804 106.979  1.00  0.00    -0.357 OA
HETATM    3  C5  UNL     1      77.761  51.814 106.014  1.00  0.00     0.260 A
HETATM    4  C6  UNL     1      76.722  51.000 106.594  1.00  0.00     0.094 C
HETATM    5  N1  UNL     1      75.888  50.348 107.044  1.00  0.00    -0.194 NA
ENDROOT
BRANCH   1   6
HETATM    6  C3  UNL     1      80.244  52.133 105.604  1.00  0.00     0.187 C
HETATM    7  O1  UNL     1      80.657  53.432 105.868  1.00  0.00    -0.362 OA
HETATM    8  C2  UNL     1      81.863  53.358 106.557  1.00  0.00     0.214 C
HETATM    9  C8  UNL     1      82.585  52.247 105.856  1.00  0.00     0.188 C
HETATM   10  C7  UNL     1      81.450  51.232 105.709  1.00  0.00     0.181 C
BRANCH   8  11
HETATM   11  S1  UNL     1      82.677  54.946 106.501  1.00  0.00    -0.139 SA
HETATM   12  C1  UNL     1      82.135  55.911 105.078  1.00  0.00     0.092 C
ENDBRANCH   8  11
BRANCH   9  13
HETATM   13  O4  UNL     1      83.572  51.655 106.604  1.00  0.00    -0.389 OA
ATOM     14  H4  UNL     1      84.454  51.827 106.294  1.00  0.00     0.210 HD
ENDBRANCH   9  13
BRANCH  10  15
HETATM   15  O3  UNL     1      81.409  50.379 106.789  1.00  0.00    -0.390 OA
ATOM     16  H3  UNL     1      82.266  50.172 107.144  1.00  0.00     0.210 HD
ENDBRANCH  10  15
ENDBRANCH   1   6
TORSDOF 4
ENDMDL