MODEL 3
REMARK VINA RESULT: -4.853541234      1.906      3.715
REMARK  4 active torsions:
REMARK  status: ('A' for Active; 'I' for Inactive)
REMARK    1  A    between atoms: O1_2  and  C2_3
REMARK    2  A    between atoms: C3_5  and  C4_6
REMARK    3  A    between atoms: C4_6  and  O3_7
REMARK    4  A    between atoms: C9_15  and  O6_16
ROOT
HETATM    1  C2  UNL     1      81.016  54.156 109.707  1.00  0.00     0.294 C
HETATM    2  O2  UNL     1      81.811  53.056 109.438  1.00  0.00    -0.318 OA
HETATM    3  C3  UNL     1      81.743  52.783 108.099  1.00  0.00     0.220 C
HETATM    4  O4  UNL     1      82.668  53.456 107.340  1.00  0.00    -0.315 OA
HETATM    5  C5  UNL     1      82.055  53.827 106.147  1.00  0.00     0.161 C
HETATM    6  C6  UNL     1      82.481  52.826 105.084  1.00  0.00     0.078 C
HETATM    7  C7  UNL     1      82.520  55.188 105.677  1.00  0.00     0.078 C
HETATM    8  O5  UNL     1      80.699  53.837 106.349  1.00  0.00    -0.342 OA
HETATM    9  C8  UNL     1      80.436  53.275 107.579  1.00  0.00     0.223 C
HETATM   10  C9  UNL     1      79.987  54.251 108.611  1.00  0.00     0.208 C
ENDROOT
BRANCH   3  11
HETATM   11  C4  UNL     1      81.862  51.269 107.934  1.00  0.00     0.235 C
BRANCH  11  12
HETATM   12  O3  UNL     1      80.693  50.792 107.342  1.00  0.00    -0.395 OA
ATOM     13  H3  UNL     1      80.838  49.897 107.060  1.00  0.00     0.209 HD
ENDBRANCH  11  12
ENDBRANCH   3  11
BRANCH   1  14
HETATM   14  O1  UNL     1      80.340  54.043 110.914  1.00  0.00    -0.363 OA
HETATM   15  C1  UNL     1      80.477  55.250 111.594  1.00  0.00     0.204 C
ENDBRANCH   1  14
BRANCH  10  16
HETATM   16  O6  UNL     1      79.969  55.566 108.155  1.00  0.00    -0.388 OA
ATOM     17  H6  UNL     1      79.327  55.624 107.457  1.00  0.00     0.210 HD
ENDBRANCH  10  16
TORSDOF 4
ENDMDL