MODEL 1
REMARK VINA RESULT: -5.315219720      0.000      0.000
REMARK  4 active torsions:
REMARK  status: ('A' for Active; 'I' for Inactive)
REMARK    1  A    between atoms: C2_2  and  O1_4
REMARK    2  A    between atoms: O1_4  and  C4_5
REMARK    3  A    between atoms: C5_6  and  O2_7
REMARK    4  A    between atoms: C6_10  and  O4_11
ROOT
HETATM    1  C4  UNL     1      80.839  53.029 107.151  1.00  0.00     0.244 C
HETATM    2  C5  UNL     1      80.044  52.064 106.312  1.00  0.00     0.294 C
HETATM    3  O3  UNL     1      80.560  52.057 105.046  1.00  0.00    -0.323 OA
HETATM    4  C6  UNL     1      81.836  52.557 105.055  1.00  0.00     0.326 C
HETATM    5  C7  UNL     1      81.767  53.628 106.114  1.00  0.00     0.246 C
HETATM    6  O5  UNL     1      83.003  53.976 106.613  1.00  0.00    -0.347 OA
HETATM    7  C8  UNL     1      83.385  55.141 105.906  1.00  0.00     0.198 C
HETATM    8  C9  UNL     1      82.043  55.830 105.785  1.00  0.00     0.198 C
HETATM    9  O6  UNL     1      81.199  54.757 105.545  1.00  0.00    -0.347 OA
ENDROOT
BRANCH   1  10
HETATM   10  O1  UNL     1      80.127  54.030 107.712  1.00  0.00    -0.371 OA
BRANCH  10  11
HETATM   11  C2  UNL     1      80.280  54.279 109.035  1.00  0.00     0.114 C
HETATM   12  C1  UNL     1      80.588  55.782 109.164  1.00  0.00     0.039 C
HETATM   13  C3  UNL     1      81.359  53.549 109.741  1.00  0.00     0.039 C
ENDBRANCH  10  11
ENDBRANCH   1  10
BRANCH   2  14
HETATM   14  O2  UNL     1      78.693  52.405 106.231  1.00  0.00    -0.368 OA
ATOM     15  H2  UNL     1      78.265  52.031 105.470  1.00  0.00     0.212 HD
ENDBRANCH   2  14
BRANCH   4  16
HETATM   16  O4  UNL     1      82.136  53.173 103.836  1.00  0.00    -0.366 OA
ATOM     17  H4  UNL     1      83.005  53.555 103.857  1.00  0.00     0.212 HD
ENDBRANCH   4  16
TORSDOF 4
ENDMDL