MODEL 3
REMARK VINA RESULT: -5.326565522      2.036      3.717
REMARK  4 active torsions:
REMARK  status: ('A' for Active; 'I' for Inactive)
REMARK    1  A    between atoms: C3_4  and  O1_5
REMARK    2  A    between atoms: N2_8  and  C5_10
REMARK    3  A    between atoms: C5_10  and  C6_11
REMARK    4  A    between atoms: C6_11  and  O2_12
ROOT
HETATM    1  N1  UNL     1      83.070  54.752 109.629  1.00  0.00    -0.197 NA
HETATM    2  C1  UNL     1      81.943  54.732 109.921  1.00  0.00     0.069 C
HETATM    3  C2  UNL     1      80.509  54.716 110.269  1.00  0.00     0.164 C
HETATM    4  C3  UNL     1      79.665  54.520 109.043  1.00  0.00     0.183 C
HETATM    5  C4  UNL     1      78.419  55.255 109.356  1.00  0.00     0.019 C
HETATM    6  N2  UNL     1      77.268  54.905 109.045  1.00  0.00    -0.372 N
ATOM      7  H2  UNL     1      77.200  54.029 108.528  1.00  0.00     0.164 HD
HETATM    8  C7  UNL     1      78.840  56.462 110.097  1.00  0.00     0.097 C
HETATM    9  C8  UNL     1      80.152  56.092 110.746  1.00  0.00     0.161 C
HETATM   10  C9  UNL     1      81.163  57.084 110.423  1.00  0.00     0.086 C
HETATM   11  N3  UNL     1      81.967  57.879 110.179  1.00  0.00    -0.195 NA
HETATM   12  C10 UNL     1      79.949  56.001 112.206  1.00  0.00     0.086 C
HETATM   13  N4  UNL     1      79.809  55.928 113.358  1.00  0.00    -0.195 NA
ENDROOT
BRANCH   4  14
HETATM   14  O1  UNL     1      80.236  55.141 107.924  1.00  0.00    -0.388 OA
ATOM     15  H1  UNL     1      80.565  56.006 108.137  1.00  0.00     0.210 HD
ENDBRANCH   4  14
BRANCH   6  16
HETATM   16  C5  UNL     1      76.045  55.551 109.308  1.00  0.00     0.086 C
BRANCH  16  17
HETATM   17  C6  UNL     1      74.872  54.703 108.867  1.00  0.00     0.208 C
BRANCH  17  18
HETATM   18  O2  UNL     1      75.313  53.630 108.103  1.00  0.00    -0.396 OA
ATOM     19  H2  UNL     1      76.253  53.678 107.979  1.00  0.00     0.209 HD
ENDBRANCH  17  18
ENDBRANCH  16  17
ENDBRANCH   6  16
TORSDOF 4
ENDMDL