MODEL 3
REMARK VINA RESULT: -5.839104284      1.491      1.545
REMARK  4 active torsions:
REMARK  status: ('A' for Active; 'I' for Inactive)
REMARK    1  A    between atoms: O1_1  and  C1_3
REMARK    2  A    between atoms: C1_3  and  C2_4
REMARK    3  A    between atoms: C4_6  and  O2_7
REMARK    4  A    between atoms: C6_10  and  N1_11
ROOT
HETATM    1  C2  UNL     1      79.772  57.857 110.481  1.00  0.00     0.150 C
HETATM    2  C3  UNL     1      80.908  57.116 111.163  1.00  0.00     0.066 C
HETATM    3  C4  UNL     1      80.265  55.902 111.786  1.00  0.00     0.124 C
HETATM    4  C5  UNL     1      79.329  55.182 110.893  1.00  0.00     0.085 C
HETATM    5  C6  UNL     1      78.812  55.905 109.722  1.00  0.00     0.225 C
HETATM    6  O5  UNL     1      79.432  57.082 109.387  1.00  0.00    -0.359 OA
ENDROOT
BRANCH   5   7
HETATM    7  N1  UNL     1      77.395  56.184 109.894  1.00  0.00    -0.345 N
HETATM    8  C7  UNL     1      76.457  55.502 109.400  1.00  0.00     0.152 C
HETATM    9  C8  UNL     1      75.059  55.912 109.664  1.00  0.00     0.089 C
HETATM   10  O4  UNL     1      76.678  54.385 108.620  1.00  0.00    -0.184 OA
HETATM   11  C9  UNL     1      74.176  54.701 109.393  1.00  0.00     0.037 C
HETATM   12  C10 UNL     1      74.507  54.257 107.965  1.00  0.00     0.211 C
HETATM   13  O3  UNL     1      75.755  53.686 107.994  1.00  0.00    -0.234 OA
ATOM     14  H1  UNL     1      77.141  56.994 110.458  1.00  0.00     0.164 HD
ENDBRANCH   5   7
BRANCH   3  15
HETATM   15  O2  UNL     1      79.585  56.373 112.933  1.00  0.00    -0.395 OA
ATOM     16  H2  UNL     1      78.944  55.705 113.146  1.00  0.00     0.210 HD
ENDBRANCH   3  15
BRANCH   1  17
HETATM   17  C1  UNL     1      80.137  59.249 110.113  1.00  0.00     0.196 C
BRANCH  17  18
HETATM   18  O1  UNL     1      80.035  59.522 108.768  1.00  0.00    -0.398 OA
ATOM     19  H1  UNL     1      79.391  60.186 108.553  1.00  0.00     0.209 HD
ENDBRANCH  17  18
ENDBRANCH   1  17
TORSDOF 4
ENDMDL