MODEL 3
REMARK VINA RESULT: -4.653593501      3.647      6.209
REMARK  3 active torsions:
REMARK  status: ('A' for Active; 'I' for Inactive)
REMARK    1  A    between atoms: S1_2  and  C2_3
REMARK    2  A    between atoms: C2_3  and  C3_4
REMARK    3  A    between atoms: C7_12  and  O3_14
ROOT
HETATM    1  C3  UNL     1      80.284  55.170 108.789  1.00  0.00     0.179 C
HETATM    2  O1  UNL     1      78.936  55.024 109.055  1.00  0.00    -0.376 OA
HETATM    3  C4  UNL     1      78.248  56.206 109.163  1.00  0.00     0.229 C
HETATM    4  C5  UNL     1      78.991  57.110 110.140  1.00  0.00     0.291 C
HETATM    5  O2  UNL     1      80.256  57.344 109.652  1.00  0.00    -0.332 OA
HETATM    6  C6  UNL     1      80.959  56.144 109.700  1.00  0.00     0.253 C
HETATM    7  N1  UNL     1      81.061  55.733 111.056  1.00  0.00    -0.341 N
ATOM      8  H1  UNL     1      81.947  55.430 111.461  1.00  0.00     0.161 HD
HETATM    9  C7  UNL     1      79.864  55.766 111.813  1.00  0.00     0.242 C
HETATM   10  C8  UNL     1      80.238  56.114 113.263  1.00  0.00     0.106 C
HETATM   11  O4  UNL     1      78.925  56.672 111.425  1.00  0.00    -0.306 OA
ENDROOT
BRANCH   1  12
HETATM   12  C2  UNL     1      80.913  53.806 108.789  1.00  0.00     0.109 C
BRANCH  12  13
HETATM   13  S1  UNL     1      81.176  53.347 107.038  1.00  0.00    -0.171 SA
HETATM   14  C1  UNL     1      80.532  51.699 106.689  1.00  0.00     0.089 C
ENDBRANCH  12  13
ENDBRANCH   1  12
BRANCH   9  15
HETATM   15  O3  UNL     1      79.308  54.480 111.869  1.00  0.00    -0.349 OA
ATOM     16  H3  UNL     1      79.990  53.833 111.729  1.00  0.00     0.215 HD
ENDBRANCH   9  15
TORSDOF 3
ENDMDL