MODEL 5
REMARK VINA RESULT: -3.648048914      0.683      2.037
REMARK  1 active torsions:
REMARK  status: ('A' for Active; 'I' for Inactive)
REMARK    1  A    between atoms: C3_3  and  O1_6
ROOT
HETATM    1  C1  UNL     1       9.281  -2.475  16.469  1.00  0.00     0.015 C
HETATM    2  C2  UNL     1       9.758  -1.536  17.081  1.00  0.00    -0.080 C
HETATM    3  C3  UNL     1      10.321  -0.414  17.839  1.00  0.00     0.115 C
HETATM    4  C4  UNL     1       9.850   0.852  17.196  1.00  0.00     0.060 C
HETATM    5  C5  UNL     1      11.830  -0.466  17.787  1.00  0.00     0.060 C
ENDROOT
BRANCH   3   6
HETATM    6  O1  UNL     1       9.925  -0.565  19.153  1.00  0.00    -0.373 OA
HETATM    7  C6  UNL     1       8.733   0.062  19.455  1.00  0.00     0.204 C
ENDBRANCH   3   6
TORSDOF 1
ENDMDL