MODEL 1
REMARK VINA RESULT: -3.515167361      0.000      0.000
REMARK  0 active torsions:
REMARK  status: ('A' for Active; 'I' for Inactive)
ROOT
HETATM    1  C1  UNL     1      14.268  -2.904  11.319  1.00  0.00     0.031 C
HETATM    2  C2  UNL     1      12.790  -3.221  11.643  1.00  0.00     0.023 A
HETATM    3  C3  UNL     1      11.983  -2.042  11.057  1.00  0.00     0.031 C
HETATM    4  C4  UNL     1      12.344  -4.511  11.296  1.00  0.00     0.000 A
HETATM    5  C5  UNL     1      12.121  -4.957  12.438  1.00  0.00     0.043 A
HETATM    6  S1  UNL     1      12.575  -3.558  13.319  1.00  0.00    -0.128 SA
ENDROOT
TORSDOF 0
ENDMDL