MODEL 5
REMARK VINA RESULT: -3.575134169      6.339      7.238
REMARK  0 active torsions:
REMARK  status: ('A' for Active; 'I' for Inactive)
ROOT
HETATM    1  C1  UNL     1      14.008  -2.225  14.022  1.00  0.00     0.049 C
HETATM    2  C2  UNL     1      13.862  -3.593  13.438  1.00  0.00     0.085 A
HETATM    3  C3  UNL     1      14.064  -4.735  14.410  1.00  0.00     0.049 C
HETATM    4  O1  UNL     1      14.381  -3.870  12.167  1.00  0.00    -0.365 OA
HETATM    5  C4  UNL     1      12.999  -3.781  12.237  1.00  0.00     0.085 A
HETATM    6  C5  UNL     1      12.150  -5.011  12.234  1.00  0.00     0.049 C
HETATM    7  C6  UNL     1      12.429  -2.560  11.566  1.00  0.00     0.049 C
ENDROOT
TORSDOF 0
ENDMDL