MODEL 4
REMARK VINA RESULT: -3.816881693      1.184      1.840
REMARK  0 active torsions:
REMARK  status: ('A' for Active; 'I' for Inactive)
ROOT
HETATM    1  C1  UNL     1      12.048  -2.346  10.974  1.00  0.00     0.017 C
HETATM    2  C2  UNL     1      12.833  -2.147  12.242  1.00  0.00     0.035 C
HETATM    3  C3  UNL     1      14.100  -1.466  11.855  1.00  0.00     0.004 C
HETATM    4  C4  UNL     1      14.988  -2.420  11.619  1.00  0.00     0.131 C
HETATM    5  O1  UNL     1      14.403  -3.677  11.821  1.00  0.00    -0.358 OA
HETATM    6  C5  UNL     1      13.381  -3.416  12.794  1.00  0.00     0.131 C
HETATM    7  C6  UNL     1      12.410  -4.540  12.904  1.00  0.00     0.040 C
ENDROOT
TORSDOF 0
ENDMDL