MODEL 3
REMARK VINA RESULT: -4.143247590      0.798      1.998
REMARK  0 active torsions:
REMARK  status: ('A' for Active; 'I' for Inactive)
ROOT
HETATM    1  C1  UNL     1      14.269  -2.916  11.489  1.00  0.00     0.025 C
HETATM    2  C2  UNL     1      12.838  -3.125  11.885  1.00  0.00     0.003 A
HETATM    3  C3  UNL     1      11.918  -2.030  11.471  1.00  0.00     0.025 C
HETATM    4  C4  UNL     1      12.375  -4.379  11.205  1.00  0.00     0.004 A
HETATM    5  C5  UNL     1      12.028  -5.187  12.172  1.00  0.00     0.084 A
HETATM    6  N1  UNL     1      12.210  -4.607  13.431  1.00  0.00    -0.378 N
ATOM      7  H1  UNL     1      12.002  -5.065  14.319  1.00  0.00     0.164 HD
HETATM    8  C6  UNL     1      12.677  -3.416  13.313  1.00  0.00     0.073 A
ENDROOT
TORSDOF 0
ENDMDL