MODEL 5
REMARK VINA RESULT: -3.664369980      1.994      3.043
REMARK  0 active torsions:
REMARK  status: ('A' for Active; 'I' for Inactive)
ROOT
HETATM    1  C1  UNL     1      11.468  -3.528  15.381  1.00  0.00     0.044 C
HETATM    2  C2  UNL     1      12.323  -3.284  14.179  1.00  0.00     0.141 C
HETATM    3  C3  UNL     1      11.972  -1.978  13.529  1.00  0.00     0.003 C
HETATM    4  C4  UNL     1      12.197  -2.142  12.220  1.00  0.00     0.003 C
HETATM    5  C5  UNL     1      12.678  -3.527  12.072  1.00  0.00     0.141 C
HETATM    6  C6  UNL     1      12.433  -4.137  10.744  1.00  0.00     0.044 C
HETATM    7  O1  UNL     1      12.050  -4.178  13.128  1.00  0.00    -0.374 OA
ENDROOT
TORSDOF 0
ENDMDL