MODEL 3
REMARK VINA RESULT: -3.866656600      1.053      1.873
REMARK  1 active torsions:
REMARK  status: ('A' for Active; 'I' for Inactive)
REMARK    1  A    between atoms: C2_2  and  N1_4
ROOT
HETATM    1  N1  UNL     1      12.502  -3.250  13.114  1.00  0.00    -0.362 N
HETATM    2  C4  UNL     1      12.581  -4.214  12.154  1.00  0.00     0.091 A
HETATM    3  C5  UNL     1      12.324  -3.584  10.962  1.00  0.00     0.019 A
HETATM    4  C6  UNL     1      12.089  -2.251  11.181  1.00  0.00     0.019 A
HETATM    5  C7  UNL     1      12.207  -2.067  12.551  1.00  0.00     0.091 A
ENDROOT
BRANCH   1   6
HETATM    6  C2  UNL     1      12.711  -3.505  14.531  1.00  0.00     0.080 C
HETATM    7  C1  UNL     1      13.409  -4.836  14.656  1.00  0.00     0.032 C
HETATM    8  C3  UNL     1      11.338  -3.520  15.175  1.00  0.00     0.032 C
ENDBRANCH   1   6
TORSDOF 1
ENDMDL