MODEL 1
REMARK VINA RESULT: -3.852164419      0.000      0.000
REMARK  1 active torsions:
REMARK  status: ('A' for Active; 'I' for Inactive)
REMARK    1  A    between atoms: C2_2  and  C4_4
ROOT
HETATM    1  C4  UNL     1      13.997  -3.195  12.395  1.00  0.00     0.148 A
HETATM    2  C5  UNL     1      14.902  -2.498  11.407  1.00  0.00     0.048 C
HETATM    3  C6  UNL     1      14.334  -3.039  13.796  1.00  0.00     0.272 A
HETATM    4  N1  UNL     1      14.586  -4.266  13.101  1.00  0.00    -0.062 N
ATOM      5  H11 UNL     1      15.413  -4.845  12.956  1.00  0.00     0.278 HD
ATOM      6  H12 UNL     1      14.330  -5.240  13.261  1.00  0.00     0.278 HD
ENDROOT
BRANCH   1   7
HETATM    7  C2  UNL     1      12.547  -3.269  11.975  1.00  0.00     0.015 C
HETATM    8  C1  UNL     1      12.258  -4.534  11.182  1.00  0.00     0.012 C
HETATM    9  C3  UNL     1      12.127  -2.104  11.131  1.00  0.00     0.012 C
ENDBRANCH   1   7
TORSDOF 1
ENDMDL