MODEL 3
REMARK VINA RESULT: -3.985652786      1.039      1.993
REMARK  0 active torsions:
REMARK  status: ('A' for Active; 'I' for Inactive)
ROOT
HETATM    1  C1  UNL     1      14.273  -2.803  11.271  1.00  0.00     0.042 C
HETATM    2  C2  UNL     1      12.839  -2.980  11.695  1.00  0.00     0.040 A
HETATM    3  C3  UNL     1      11.894  -2.057  10.993  1.00  0.00     0.042 C
HETATM    4  C4  UNL     1      12.452  -4.380  11.303  1.00  0.00     0.004 A
HETATM    5  C5  UNL     1      12.112  -4.987  12.402  1.00  0.00     0.015 A
HETATM    6  C6  UNL     1      12.255  -4.065  13.495  1.00  0.00     0.083 A
HETATM    7  N1  UNL     1      12.670  -2.908  13.111  1.00  0.00    -0.387 N
ATOM      8  H1  UNL     1      12.845  -2.097  13.704  1.00  0.00     0.160 HD
ENDROOT
TORSDOF 0
ENDMDL