MODEL 4
REMARK VINA RESULT: -3.783071270      1.166      1.612
REMARK  0 active torsions:
REMARK  status: ('A' for Active; 'I' for Inactive)
ROOT
HETATM    1  C1  UNL     1      13.417  -2.371  14.363  1.00  0.00     0.044 C
HETATM    2  C2  UNL     1      12.220  -2.823  13.523  1.00  0.00     0.146 A
HETATM    3  C3  UNL     1      12.253  -2.086  12.239  1.00  0.00     0.005 A
HETATM    4  C4  UNL     1      12.293  -2.741  11.091  1.00  0.00     0.000 A
HETATM    5  C5  UNL     1      12.304  -4.183  11.023  1.00  0.00     0.024 A
HETATM    6  C6  UNL     1      12.274  -4.883  12.163  1.00  0.00     0.135 A
HETATM    7  O1  UNL     1      12.234  -4.214  13.355  1.00  0.00    -0.354 OA
ENDROOT
TORSDOF 0
ENDMDL