MODEL 5
REMARK VINA RESULT: -5.199614498      2.896      5.419
REMARK  8 active torsions:
REMARK  status: ('A' for Active; 'I' for Inactive)
REMARK    1  A    between atoms: C2_2  and  O1_3
REMARK    2  A    between atoms: O1_3  and  C3_4
REMARK    3  A    between atoms: C3_4  and  C4_6
REMARK    4  A    between atoms: C6_11  and  C7_12
REMARK    5  A    between atoms: C8_13  and  C9_14
REMARK    6  A    between atoms: N6_23  and  C12_24
REMARK    7  A    between atoms: C12_24  and  C13_25
REMARK    8  A    between atoms: C12_24  and  C18_30
ROOT
HETATM    1  C9  UNL     1     -26.225  -0.690   7.777  1.00  0.00     0.252 C
HETATM    2  C10 UNL     1     -25.859   0.441   8.614  1.00  0.00     0.085 C
HETATM    3  N2  UNL     1     -25.567   1.367   9.274  1.00  0.00    -0.195 NA
HETATM    4  C11 UNL     1     -25.830  -1.888   8.568  1.00  0.00     0.085 C
HETATM    5  N3  UNL     1     -25.533  -2.830   9.167  1.00  0.00    -0.195 NA
ENDROOT
BRANCH   1   6
HETATM    6  C8  UNL     1     -25.471  -0.694   6.528  1.00  0.00     0.088 A
HETATM    7  C7  UNL     1     -25.415   0.211   5.450  1.00  0.00     0.098 A
HETATM    8  N6  UNL     1     -24.607  -0.287   4.523  1.00  0.00    -0.269 N
HETATM    9  N5  UNL     1     -24.170  -1.458   5.001  1.00  0.00    -0.239 N
HETATM   10  N4  UNL     1     -24.665  -1.699   6.158  1.00  0.00    -0.286 N
ATOM     11  H5  UNL     1     -23.528  -2.078   4.508  1.00  0.00     0.208 HD
ATOM     12  H4  UNL     1     -24.474  -2.532   6.716  1.00  0.00     0.188 HD
BRANCH   7  13
HETATM   13  C6  UNL     1     -26.145   1.498   5.514  1.00  0.00     0.069 A
HETATM   14  C4  UNL     1     -27.468   1.791   5.243  1.00  0.00     0.076 A
HETATM   15  C5  UNL     1     -27.832   3.081   5.400  1.00  0.00     0.115 A
HETATM   16  N1  UNL     1     -26.912   3.952   5.797  1.00  0.00    -0.335 N
HETATM   17  S1  UNL     1     -25.534   3.041   5.966  1.00  0.00    -0.012 SA
ATOM     18  H1  UNL     1     -27.025   4.952   5.961  1.00  0.00     0.173 HD
BRANCH  14  19
HETATM   19  C3  UNL     1     -28.490   0.762   4.942  1.00  0.00     0.296 C
HETATM   20  O2  UNL     1     -29.418   0.564   5.732  1.00  0.00    -0.259 OA
BRANCH  19  21
HETATM   21  O1  UNL     1     -28.446   0.003   3.795  1.00  0.00    -0.318 OA
BRANCH  21  22
HETATM   22  C2  UNL     1     -29.444   0.160   2.775  1.00  0.00     0.174 C
HETATM   23  C1  UNL     1     -29.368  -0.969   1.784  1.00  0.00     0.034 C
ENDBRANCH  21  22
ENDBRANCH  19  21
ENDBRANCH  14  19
ENDBRANCH   7  13
BRANCH   8  24
HETATM   24  C12 UNL     1     -24.197   0.244   3.204  1.00  0.00     0.118 C
BRANCH  24  25
HETATM   25  C13 UNL     1     -22.740   0.235   3.018  1.00  0.00     0.011 C
HETATM   26  C14 UNL     1     -22.174   1.148   4.148  1.00  0.00     0.007 C
HETATM   27  C15 UNL     1     -22.592   2.523   3.681  1.00  0.00     0.000 C
HETATM   28  C16 UNL     1     -22.753   2.425   2.172  1.00  0.00     0.000 C
HETATM   29  C17 UNL     1     -22.183   1.088   1.889  1.00  0.00     0.007 C
ENDBRANCH  24  25
BRANCH  24  30
HETATM   30  C18 UNL     1     -25.102  -0.261   2.143  1.00  0.00     0.011 A
HETATM   31  C19 UNL     1     -24.980  -0.126   0.707  1.00  0.00     0.007 A
HETATM   32  C20 UNL     1     -25.996   0.727   1.357  1.00  0.00     0.007 A
ENDBRANCH  24  30
ENDBRANCH   8  24
ENDBRANCH   1   6
TORSDOF 8
ENDMDL