MODEL 2
REMARK VINA RESULT: -8.844746544      3.100      8.850
REMARK  7 active torsions:
REMARK  status: ('A' for Active; 'I' for Inactive)
REMARK    1  A    between atoms: S1_2  and  C2_3
REMARK    2  A    between atoms: C3_6  and  S2_7
REMARK    3  A    between atoms: S2_7  and  C4_8
REMARK    4  A    between atoms: C4_8  and  C6_11
REMARK    5  A    between atoms: C6_11  and  C7_13
REMARK    6  A    between atoms: C7_13  and  C8_14
REMARK    7  A    between atoms: C14_22  and  C15_23
ROOT
HETATM    1  C4  UNL     1     -25.501  -6.875   7.926  1.00  0.00     0.229 C
HETATM    2  C5  UNL     1     -26.113  -6.515   9.190  1.00  0.00     0.082 C
HETATM    3  N2  UNL     1     -26.586  -6.236  10.209  1.00  0.00    -0.196 NA
ENDROOT
BRANCH   1   4
HETATM    4  S2  UNL     1     -24.166  -5.714   7.524  1.00  0.00    -0.085 SA
BRANCH   4   5
HETATM    5  C3  UNL     1     -24.452  -4.203   8.421  1.00  0.00     0.075 A
HETATM    6  N1  UNL     1     -25.154  -3.175   7.916  1.00  0.00    -0.331 N
HETATM    7  C2  UNL     1     -25.391  -2.023   8.557  1.00  0.00     0.145 A
ATOM      8  H1  UNL     1     -25.533  -3.279   6.975  1.00  0.00     0.168 HD
HETATM    9  N5  UNL     1     -24.889  -1.886   9.805  1.00  0.00    -0.336 N
HETATM   10  C14 UNL     1     -24.177  -2.848  10.399  1.00  0.00     0.054 A
ATOM     11  H5  UNL     1     -25.059  -1.017  10.311  1.00  0.00     0.168 HD
HETATM   12  C13 UNL     1     -23.953  -4.015   9.713  1.00  0.00     0.068 A
BRANCH   7  13
HETATM   13  S1  UNL     1     -26.334  -0.770   7.750  1.00  0.00    -0.098 SA
HETATM   14  C1  UNL     1     -26.064  -0.914   5.962  1.00  0.00     0.099 C
ENDBRANCH   7  13
BRANCH  10  15
HETATM   15  C15 UNL     1     -23.632  -2.689  11.764  1.00  0.00     0.031 A
HETATM   16  C16 UNL     1     -23.788  -3.535  12.832  1.00  0.00     0.021 A
HETATM   17  C17 UNL     1     -23.198  -3.185  13.978  1.00  0.00     0.008 A
HETATM   18  C18 UNL     1     -22.488  -2.019  13.999  1.00  0.00     0.050 A
HETATM   19  S3  UNL     1     -22.666  -1.439  12.406  1.00  0.00    -0.100 SA
ENDBRANCH  10  15
ENDBRANCH   4   5
ENDBRANCH   1   4
BRANCH   1  20
HETATM   20  C6  UNL     1     -25.030  -8.279   7.908  1.00  0.00     0.156 C
HETATM   21  O1  UNL     1     -23.877  -8.481   7.570  1.00  0.00    -0.296 OA
BRANCH  20  22
HETATM   22  C7  UNL     1     -25.895  -9.408   8.278  1.00  0.00     0.106 C
BRANCH  22  23
HETATM   23  C8  UNL     1     -25.695 -10.610   7.380  1.00  0.00     0.102 C
HETATM   24  C9  UNL     1     -26.981 -11.149   6.842  1.00  0.00     0.028 C
HETATM   25  C10 UNL     1     -26.891 -12.628   7.150  1.00  0.00     0.023 C
HETATM   26  C11 UNL     1     -26.173 -12.627   8.482  1.00  0.00     0.135 C
HETATM   27  N3  UNL     1     -25.139 -11.656   8.240  1.00  0.00    -0.315 N
HETATM   28  C12 UNL     1     -23.848 -11.707   8.734  1.00  0.00     0.180 C
HETATM   29  N4  UNL     1     -22.771 -11.763   9.141  1.00  0.00    -0.172 NA
ENDBRANCH  22  23
ENDBRANCH  20  22
ENDBRANCH   1  20
TORSDOF 7
ENDMDL