MODEL 2
REMARK VINA RESULT: -8.493554609      0.270      2.874
REMARK  7 active torsions:
REMARK  status: ('A' for Active; 'I' for Inactive)
REMARK    1  A    between atoms: C2_2  and  C3_3
REMARK    2  A    between atoms: C5_5  and  N1_6
REMARK    3  A    between atoms: C9_12  and  N2_13
REMARK    4  A    between atoms: C10_15  and  C11_16
REMARK    5  A    between atoms: C12_17  and  N3_18
REMARK    6  A    between atoms: C14_22  and  N4_23
REMARK    7  A    between atoms: C16_27  and  N5_28
ROOT
HETATM    1  C11 UNL     1     -25.123  -4.285   8.551  1.00  0.00     0.045 A
HETATM    2  C12 UNL     1     -25.641  -3.679   9.671  1.00  0.00     0.119 A
HETATM    3  C13 UNL     1     -25.697  -2.275   9.792  1.00  0.00     0.073 A
HETATM    4  C14 UNL     1     -25.239  -1.472   8.798  1.00  0.00     0.107 A
HETATM    5  C15 UNL     1     -24.729  -2.065   7.686  1.00  0.00     0.073 A
HETATM    6  C16 UNL     1     -24.656  -3.451   7.530  1.00  0.00     0.119 A
ENDROOT
BRANCH   1   7
HETATM    7  C10 UNL     1     -24.965  -5.691   8.451  1.00  0.00     0.104 C
HETATM    8  N2  UNL     1     -25.673  -6.594   7.884  1.00  0.00    -0.364 N
ATOM      9  H2  UNL     1     -26.521  -6.299   7.401  1.00  0.00     0.165 HD
BRANCH   8  10
HETATM   10  C9  UNL     1     -25.360  -7.968   7.882  1.00  0.00     0.038 A
HETATM   11  C3  UNL     1     -26.219  -8.908   7.394  1.00  0.00    -0.029 A
HETATM   12  C4  UNL     1     -25.922 -10.267   7.385  1.00  0.00     0.046 A
HETATM   13  C5  UNL     1     -24.712 -10.729   7.883  1.00  0.00     0.109 A
HETATM   14  C6  UNL     1     -23.841  -9.778   8.376  1.00  0.00    -0.027 A
HETATM   15  C7  UNL     1     -22.531 -10.243   8.916  1.00  0.00     0.050 C
HETATM   16  C8  UNL     1     -24.136  -8.432   8.385  1.00  0.00     0.039 A
BRANCH  11  17
HETATM   17  C2  UNL     1     -27.535  -8.481   6.829  1.00  0.00     0.036 C
HETATM   18  C1  UNL     1     -28.388  -9.741   6.616  1.00  0.00     0.010 C
ENDBRANCH  11  17
BRANCH  13  19
HETATM   19  N1  UNL     1     -24.411 -12.117   7.867  1.00  0.00    -0.115 N
HETATM   20  O1  UNL     1     -23.320 -12.615   7.543  1.00  0.00    -0.532 OA
HETATM   21  O2  UNL     1     -25.410 -12.979   8.243  1.00  0.00    -0.532 OA
ENDBRANCH  13  19
ENDBRANCH   8  10
ENDBRANCH   1   7
BRANCH   2  22
HETATM   22  N3  UNL     1     -26.172  -4.359  10.795  1.00  0.00    -0.115 N
HETATM   23  O3  UNL     1     -26.227  -3.896  11.929  1.00  0.00    -0.532 OA
HETATM   24  O4  UNL     1     -26.574  -5.685  10.626  1.00  0.00    -0.532 OA
ENDBRANCH   2  22
BRANCH   6  25
HETATM   25  N5  UNL     1     -24.096  -3.917   6.317  1.00  0.00    -0.115 N
HETATM   26  O7  UNL     1     -23.861  -5.062   5.978  1.00  0.00    -0.532 OA
HETATM   27  O8  UNL     1     -23.807  -2.952   5.344  1.00  0.00    -0.532 OA
ENDBRANCH   6  25
BRANCH   4  28
HETATM   28  N4  UNL     1     -25.317  -0.056   8.948  1.00  0.00    -0.116 N
HETATM   29  O5  UNL     1     -25.898   0.611   8.085  1.00  0.00    -0.532 OA
HETATM   30  O6  UNL     1     -24.748   0.536  10.041  1.00  0.00    -0.532 OA
ENDBRANCH   4  28
TORSDOF 7
ENDMDL