MODEL 5
REMARK VINA RESULT: -7.667806449      3.713      8.382
REMARK  7 active torsions:
REMARK  status: ('A' for Active; 'I' for Inactive)
REMARK    1  A    between atoms: C2_2  and  C3_4
REMARK    2  A    between atoms: C6_7  and  O2_8
REMARK    3  A    between atoms: O2_8  and  C7_9
REMARK    4  A    between atoms: C9_11  and  N1_12
REMARK    5  A    between atoms: C14_17  and  N2_18
REMARK    6  A    between atoms: C16_22  and  N3_23
REMARK    7  A    between atoms: C17_26  and  N4_27
ROOT
HETATM    1  C7  UNL     1     -25.558  -1.714   7.450  1.00  0.00     0.111 A
HETATM    2  C8  UNL     1     -26.592  -0.921   7.941  1.00  0.00     0.071 A
HETATM    3  C9  UNL     1     -27.179   0.116   7.235  1.00  0.00     0.066 A
HETATM    4  C14 UNL     1     -26.682   0.339   5.984  1.00  0.00     0.132 A
HETATM    5  C15 UNL     1     -25.656  -0.409   5.438  1.00  0.00     0.077 A
HETATM    6  C16 UNL     1     -25.100  -1.438   6.190  1.00  0.00     0.139 A
ENDROOT
BRANCH   1   7
HETATM    7  O2  UNL     1     -25.118  -2.682   8.299  1.00  0.00    -0.306 OA
BRANCH   7   8
HETATM    8  C6  UNL     1     -25.115  -4.032   8.200  1.00  0.00     0.109 A
HETATM    9  C5  UNL     1     -25.578  -4.706   7.091  1.00  0.00     0.041 A
HETATM   10  C4  UNL     1     -25.547  -6.071   7.052  1.00  0.00     0.018 A
HETATM   11  C3  UNL     1     -25.057  -6.799   8.112  1.00  0.00     0.012 A
HETATM   12  C18 UNL     1     -24.600  -6.101   9.210  1.00  0.00     0.054 A
HETATM   13  C17 UNL     1     -24.609  -4.737   9.301  1.00  0.00     0.137 A
BRANCH  11  14
HETATM   14  C2  UNL     1     -25.036  -8.245   8.035  1.00  0.00     0.155 C
HETATM   15  C1  UNL     1     -26.112  -8.980   7.358  1.00  0.00     0.096 C
HETATM   16  O1  UNL     1     -24.091  -8.871   8.552  1.00  0.00    -0.293 OA
ENDBRANCH  11  14
BRANCH  13  17
HETATM   17  N4  UNL     1     -24.134  -4.026  10.436  1.00  0.00    -0.113 N
HETATM   18  O7  UNL     1     -22.941  -3.666  10.543  1.00  0.00    -0.532 OA
HETATM   19  O8  UNL     1     -24.976  -3.702  11.473  1.00  0.00    -0.532 OA
ENDBRANCH  13  17
ENDBRANCH   7   8
ENDBRANCH   1   7
BRANCH   6  20
HETATM   20  N3  UNL     1     -23.988  -2.092   5.634  1.00  0.00    -0.113 N
HETATM   21  O5  UNL     1     -23.875  -2.003   4.355  1.00  0.00    -0.532 OA
HETATM   22  O6  UNL     1     -23.016  -2.791   6.235  1.00  0.00    -0.532 OA
ENDBRANCH   6  20
BRANCH   3  23
HETATM   23  N1  UNL     1     -28.200   0.875   7.841  1.00  0.00    -0.379 N
HETATM   24  C10 UNL     1     -29.625   0.704   7.692  1.00  0.00     0.123 C
HETATM   25  C11 UNL     1     -30.001   2.150   7.295  1.00  0.00     0.021 C
HETATM   26  C12 UNL     1     -28.983   3.015   8.046  1.00  0.00     0.021 C
HETATM   27  C13 UNL     1     -28.061   2.006   8.730  1.00  0.00     0.123 C
ENDBRANCH   3  23
BRANCH   4  28
HETATM   28  N2  UNL     1     -27.231   1.374   5.175  1.00  0.00    -0.113 N
HETATM   29  O3  UNL     1     -26.856   2.547   5.155  1.00  0.00    -0.532 OA
HETATM   30  O4  UNL     1     -28.303   1.054   4.344  1.00  0.00    -0.532 OA
ENDBRANCH   4  28
TORSDOF 7
ENDMDL