MODEL 2
REMARK VINA RESULT: -7.523035018      2.167      3.261
REMARK  8 active torsions:
REMARK  status: ('A' for Active; 'I' for Inactive)
REMARK    1  A    between atoms: C2_2  and  C3_3
REMARK    2  A    between atoms: C3_3  and  C4_4
REMARK    3  A    between atoms: C4_4  and  C5_5
REMARK    4  A    between atoms: C4_4  and  S1_7
REMARK    5  A    between atoms: S1_7  and  C7_8
REMARK    6  A    between atoms: C8_12  and  C9_13
REMARK    7  A    between atoms: C9_13  and  N3_14
REMARK    8  A    between atoms: C13_18  and  N4_19
ROOT
HETATM    1  C7  UNL     1     -24.728  -5.033   8.196  1.00  0.00     0.131 A
HETATM    2  N1  UNL     1     -25.006  -4.056   7.349  1.00  0.00    -0.278 N
ATOM      3  H1  UNL     1     -24.928  -4.217   6.346  1.00  0.00     0.189 HD
HETATM    4  N2  UNL     1     -25.370  -2.913   7.781  1.00  0.00    -0.215 N
HETATM    5  C8  UNL     1     -25.727  -1.707   7.228  1.00  0.00     0.149 A
HETATM    6  N6  UNL     1     -26.017  -0.857   8.228  1.00  0.00    -0.284 N
ATOM      7  H6  UNL     1     -26.312   0.111   8.101  1.00  0.00     0.188 HD
HETATM    8  N7  UNL     1     -25.867  -1.445   9.385  1.00  0.00    -0.277 N
ATOM      9  H7  UNL     1     -26.017  -1.038  10.308  1.00  0.00     0.189 HD
HETATM   10  C18 UNL     1     -25.464  -2.726   9.099  1.00  0.00     0.189 A
HETATM   11  S2  UNL     1     -25.007  -4.265   9.697  1.00  0.00    -0.024 SA
ENDROOT
BRANCH   5  12
HETATM   12  C9  UNL     1     -25.796  -1.350   5.785  1.00  0.00     0.352 C
BRANCH  12  13
HETATM   13  N3  UNL     1     -24.747  -0.425   5.414  1.00  0.00     0.097 N
HETATM   14  C10 UNL     1     -23.590  -1.022   4.852  1.00  0.00     0.273 C
HETATM   15  C11 UNL     1     -23.098  -0.329   3.599  1.00  0.00     0.032 C
HETATM   16  C12 UNL     1     -23.007   1.147   3.904  1.00  0.00     0.029 C
HETATM   17  C13 UNL     1     -24.377   1.696   4.229  1.00  0.00     0.118 C
HETATM   18  C17 UNL     1     -25.349   0.617   4.621  1.00  0.00     0.298 C
BRANCH  17  19
HETATM   19  N4  UNL     1     -24.254   2.725   5.230  1.00  0.00    -0.345 N
HETATM   20  C14 UNL     1     -25.079   2.945   6.269  1.00  0.00     0.109 A
HETATM   21  C15 UNL     1     -24.601   4.018   6.973  1.00  0.00     0.106 A
HETATM   22  N5  UNL     1     -23.469   4.457   6.355  1.00  0.00    -0.361 N
HETATM   23  C16 UNL     1     -23.275   3.665   5.306  1.00  0.00     0.182 A
ATOM     24  H5  UNL     1     -22.884   5.242   6.641  1.00  0.00     0.166 HD
ENDBRANCH  17  19
ENDBRANCH  12  13
ENDBRANCH   5  12
BRANCH   1  25
HETATM   25  S1  UNL     1     -24.201  -6.715   7.816  1.00  0.00    -0.099 SA
BRANCH  25  26
HETATM   26  C4  UNL     1     -25.608  -7.849   8.043  1.00  0.00     0.054 C
BRANCH  26  27
HETATM   27  C3  UNL     1     -25.180  -9.192   7.550  1.00  0.00     0.015 C
BRANCH  27  28
HETATM   28  C2  UNL     1     -23.908  -9.700   8.150  1.00  0.00    -0.003 C
HETATM   29  C1  UNL     1     -23.644 -11.145   7.865  1.00  0.00     0.005 C
ENDBRANCH  27  28
ENDBRANCH  26  27
BRANCH  26  30
HETATM   30  C5  UNL     1     -26.828  -7.324   7.305  1.00  0.00     0.011 C
HETATM   31  C6  UNL     1     -27.693  -8.495   6.890  1.00  0.00     0.006 C
ENDBRANCH  26  30
ENDBRANCH  25  26
ENDBRANCH   1  25
TORSDOF 8
ENDMDL