MODEL 3
REMARK VINA RESULT: -9.191068709      1.048      1.264
REMARK  10 active torsions:
REMARK  status: ('A' for Active; 'I' for Inactive)
REMARK    1  A    between atoms: C2_2  and  C3_3
REMARK    2  A    between atoms: C4_5  and  N1_6
REMARK    3  A    between atoms: C5_8  and  C6_9
REMARK    4  A    between atoms: C6_9  and  C8_12
REMARK    5  A    between atoms: C8_12  and  C9_14
REMARK    6  A    between atoms: C9_14  and  S1_17
REMARK    7  A    between atoms: S1_17  and  C11_18
REMARK    8  A    between atoms: C16_24  and  N4_25
REMARK    9  A    between atoms: N4_25  and  N5_26
REMARK   10  A    between atoms: C17_29  and  N6_30
ROOT
HETATM    1  C6  UNL     1     -24.895  -4.849   7.555  1.00  0.00     0.202 C
HETATM    2  C7  UNL     1     -23.906  -4.658   6.477  1.00  0.00     0.077 C
HETATM    3  N2  UNL     1     -23.132  -4.512   5.613  1.00  0.00    -0.196 NA
ENDROOT
BRANCH   1   4
HETATM    4  C5  UNL     1     -25.526  -6.176   7.442  1.00  0.00     0.090 C
HETATM    5  N1  UNL     1     -24.849  -7.286   7.589  1.00  0.00    -0.346 N
ATOM      6  H1  UNL     1     -23.848  -7.279   7.789  1.00  0.00     0.167 HD
BRANCH   5   7
HETATM    7  C4  UNL     1     -25.582  -8.519   7.455  1.00  0.00     0.194 A
HETATM    8  O1  UNL     1     -26.775  -8.708   6.971  1.00  0.00    -0.288 OA
HETATM    9  C3  UNL     1     -27.132  -9.970   7.005  1.00  0.00     0.114 A
HETATM   10  C17 UNL     1     -26.051 -10.653   7.569  1.00  0.00     0.183 A
HETATM   11  C16 UNL     1     -25.058  -9.727   7.858  1.00  0.00     0.217 A
BRANCH   9  12
HETATM   12  C2  UNL     1     -28.372 -10.584   6.563  1.00  0.00     0.030 C
HETATM   13  C1  UNL     1     -29.388  -9.826   6.216  1.00  0.00     0.014 C
ENDBRANCH   9  12
BRANCH  10  14
HETATM   14  N6  UNL     1     -26.002 -12.052   7.798  1.00  0.00    -0.109 N
HETATM   15  O4  UNL     1     -25.081 -12.536   8.482  1.00  0.00    -0.532 OA
HETATM   16  O5  UNL     1     -26.968 -12.884   7.268  1.00  0.00    -0.532 OA
ENDBRANCH  10  14
BRANCH  11  17
HETATM   17  N4  UNL     1     -23.827  -9.968   8.422  1.00  0.00    -0.326 NA
BRANCH  17  18
HETATM   18  N5  UNL     1     -22.820 -10.158   8.875  1.00  0.00    -0.280 N
ATOM     19  H52 UNL     1     -23.494  -9.733   8.237  1.00  0.00     0.191 HD
ATOM     20  H51 UNL     1     -21.908 -10.336   9.293  1.00  0.00     0.191 HD
ENDBRANCH  17  18
ENDBRANCH  11  17
ENDBRANCH   5   7
ENDBRANCH   1   4
BRANCH   1  21
HETATM   21  C8  UNL     1     -24.295  -4.641   8.885  1.00  0.00     0.176 C
HETATM   22  O2  UNL     1     -23.829  -5.556   9.507  1.00  0.00    -0.294 OA
BRANCH  21  23
HETATM   23  C9  UNL     1     -24.295  -3.225   9.428  1.00  0.00     0.227 C
HETATM   24  C10 UNL     1     -25.271  -2.480   8.628  1.00  0.00     0.082 C
HETATM   25  N3  UNL     1     -26.046  -1.899   7.955  1.00  0.00    -0.196 NA
BRANCH  23  26
HETATM   26  S1  UNL     1     -24.740  -3.217  11.165  1.00  0.00    -0.110 SA
BRANCH  26  27
HETATM   27  C11 UNL     1     -23.277  -2.972  12.187  1.00  0.00     0.184 C
HETATM   28  C12 UNL     1     -23.520  -3.397  13.561  1.00  0.00     0.043 C
HETATM   29  C13 UNL     1     -23.341  -2.382  14.652  1.00  0.00     0.005 C
HETATM   30  C14 UNL     1     -22.079  -1.597  14.269  1.00  0.00     0.026 C
HETATM   31  C15 UNL     1     -22.417  -0.931  12.982  1.00  0.00     0.169 C
HETATM   32  O3  UNL     1     -22.882  -1.679  11.974  1.00  0.00    -0.376 OA
ENDBRANCH  26  27
ENDBRANCH  23  26
ENDBRANCH  21  23
ENDBRANCH   1  21
TORSDOF 10
ENDMDL