MODEL 3
REMARK VINA RESULT: -8.869520216      5.276      7.416
REMARK  7 active torsions:
REMARK  status: ('A' for Active; 'I' for Inactive)
REMARK    1  A    between atoms: C3_3  and  C4_4
REMARK    2  A    between atoms: C6_6  and  S1_7
REMARK    3  A    between atoms: S1_7  and  C7_8
REMARK    4  A    between atoms: C7_8  and  C8_9
REMARK    5  A    between atoms: C10_14  and  C11_15
REMARK    6  A    between atoms: C15_22  and  N4_23
REMARK    7  A    between atoms: C17_27  and  N5_28
ROOT
HETATM    1  C1  UNL     1     -25.083   1.713   9.615  1.00  0.00     0.012 C
HETATM    2  C2  UNL     1     -25.851   0.922   9.131  1.00  0.00    -0.113 C
HETATM    3  C3  UNL     1     -26.768  -0.046   8.528  1.00  0.00     0.134 C
ENDROOT
BRANCH   3   4
HETATM    4  C4  UNL     1     -26.053  -1.280   8.087  1.00  0.00    -0.013 A
HETATM    5  C5  UNL     1     -25.752  -2.269   9.027  1.00  0.00     0.031 A
HETATM    6  C6  UNL     1     -25.084  -3.430   8.702  1.00  0.00     0.034 A
HETATM    7  C15 UNL     1     -24.714  -3.584   7.396  1.00  0.00     0.122 A
HETATM    8  C16 UNL     1     -25.006  -2.619   6.459  1.00  0.00     0.074 A
HETATM    9  C17 UNL     1     -25.689  -1.436   6.792  1.00  0.00     0.112 A
BRANCH   6  10
HETATM   10  S1  UNL     1     -24.744  -4.585  10.009  1.00  0.00    -0.121 SA
BRANCH  10  11
HETATM   11  C7  UNL     1     -25.255  -4.001  11.623  1.00  0.00     0.138 C
BRANCH  11  12
HETATM   12  C8  UNL     1     -24.327  -3.042  12.275  1.00  0.00     0.038 A
HETATM   13  C9  UNL     1     -24.121  -2.870  13.615  1.00  0.00     0.144 A
HETATM   14  N1  UNL     1     -23.189  -1.887  13.833  1.00  0.00    -0.242 N
HETATM   15  N2  UNL     1     -22.647  -1.349  14.852  1.00  0.00    -0.289 N
HETATM   16  C14 UNL     1     -22.840  -1.473  12.618  1.00  0.00     0.172 A
HETATM   17  C10 UNL     1     -21.750  -0.390  14.710  1.00  0.00     0.074 A
ATOM     18  H2  UNL     1     -22.907  -1.663  15.787  1.00  0.00     0.188 HD
HETATM   19  S2  UNL     1     -21.685  -0.260  13.005  1.00  0.00    -0.037 SA
HETATM   20  N3  UNL     1     -23.511  -2.151  11.647  1.00  0.00    -0.337 N
ATOM     21  H3  UNL     1     -23.418  -2.017  10.640  1.00  0.00     0.168 HD
BRANCH  17  22
HETATM   22  C11 UNL     1     -20.998   0.368  15.767  1.00  0.00     0.044 A
HETATM   23  C12 UNL     1     -20.929   1.832  15.680  1.00  0.00     0.012 A
HETATM   24  C13 UNL     1     -19.701   0.976  15.451  1.00  0.00     0.012 A
ENDBRANCH  17  22
ENDBRANCH  11  12
ENDBRANCH  10  11
ENDBRANCH   6  10
BRANCH   7  25
HETATM   25  N4  UNL     1     -23.975  -4.710   6.963  1.00  0.00    -0.114 N
HETATM   26  O1  UNL     1     -24.105  -5.871   7.324  1.00  0.00    -0.532 OA
HETATM   27  O2  UNL     1     -22.955  -4.509   6.010  1.00  0.00    -0.532 OA
ENDBRANCH   7  25
BRANCH   9  28
HETATM   28  N5  UNL     1     -25.969  -0.510   5.764  1.00  0.00    -0.115 N
HETATM   29  O3  UNL     1     -26.952  -0.524   5.039  1.00  0.00    -0.532 OA
HETATM   30  O4  UNL     1     -25.031   0.512   5.585  1.00  0.00    -0.532 OA
ENDBRANCH   9  28
ENDBRANCH   3   4
TORSDOF 7
ENDMDL