MODEL 4
REMARK VINA RESULT: -9.766859168      3.967      6.104
REMARK  7 active torsions:
REMARK  status: ('A' for Active; 'I' for Inactive)
REMARK    1  A    between atoms: N1_2  and  C1_4
REMARK    2  A    between atoms: C4_7  and  N2_8
REMARK    3  A    between atoms: N2_8  and  C5_9
REMARK    4  A    between atoms: N2_8  and  C12_23
REMARK    5  A    between atoms: C5_9  and  C6_10
REMARK    6  A    between atoms: N6_17  and  C7_18
REMARK    7  A    between atoms: C12_23  and  C13_24
ROOT
HETATM    1  N2  UNL     1     -24.577  -4.065   8.317  1.00  0.00    -0.351 N
ENDROOT
BRANCH   1   2
HETATM    2  C4  UNL     1     -24.908  -2.811   7.667  1.00  0.00     0.065 A
HETATM    3  C3  UNL     1     -25.731  -1.900   8.264  1.00  0.00     0.034 A
HETATM    4  C2  UNL     1     -26.041  -0.733   7.620  1.00  0.00     0.041 A
HETATM    5  C1  UNL     1     -25.529  -0.471   6.370  1.00  0.00     0.134 A
HETATM    6  C19 UNL     1     -24.697  -1.365   5.737  1.00  0.00     0.120 A
HETATM    7  C18 UNL     1     -24.403  -2.539   6.421  1.00  0.00     0.114 A
HETATM    8  N8  UNL     1     -24.055  -1.373   4.540  1.00  0.00    -0.237 N
HETATM    9  N7  UNL     1     -23.575  -3.187   5.551  1.00  0.00    -0.237 N
HETATM   10  O3  UNL     1     -23.394  -2.488   4.475  1.00  0.00    -0.156 OA
ATOM     11  H7  UNL     1     -23.155  -4.100   5.725  1.00  0.00     0.197 HD
ATOM     12  H8  UNL     1     -24.086  -0.643   3.829  1.00  0.00     0.197 HD
BRANCH   5  13
HETATM   13  N1  UNL     1     -25.865   0.761   5.702  1.00  0.00    -0.113 N
HETATM   14  O1  UNL     1     -24.941   1.456   5.233  1.00  0.00    -0.532 OA
HETATM   15  O2  UNL     1     -27.145   1.198   5.561  1.00  0.00    -0.532 OA
ENDBRANCH   5  13
ENDBRANCH   1   2
BRANCH   1  16
HETATM   16  C5  UNL     1     -23.946  -3.866   9.604  1.00  0.00     0.207 C
BRANCH  16  17
HETATM   17  C6  UNL     1     -24.824  -3.825  10.780  1.00  0.00     0.134 A
HETATM   18  N3  UNL     1     -26.078  -4.201  11.007  1.00  0.00    -0.271 N
HETATM   19  N4  UNL     1     -26.403  -3.948  12.242  1.00  0.00    -0.227 N
ATOM     20  H3  UNL     1     -26.696  -4.625  10.314  1.00  0.00     0.190 HD
HETATM   21  N5  UNL     1     -25.358  -3.406  12.820  1.00  0.00    -0.224 N
ATOM     22  H4  UNL     1     -27.304  -4.137  12.680  1.00  0.00     0.210 HD
HETATM   23  N6  UNL     1     -24.385  -3.313  11.979  1.00  0.00    -0.257 N
ATOM     24  H5  UNL     1     -25.320  -3.103  13.793  1.00  0.00     0.210 HD
BRANCH  23  25
HETATM   25  C7  UNL     1     -23.059  -2.763  12.257  1.00  0.00     0.111 C
HETATM   26  C8  UNL     1     -23.131  -1.277  12.019  1.00  0.00     0.027 C
HETATM   27  C9  UNL     1     -21.970  -0.761  12.843  1.00  0.00     0.002 C
HETATM   28  C10 UNL     1     -22.030  -1.608  14.112  1.00  0.00     0.002 C
HETATM   29  C11 UNL     1     -22.792  -2.848  13.727  1.00  0.00     0.027 C
ENDBRANCH  23  25
ENDBRANCH  16  17
ENDBRANCH   1  16
BRANCH   1  30
HETATM   30  C12 UNL     1     -24.799  -5.353   7.791  1.00  0.00     0.069 C
BRANCH  30  31
HETATM   31  C13 UNL     1     -25.648  -6.327   8.496  1.00  0.00     0.024 C
HETATM   32  C14 UNL     1     -26.464  -7.084   7.418  1.00  0.00     0.010 C
HETATM   33  C15 UNL     1     -25.901  -8.453   7.314  1.00  0.00     0.001 C
HETATM   34  C16 UNL     1     -24.594  -8.391   8.021  1.00  0.00     0.001 C
HETATM   35  C17 UNL     1     -24.911  -7.452   9.180  1.00  0.00     0.010 C
ENDBRANCH  30  31
ENDBRANCH   1  30
TORSDOF 7
ENDMDL