MODEL 4
REMARK VINA RESULT: -9.595266496      1.280      4.174
REMARK  7 active torsions:
REMARK  status: ('A' for Active; 'I' for Inactive)
REMARK    1  A    between atoms: C1_2  and  C2_3
REMARK    2  A    between atoms: C1_2  and  C11_17
REMARK    3  A    between atoms: C2_3  and  S1_4
REMARK    4  A    between atoms: S1_4  and  C3_5
REMARK    5  A    between atoms: C4_6  and  C5_7
REMARK    6  A    between atoms: C13_19  and  N3_20
REMARK    7  A    between atoms: C15_24  and  N4_25
ROOT
HETATM    1  O1  UNL     1     -26.479  -6.422   7.421  1.00  0.00    -0.291 OA
HETATM    2  C1  UNL     1     -25.379  -6.972   7.564  1.00  0.00     0.169 C
ENDROOT
BRANCH   2   3
HETATM    3  C2  UNL     1     -24.111  -6.250   7.716  1.00  0.00     0.164 C
BRANCH   3   4
HETATM    4  S1  UNL     1     -23.808  -4.754   6.870  1.00  0.00    -0.103 SA
BRANCH   4   5
HETATM    5  C3  UNL     1     -24.641  -3.280   7.480  1.00  0.00     0.092 A
HETATM    6  C4  UNL     1     -25.129  -3.256   8.748  1.00  0.00     0.024 A
HETATM    7  S2  UNL     1     -25.850  -1.702   8.849  1.00  0.00    -0.055 SA
HETATM    8  C8  UNL     1     -25.491  -1.172   7.275  1.00  0.00     0.156 A
HETATM    9  N1  UNL     1     -25.634  -0.125   6.429  1.00  0.00    -0.345 N
HETATM   10  N2  UNL     1     -24.840  -2.188   6.733  1.00  0.00    -0.294 N
HETATM   11  C9  UNL     1     -25.045  -0.489   5.286  1.00  0.00     0.108 A
ATOM     12  H1  UNL     1     -26.097   0.762   6.624  1.00  0.00     0.167 HD
HETATM   13  C10 UNL     1     -24.555  -1.765   5.478  1.00  0.00     0.117 A
BRANCH   6  14
HETATM   14  C5  UNL     1     -25.117  -4.208   9.894  1.00  0.00     0.028 A
HETATM   15  C6  UNL     1     -24.179  -3.900  11.054  1.00  0.00     0.010 A
HETATM   16  C7  UNL     1     -25.662  -3.691  11.178  1.00  0.00     0.010 A
ENDBRANCH   6  14
ENDBRANCH   4   5
ENDBRANCH   3   4
ENDBRANCH   2   3
BRANCH   2  17
HETATM   17  C11 UNL     1     -25.393  -8.440   7.578  1.00  0.00     0.015 A
HETATM   18  C12 UNL     1     -26.523  -9.096   7.170  1.00  0.00     0.051 A
HETATM   19  C13 UNL     1     -26.591 -10.495   7.167  1.00  0.00     0.106 A
HETATM   20  C14 UNL     1     -25.502 -11.227   7.581  1.00  0.00     0.072 A
HETATM   21  C15 UNL     1     -24.347 -10.580   7.999  1.00  0.00     0.106 A
HETATM   22  C16 UNL     1     -24.317  -9.185   7.989  1.00  0.00     0.051 A
BRANCH  19  23
HETATM   23  N3  UNL     1     -27.781 -11.131   6.729  1.00  0.00    -0.116 N
HETATM   24  O2  UNL     1     -27.919 -12.354   6.910  1.00  0.00    -0.532 OA
HETATM   25  O3  UNL     1     -28.792 -10.442   6.111  1.00  0.00    -0.532 OA
ENDBRANCH  19  23
BRANCH  21  26
HETATM   26  N4  UNL     1     -23.205 -11.296   8.442  1.00  0.00    -0.116 N
HETATM   27  O4  UNL     1     -22.374 -10.765   9.193  1.00  0.00    -0.532 OA
HETATM   28  O5  UNL     1     -23.043 -12.590   8.027  1.00  0.00    -0.532 OA
ENDBRANCH  21  26
ENDBRANCH   2  17
TORSDOF 7
ENDMDL