MODEL 3
REMARK VINA RESULT: -8.292130740      3.158      8.057
REMARK  8 active torsions:
REMARK  status: ('A' for Active; 'I' for Inactive)
REMARK    1  A    between atoms: C2_2  and  C3_3
REMARK    2  A    between atoms: C3_3  and  C4_4
REMARK    3  A    between atoms: C5_6  and  S1_7
REMARK    4  A    between atoms: S1_7  and  C6_8
REMARK    5  A    between atoms: C7_13  and  N2_14
REMARK    6  A    between atoms: C12_22  and  C13_23
REMARK    7  A    between atoms: C13_23  and  C14_25
REMARK    8  A    between atoms: C14_25  and  C15_26
ROOT
HETATM    1  C4  UNL     1     -24.970  -4.385   8.974  1.00  0.00     0.086 A
HETATM    2  O1  UNL     1     -25.191  -5.292   8.049  1.00  0.00    -0.289 OA
HETATM    3  C5  UNL     1     -25.671  -6.390   8.553  1.00  0.00     0.193 A
HETATM    4  N3  UNL     1     -25.770  -6.193   9.875  1.00  0.00    -0.326 N
ATOM      5  H3  UNL     1     -26.114  -6.872  10.554  1.00  0.00     0.168 HD
HETATM    6  C12 UNL     1     -25.331  -4.927  10.161  1.00  0.00     0.111 A
ENDROOT
BRANCH   3   7
HETATM    7  S1  UNL     1     -26.092  -7.843   7.588  1.00  0.00    -0.035 SA
BRANCH   7   8
HETATM    8  C6  UNL     1     -25.190  -9.232   7.761  1.00  0.00     0.102 A
HETATM    9  S2  UNL     1     -23.564  -9.188   8.247  1.00  0.00    -0.024 SA
HETATM   10  S3  UNL     1     -23.239 -11.229   8.204  1.00  0.00     0.027 SA
HETATM   11  N1  UNL     1     -24.806 -11.513   7.719  1.00  0.00    -0.305 N
HETATM   12  C7  UNL     1     -25.616 -10.502   7.547  1.00  0.00     0.135 A
ATOM     13  H1  UNL     1     -25.131 -12.467   7.557  1.00  0.00     0.176 HD
BRANCH  12  14
HETATM   14  N2  UNL     1     -26.993 -10.745   7.122  1.00  0.00    -0.361 N
HETATM   15  C8  UNL     1     -27.508 -12.080   7.067  1.00  0.00     0.150 C
HETATM   16  C9  UNL     1     -28.075 -12.282   5.665  1.00  0.00     0.187 C
HETATM   17  O2  UNL     1     -28.897 -11.258   5.266  1.00  0.00    -0.388 OA
HETATM   18  C10 UNL     1     -29.139 -10.300   6.221  1.00  0.00     0.187 C
HETATM   19  C11 UNL     1     -27.871  -9.656   6.747  1.00  0.00     0.150 C
ENDBRANCH  12  14
ENDBRANCH   7   8
ENDBRANCH   3   7
BRANCH   1  20
HETATM   20  C3  UNL     1     -24.416  -3.047   8.651  1.00  0.00     0.067 C
BRANCH  20  21
HETATM   21  C2  UNL     1     -25.451  -1.956   8.622  1.00  0.00     0.002 C
HETATM   22  C1  UNL     1     -25.824  -1.703   7.165  1.00  0.00     0.005 C
ENDBRANCH  20  21
ENDBRANCH   1  20
BRANCH   6  23
HETATM   23  C13 UNL     1     -25.296  -4.322  11.478  1.00  0.00     0.178 C
HETATM   24  O3  UNL     1     -26.349  -3.908  11.995  1.00  0.00    -0.291 OA
BRANCH  23  25
HETATM   25  C14 UNL     1     -24.023  -4.198  12.201  1.00  0.00     0.089 C
BRANCH  25  26
HETATM   26  C15 UNL     1     -23.737  -2.782  12.641  1.00  0.00    -0.015 C
HETATM   27  C16 UNL     1     -23.575  -2.783  14.133  1.00  0.00     0.010 C
HETATM   28  C17 UNL     1     -22.449  -2.280  12.034  1.00  0.00     0.010 C
ENDBRANCH  25  26
ENDBRANCH  23  25
ENDBRANCH   6  23
TORSDOF 8
ENDMDL