MODEL 4
REMARK VINA RESULT: -5.975544888      4.007      5.662
REMARK  1 active torsions:
REMARK  status: ('A' for Active; 'I' for Inactive)
REMARK    1  A    between atoms: C8_15  and  C9_16
ROOT
HETATM    1  C1  UNL     1      19.043  35.626  44.018  1.00  0.00     0.273 C
HETATM    2  N1  UNL     1      20.427  35.382  43.799  1.00  0.00    -0.063 N
HETATM    3  C2  UNL     1      21.108  34.979  44.974  1.00  0.00     0.273 C
HETATM    4  C3  UNL     1      20.735  34.494  42.662  1.00  0.00     0.229 C
HETATM    5  C4  UNL     1      22.251  34.427  42.558  1.00  0.00     0.224 C
HETATM    6  N2  UNL     1      22.660  34.115  41.228  1.00  0.00    -0.062 N
ATOM      7  H21 UNL     1      22.177  33.314  40.822  1.00  0.00     0.278 HD
ATOM      8  H22 UNL     1      23.601  33.727  41.163  1.00  0.00     0.278 HD
HETATM    9  C5  UNL     1      22.482  35.330  40.500  1.00  0.00     0.223 C
HETATM   10  C6  UNL     1      23.116  36.354  41.453  1.00  0.00     0.052 C
HETATM   11  C7  UNL     1      22.497  37.627  40.923  1.00  0.00     0.240 C
HETATM   12  N3  UNL     1      21.273  37.277  40.278  1.00  0.00    -0.068 N
ATOM     13  H31 UNL     1      21.254  37.529  39.290  1.00  0.00     0.277 HD
ATOM     14  H32 UNL     1      20.484  37.853  40.574  1.00  0.00     0.277 HD
HETATM   15  C8  UNL     1      21.060  35.840  40.513  1.00  0.00     0.225 C
HETATM   16  C9  UNL     1      20.383  35.693  41.818  1.00  0.00     0.083 C
HETATM   17  C10 UNL     1      21.118  36.382  42.967  1.00  0.00     0.205 C
HETATM   18  C11 UNL     1      22.536  35.928  42.762  1.00  0.00     0.058 C
ENDROOT
TORSDOF 1
ENDMDL