MODEL 3
REMARK VINA RESULT: -5.356987303      1.946      2.285
REMARK  2 active torsions:
REMARK  status: ('A' for Active; 'I' for Inactive)
REMARK    1  A    between atoms: N3_8  and  C4_10
REMARK    2  A    between atoms: C4_10  and  N4_12
ROOT
HETATM    1  C1  UNL     1      23.843  37.743  40.884  1.00  0.00     0.099 C
HETATM    2  C2  UNL     1      23.131  36.434  41.056  1.00  0.00     0.138 A
HETATM    3  N1  UNL     1      23.393  35.326  40.319  1.00  0.00    -0.280 N
ATOM      4  H1  UNL     1      24.083  35.232  39.574  1.00  0.00     0.189 HD
HETATM    5  N2  UNL     1      22.562  34.386  40.770  1.00  0.00    -0.263 N
ATOM      6  H2  UNL     1      22.509  33.429  40.417  1.00  0.00     0.190 HD
HETATM    7  C3  UNL     1      21.804  34.889  41.760  1.00  0.00     0.247 A
HETATM    8  N3  UNL     1      20.905  34.216  42.393  1.00  0.00    -0.297 N
ATOM      9  H3  UNL     1      20.759  33.241  42.129  1.00  0.00     0.172 HD
HETATM   10  O1  UNL     1      22.190  36.135  41.892  1.00  0.00    -0.264 OA
ENDROOT
BRANCH   8  11
HETATM   11  C4  UNL     1      20.112  34.752  43.432  1.00  0.00     0.176 C
HETATM   12  S1  UNL     1      20.503  34.582  45.012  1.00  0.00    -0.041 SA
BRANCH  11  13
HETATM   13  N4  UNL     1      18.933  35.462  43.106  1.00  0.00    -0.367 N
HETATM   14  C5  UNL     1      18.004  34.945  42.112  1.00  0.00     0.151 C
HETATM   15  C6  UNL     1      18.673  36.717  43.787  1.00  0.00     0.151 C
ENDBRANCH  11  13
ENDBRANCH   8  11
TORSDOF 2
ENDMDL