MODEL 3
REMARK VINA RESULT: -4.708420063      4.229      5.501
REMARK  2 active torsions:
REMARK  status: ('A' for Active; 'I' for Inactive)
REMARK       I    between atoms: N1_2  and  C2_4
REMARK    1  A    between atoms: N3_6  and  C3_8
REMARK    2  A    between atoms: C3_8  and  N4_10
ROOT
HETATM    1  C1  UNL     1      21.017  34.917  45.050  1.00  0.00     0.148 C
HETATM    2  N1  UNL     1      21.713  34.169  44.041  1.00  0.00    -0.369 N
ATOM      3  H1  UNL     1      21.639  33.152  44.062  1.00  0.00     0.161 HD
HETATM    4  C2  UNL     1      22.494  34.759  43.020  1.00  0.00     0.190 C
HETATM    5  N2  UNL     1      22.811  34.051  41.827  1.00  0.00    -0.063 NA
HETATM    6  N3  UNL     1      22.951  35.968  43.131  1.00  0.00    -0.307 N
ATOM      7  H3  UNL     1      22.740  36.500  43.976  1.00  0.00     0.171 HD
ENDROOT
BRANCH   6   8
HETATM    8  C3  UNL     1      23.737  36.575  42.115  1.00  0.00     0.177 C
HETATM    9  S1  UNL     1      22.952  37.448  40.950  1.00  0.00    -0.041 SA
BRANCH   8  10
HETATM   10  N4  UNL     1      25.150  36.471  42.045  1.00  0.00    -0.345 N
HETATM   11  C4  UNL     1      26.247  35.443  42.018  1.00  0.00     0.156 A
HETATM   12  C5  UNL     1      26.516  36.923  41.962  1.00  0.00     0.043 A
HETATM   13  C6  UNL     1      27.168  37.572  43.158  1.00  0.00     0.040 C
HETATM   14  C7  UNL     1      27.058  37.409  40.638  1.00  0.00     0.040 C
ENDBRANCH   8  10
ENDBRANCH   6   8
TORSDOF 2
ENDMDL