MODEL 3
REMARK VINA RESULT: -5.378367089      4.451      6.340
REMARK  1 active torsions:
REMARK  status: ('A' for Active; 'I' for Inactive)
REMARK       I    between atoms: N1_2  and  C2_4
REMARK       I    between atoms: C2_4  and  N3_10
REMARK       I    between atoms: N2_5  and  C3_7
REMARK    1  A    between atoms: C7_13  and  N4_15
ROOT
HETATM    1  C1  UNL     1      27.551  35.276  40.466  1.00  0.00     0.149 C
HETATM    2  N1  UNL     1      27.048  34.409  41.508  1.00  0.00    -0.360 N
ATOM      3  H1  UNL     1      27.443  33.476  41.618  1.00  0.00     0.162 HD
HETATM    4  C2  UNL     1      26.015  34.835  42.380  1.00  0.00     0.285 C
HETATM    5  N2  UNL     1      26.272  35.818  43.199  1.00  0.00    -0.293 N
ATOM      6  H2  UNL     1      25.529  36.122  43.828  1.00  0.00     0.171 HD
HETATM    7  C3  UNL     1      27.503  36.480  43.269  1.00  0.00     0.220 C
HETATM    8  C4  UNL     1      28.746  35.838  43.756  1.00  0.00     0.117 C
HETATM    9  O1  UNL     1      27.585  37.683  42.905  1.00  0.00    -0.274 OA
HETATM   10  N3  UNL     1      24.730  34.241  42.401  1.00  0.00     0.029 N
HETATM   11  C5  UNL     1      24.698  32.795  42.244  1.00  0.00     0.286 C
HETATM   12  C6  UNL     1      23.735  34.870  43.222  1.00  0.00     0.320 A
HETATM   13  C7  UNL     1      23.614  34.906  41.761  1.00  0.00     0.317 A
HETATM   14  C8  UNL     1      23.961  36.108  40.951  1.00  0.00     0.082 C
ENDROOT
BRANCH  13  15
HETATM   15  N4  UNL     1      22.546  34.094  41.197  1.00  0.00    -0.042 N
ATOM     16  H43 UNL     1      21.711  34.200  41.773  1.00  0.00     0.277 HD
ATOM     17  H42 UNL     1      22.236  34.518  40.323  1.00  0.00     0.277 HD
ATOM     18  H41 UNL     1      22.715  33.101  41.041  1.00  0.00     0.277 HD
ENDBRANCH  13  15
TORSDOF 1
ENDMDL