MODEL 1
REMARK VINA RESULT: -5.454838041      0.000      0.000
REMARK  0 active torsions:
REMARK  status: ('A' for Active; 'I' for Inactive)
REMARK       I    between atoms: N1_2  and  C3_4
REMARK       I    between atoms: C3_4  and  N6_15
REMARK       I    between atoms: N2_5  and  C4_7
REMARK       I    between atoms: C4_7  and  N4_11
ROOT
HETATM    1  C1  UNL     1      24.632  36.993  42.268  1.00  0.00     0.152 C
HETATM    2  N1  UNL     1      25.323  36.125  41.316  1.00  0.00    -0.355 N
HETATM    3  C2  UNL     1      25.108  36.465  39.901  1.00  0.00     0.152 C
HETATM    4  C3  UNL     1      26.135  35.044  41.706  1.00  0.00     0.294 C
HETATM    5  N2  UNL     1      25.620  33.995  42.255  1.00  0.00    -0.154 N
ATOM      6  H2  UNL     1      26.244  33.233  42.522  1.00  0.00     0.187 HD
HETATM    7  C4  UNL     1      24.226  33.849  42.505  1.00  0.00     0.687 C
HETATM    8  N3  UNL     1      23.327  34.108  41.632  1.00  0.00    -0.234 N
ATOM      9  H31 UNL     1      22.329  34.003  41.811  1.00  0.00     0.174 HD
ATOM     10  H32 UNL     1      23.636  34.434  40.715  1.00  0.00     0.174 HD
HETATM   11  N4  UNL     1      23.796  33.396  43.779  1.00  0.00    -0.126 N
ATOM     12  H4  UNL     1      24.155  33.848  44.620  1.00  0.00     0.197 HD
HETATM   13  C5  UNL     1      22.880  32.328  43.901  1.00  0.00     0.196 C
HETATM   14  N5  UNL     1      22.132  31.449  44.021  1.00  0.00    -0.171 NA
HETATM   15  N6  UNL     1      27.556  35.011  41.535  1.00  0.00    -0.018 N
HETATM   16  C6  UNL     1      27.851  33.864  40.668  1.00  0.00     0.282 C
HETATM   17  C7  UNL     1      28.214  34.747  42.818  1.00  0.00     0.282 C
HETATM   18  C8  UNL     1      28.067  36.227  40.982  1.00  0.00     0.282 C
ENDROOT
TORSDOF 0
ENDMDL