MODEL 5
REMARK VINA RESULT: -5.426137728      2.882      4.536
REMARK  0 active torsions:
REMARK  status: ('A' for Active; 'I' for Inactive)
REMARK       I    between atoms: N1_2  and  C2_4
REMARK       I    between atoms: C2_4  and  N5_14
REMARK       I    between atoms: N2_5  and  C3_7
REMARK       I    between atoms: N4_9  and  C4_11
ROOT
HETATM    1  C1  UNL     1      21.873  33.912  45.691  1.00  0.00     0.165 C
HETATM    2  N1  UNL     1      20.885  34.919  45.306  1.00  0.00    -0.230 N
ATOM      3  H1  UNL     1      20.811  35.772  45.858  1.00  0.00     0.177 HD
HETATM    4  C2  UNL     1      20.026  34.749  44.186  1.00  0.00     0.677 C
HETATM    5  N2  UNL     1      20.027  35.656  43.244  1.00  0.00    -0.164 N
ATOM      6  H2  UNL     1      20.642  36.465  43.332  1.00  0.00     0.187 HD
HETATM    7  C3  UNL     1      19.193  35.544  42.103  1.00  0.00     0.209 C
HETATM    8  N3  UNL     1      17.842  35.112  42.129  1.00  0.00    -0.063 NA
HETATM    9  N4  UNL     1      19.689  35.852  40.954  1.00  0.00    -0.301 N
ATOM     10  H4  UNL     1      19.087  35.771  40.136  1.00  0.00     0.171 HD
HETATM   11  C4  UNL     1      21.012  36.296  40.759  1.00  0.00     0.220 C
HETATM   12  C5  UNL     1      21.244  37.718  40.432  1.00  0.00     0.117 C
HETATM   13  O1  UNL     1      21.958  35.489  40.865  1.00  0.00    -0.274 OA
HETATM   14  N5  UNL     1      19.203  33.599  44.138  1.00  0.00    -0.227 N
HETATM   15  C6  UNL     1      18.006  33.587  44.971  1.00  0.00     0.168 C
HETATM   16  C7  UNL     1      19.458  32.440  43.330  1.00  0.00     0.168 C
ENDROOT
TORSDOF 0
ENDMDL