MODEL 5
REMARK VINA RESULT: -6.588880042      0.853      1.335
REMARK  11 active torsions:
REMARK  status: ('A' for Active; 'I' for Inactive)
REMARK    1  A    between atoms: N1_1  and  C1_5
REMARK    2  A    between atoms: C1_5  and  C2_6
REMARK    3  A    between atoms: C2_6  and  C3_7
REMARK    4  A    between atoms: C3_7  and  C4_8
REMARK    5  A    between atoms: C4_8  and  C5_9
REMARK    6  A    between atoms: C5_9  and  C6_10
REMARK    7  A    between atoms: C7_11  and  C8_12
REMARK    8  A    between atoms: C8_12  and  C9_13
REMARK    9  A    between atoms: C9_13  and  C10_14
REMARK   10  A    between atoms: C10_14  and  C11_15
REMARK   11  A    between atoms: C11_15  and  C12_16
ROOT
HETATM    1  C5  UNL     1      -3.595  10.700  20.549  1.00  0.00     0.027 C
ENDROOT
BRANCH   1   2
HETATM    2  C4  UNL     1      -4.524   9.882  21.372  1.00  0.00     0.004 C
BRANCH   2   3
HETATM    3  C3  UNL     1      -5.499  10.486  22.261  1.00  0.00     0.002 C
BRANCH   3   4
HETATM    4  C2  UNL     1      -5.176  11.286  23.444  1.00  0.00     0.027 C
BRANCH   4   5
HETATM    5  C1  UNL     1      -4.296  10.608  24.463  1.00  0.00     0.229 C
BRANCH   5   6
HETATM    6  N1  UNL     1      -4.555  11.048  25.782  1.00  0.00    -0.079 N
ATOM      7  H13 UNL     1      -3.698  11.353  26.243  1.00  0.00     0.274 HD
ATOM      8  H12 UNL     1      -5.064  11.932  25.781  1.00  0.00     0.274 HD
ATOM      9  H11 UNL     1      -5.041  10.347  26.341  1.00  0.00     0.274 HD
ENDBRANCH   5   6
ENDBRANCH   4   5
ENDBRANCH   3   4
ENDBRANCH   2   3
ENDBRANCH   1   2
BRANCH   1  10
HETATM   10  C6  UNL     1      -3.741  10.778  19.109  1.00  0.00    -0.031 C
HETATM   11  C7  UNL     1      -2.993  11.410  18.251  1.00  0.00    -0.031 C
BRANCH  11  12
HETATM   12  C8  UNL     1      -1.812  12.195  18.607  1.00  0.00     0.027 C
BRANCH  12  13
HETATM   13  C9  UNL     1      -1.986  13.677  18.266  1.00  0.00     0.004 C
BRANCH  13  14
HETATM   14  C10 UNL     1      -3.281  13.921  17.549  1.00  0.00     0.001 C
BRANCH  14  15
HETATM   15  C11 UNL     1      -3.268  15.112  16.638  1.00  0.00     0.004 C
BRANCH  15  16
HETATM   16  C12 UNL     1      -3.829  16.345  17.251  1.00  0.00    -0.014 A
HETATM   17  C13 UNL     1      -2.996  17.472  17.699  1.00  0.00     0.005 A
HETATM   18  C14 UNL     1      -3.696  17.607  16.398  1.00  0.00     0.005 A
ENDBRANCH  15  16
ENDBRANCH  14  15
ENDBRANCH  13  14
ENDBRANCH  12  13
ENDBRANCH  11  12
ENDBRANCH   1  10
TORSDOF 11
ENDMDL