MODEL 1
REMARK VINA RESULT: -6.808987849      0.000      0.000
REMARK  9 active torsions:
REMARK  status: ('A' for Active; 'I' for Inactive)
REMARK    1  A    between atoms: C2_2  and  C3_3
REMARK    2  A    between atoms: C3_3  and  C4_4
REMARK    3  A    between atoms: C4_4  and  C5_5
REMARK    4  A    between atoms: C5_5  and  C6_6
REMARK    5  A    between atoms: C6_6  and  C7_7
REMARK    6  A    between atoms: C7_7  and  C8_8
REMARK    7  A    between atoms: C8_8  and  C9_9
REMARK    8  A    between atoms: C9_9  and  N1_10
REMARK    9  A    between atoms: N1_10  and  C10_12
ROOT
HETATM    1  C8  UNL     1      -1.932  11.602  19.898  1.00  0.00     0.044 C
ENDROOT
BRANCH   1   2
HETATM    2  C7  UNL     1      -1.833  12.405  18.620  1.00  0.00     0.005 C
BRANCH   2   3
HETATM    3  C6  UNL     1      -3.149  12.687  17.970  1.00  0.00     0.000 C
BRANCH   3   4
HETATM    4  C5  UNL     1      -3.348  14.117  17.561  1.00  0.00     0.000 C
BRANCH   4   5
HETATM    5  C4  UNL     1      -2.097  14.908  17.895  1.00  0.00     0.004 C
BRANCH   5   6
HETATM    6  C3  UNL     1      -2.424  16.406  17.905  1.00  0.00     0.026 C
BRANCH   6   7
HETATM    7  C2  UNL     1      -3.675  16.687  17.182  1.00  0.00    -0.037 C
HETATM    8  C1  UNL     1      -3.855  17.784  16.462  1.00  0.00     0.007 C
ENDBRANCH   6   7
ENDBRANCH   5   6
ENDBRANCH   4   5
ENDBRANCH   3   4
ENDBRANCH   2   3
ENDBRANCH   1   2
BRANCH   1   9
HETATM    9  C9  UNL     1      -3.174  10.788  19.928  1.00  0.00     0.056 C
BRANCH   9  10
HETATM   10  N1  UNL     1      -3.146   9.426  19.707  1.00  0.00    -0.398 N
ATOM     11  H1  UNL     1      -3.985   8.900  19.951  1.00  0.00     0.159 HD
BRANCH  10  12
HETATM   12  C10 UNL     1      -2.088   8.708  19.187  1.00  0.00     0.080 C
HETATM   13  C11 UNL     1      -1.862   7.333  19.766  1.00  0.00     0.025 C
HETATM   14  C12 UNL     1      -1.221   6.604  18.601  1.00  0.00     0.002 C
HETATM   15  C13 UNL     1      -2.148   7.081  17.469  1.00  0.00     0.002 C
HETATM   16  C14 UNL     1      -2.036   8.584  17.698  1.00  0.00     0.025 C
ENDBRANCH  10  12
ENDBRANCH   9  10
ENDBRANCH   1   9
TORSDOF 9
ENDMDL