MODEL 4
REMARK VINA RESULT: -6.328565820      2.355      3.127
REMARK  9 active torsions:
REMARK  status: ('A' for Active; 'I' for Inactive)
REMARK    1  A    between atoms: C2_2  and  C3_3
REMARK    2  A    between atoms: C3_3  and  C4_4
REMARK    3  A    between atoms: C4_4  and  C5_5
REMARK    4  A    between atoms: C5_5  and  C6_6
REMARK    5  A    between atoms: C6_6  and  C7_7
REMARK    6  A    between atoms: C7_7  and  C8_8
REMARK    7  A    between atoms: C8_8  and  C9_9
REMARK    8  A    between atoms: C9_9  and  N1_10
REMARK    9  A    between atoms: N1_10  and  C10_12
ROOT
HETATM    1  C8  UNL     1      -1.755  12.361  19.015  1.00  0.00     0.020 C
ENDROOT
BRANCH   1   2
HETATM    2  C7  UNL     1      -3.080  12.399  18.249  1.00  0.00     0.002 C
BRANCH   2   3
HETATM    3  C6  UNL     1      -3.224  13.742  17.640  1.00  0.00     0.000 C
BRANCH   3   4
HETATM    4  C5  UNL     1      -2.165  14.733  18.046  1.00  0.00     0.000 C
BRANCH   4   5
HETATM    5  C4  UNL     1      -2.500  16.142  17.723  1.00  0.00     0.004 C
BRANCH   5   6
HETATM    6  C3  UNL     1      -3.879  16.241  17.151  1.00  0.00     0.026 C
BRANCH   6   7
HETATM    7  C2  UNL     1      -4.277  17.624  16.816  1.00  0.00    -0.037 C
HETATM    8  C1  UNL     1      -3.670  18.447  16.013  1.00  0.00     0.007 C
ENDBRANCH   6   7
ENDBRANCH   5   6
ENDBRANCH   4   5
ENDBRANCH   3   4
ENDBRANCH   2   3
ENDBRANCH   1   2
BRANCH   1   9
HETATM    9  C9  UNL     1      -1.713  11.115  19.843  1.00  0.00     0.119 C
BRANCH   9  10
HETATM   10  N1  UNL     1      -2.615  10.112  19.372  1.00  0.00    -0.390 N
ATOM     11  H1  UNL     1      -3.612  10.324  19.354  1.00  0.00     0.159 HD
BRANCH  10  12
HETATM   12  C10 UNL     1      -2.184   8.823  18.925  1.00  0.00     0.027 A
HETATM   13  C11 UNL     1      -1.878   7.659  19.468  1.00  0.00     0.029 A
HETATM   14  C12 UNL     1      -1.584   7.069  18.172  1.00  0.00     0.004 A
HETATM   15  C13 UNL     1      -1.884   8.222  17.612  1.00  0.00     0.029 A
ENDBRANCH  10  12
ENDBRANCH   9  10
ENDBRANCH   1   9
TORSDOF 9
ENDMDL