MODEL 2
REMARK VINA RESULT: -4.923794873      0.983      4.296
REMARK  9 active torsions:
REMARK  status: ('A' for Active; 'I' for Inactive)
REMARK    1  A    between atoms: C2_2  and  C3_3
REMARK    2  A    between atoms: C3_3  and  C4_4
REMARK    3  A    between atoms: C4_4  and  C5_5
REMARK    4  A    between atoms: C5_5  and  C6_6
REMARK    5  A    between atoms: C5_5  and  N1_9
REMARK    6  A    between atoms: C6_6  and  C7_7
REMARK    7  A    between atoms: N1_9  and  C9_10
REMARK    8  A    between atoms: N1_9  and  C11_12
REMARK    9  A    between atoms: C11_12  and  C12_13
ROOT
HETATM    1  C5  UNL     1      -3.743  10.376  19.618  1.00  0.00     0.083 C
ENDROOT
BRANCH   1   2
HETATM    2  C4  UNL     1      -4.621  10.415  20.824  1.00  0.00     0.025 C
BRANCH   2   3
HETATM    3  C3  UNL     1      -4.381   9.286  21.793  1.00  0.00     0.002 C
BRANCH   3   4
HETATM    4  C2  UNL     1      -4.940   9.775  23.134  1.00  0.00    -0.004 C
HETATM    5  C1  UNL     1      -4.835  11.258  23.293  1.00  0.00     0.005 C
ENDBRANCH   3   4
ENDBRANCH   2   3
ENDBRANCH   1   2
BRANCH   1   6
HETATM    6  C6  UNL     1      -2.933   9.085  19.699  1.00  0.00     0.025 C
BRANCH   6   7
HETATM    7  C7  UNL     1      -3.117   8.201  18.519  1.00  0.00    -0.002 C
HETATM    8  C8  UNL     1      -1.855   8.355  17.646  1.00  0.00     0.005 C
ENDBRANCH   6   7
ENDBRANCH   1   6
BRANCH   1   9
HETATM    9  N1  UNL     1      -2.936  11.502  19.374  1.00  0.00    -0.389 N
BRANCH   9  10
HETATM   10  C9  UNL     1      -1.822  11.744  20.201  1.00  0.00     0.054 C
HETATM   11  C10 UNL     1      -0.505  11.684  19.449  1.00  0.00     0.054 C
ENDBRANCH   9  10
BRANCH   9  12
HETATM   12  C11 UNL     1      -2.870  11.904  18.020  1.00  0.00     0.122 C
BRANCH  12  13
HETATM   13  C12 UNL     1      -3.621  13.179  17.728  1.00  0.00     0.015 C
HETATM   14  C13 UNL     1      -2.682  14.353  17.772  1.00  0.00     0.006 C
ENDBRANCH  12  13
ENDBRANCH   9  12
ENDBRANCH   1   9
TORSDOF 9
ENDMDL