MODEL 2
REMARK VINA RESULT: -6.775674313      0.844      1.277
REMARK  11 active torsions:
REMARK  status: ('A' for Active; 'I' for Inactive)
REMARK    1  A    between atoms: C2_2  and  C3_3
REMARK    2  A    between atoms: C3_3  and  C4_4
REMARK    3  A    between atoms: C4_4  and  C5_5
REMARK    4  A    between atoms: C5_5  and  C6_6
REMARK    5  A    between atoms: C6_6  and  C7_7
REMARK    6  A    between atoms: C8_8  and  C9_9
REMARK    7  A    between atoms: C9_9  and  C10_10
REMARK    8  A    between atoms: C10_10  and  C11_11
REMARK    9  A    between atoms: C11_11  and  C12_12
REMARK   10  A    between atoms: C12_12  and  C13_13
REMARK   11  A    between atoms: C13_13  and  N1_14
ROOT
HETATM    1  C9  UNL     1      -2.865  10.427  19.789  1.00  0.00     0.027 C
ENDROOT
BRANCH   1   2
HETATM    2  C8  UNL     1      -1.885  11.486  19.543  1.00  0.00    -0.031 C
HETATM    3  C7  UNL     1      -2.030  12.472  18.694  1.00  0.00    -0.031 C
BRANCH   3   4
HETATM    4  C6  UNL     1      -3.210  12.668  17.853  1.00  0.00     0.027 C
BRANCH   4   5
HETATM    5  C5  UNL     1      -3.402  14.133  17.503  1.00  0.00     0.004 C
BRANCH   5   6
HETATM    6  C4  UNL     1      -2.164  14.887  17.901  1.00  0.00     0.004 C
BRANCH   6   7
HETATM    7  C3  UNL     1      -2.347  16.367  17.905  1.00  0.00     0.026 C
BRANCH   7   8
HETATM    8  C2  UNL     1      -3.628  16.684  17.202  1.00  0.00    -0.037 C
HETATM    9  C1  UNL     1      -3.749  17.788  16.495  1.00  0.00     0.007 C
ENDBRANCH   7   8
ENDBRANCH   6   7
ENDBRANCH   5   6
ENDBRANCH   4   5
ENDBRANCH   3   4
ENDBRANCH   1   2
BRANCH   1  10
HETATM   10  C10 UNL     1      -3.858  10.765  20.889  1.00  0.00     0.004 C
BRANCH  10  11
HETATM   11  C11 UNL     1      -4.297   9.497  21.545  1.00  0.00     0.002 C
BRANCH  11  12
HETATM   12  C12 UNL     1      -5.309   9.777  22.669  1.00  0.00     0.027 C
BRANCH  12  13
HETATM   13  C13 UNL     1      -4.806  11.054  23.353  1.00  0.00     0.229 C
BRANCH  13  14
HETATM   14  N1  UNL     1      -4.219  10.656  24.597  1.00  0.00    -0.079 N
ATOM     15  H13 UNL     1      -3.535   9.906  24.496  1.00  0.00     0.274 HD
ATOM     16  H12 UNL     1      -3.586  11.356  24.984  1.00  0.00     0.274 HD
ATOM     17  H11 UNL     1      -4.986  10.419  25.226  1.00  0.00     0.274 HD
ENDBRANCH  13  14
ENDBRANCH  12  13
ENDBRANCH  11  12
ENDBRANCH  10  11
ENDBRANCH   1  10
TORSDOF 11
ENDMDL