MODEL 1
REMARK VINA RESULT: -5.564541919      0.000      0.000
REMARK  9 active torsions:
REMARK  status: ('A' for Active; 'I' for Inactive)
REMARK    1  A    between atoms: C2_2  and  C3_3
REMARK    2  A    between atoms: C3_3  and  C4_4
REMARK    3  A    between atoms: C4_4  and  C5_5
REMARK    4  A    between atoms: C5_5  and  C6_6
REMARK    5  A    between atoms: C5_5  and  C10_10
REMARK    6  A    between atoms: C6_6  and  C7_7
REMARK    7  A    between atoms: C7_7  and  C8_8
REMARK    8  A    between atoms: C10_10  and  N1_11
REMARK    9  A    between atoms: N1_11  and  C12_13
ROOT
HETATM    1  C5  UNL     1      -2.461  10.718  19.391  1.00  0.00     0.014 C
ENDROOT
BRANCH   1   2
HETATM    2  C4  UNL     1      -3.903  10.824  19.580  1.00  0.00     0.006 C
BRANCH   2   3
HETATM    3  C3  UNL     1      -4.536  10.397  20.827  1.00  0.00     0.000 C
BRANCH   3   4
HETATM    4  C2  UNL     1      -4.062  10.784  22.158  1.00  0.00    -0.005 C
HETATM    5  C1  UNL     1      -4.884   9.899  23.170  1.00  0.00     0.005 C
ENDBRANCH   3   4
ENDBRANCH   2   3
ENDBRANCH   1   2
BRANCH   1   6
HETATM    6  C6  UNL     1      -1.758  11.995  19.154  1.00  0.00     0.006 C
BRANCH   6   7
HETATM    7  C7  UNL     1      -2.568  12.951  18.252  1.00  0.00     0.000 C
BRANCH   7   8
HETATM    8  C8  UNL     1      -1.722  14.237  18.247  1.00  0.00    -0.005 C
HETATM    9  C9  UNL     1      -2.609  15.378  17.830  1.00  0.00     0.005 C
ENDBRANCH   7   8
ENDBRANCH   6   7
ENDBRANCH   1   6
BRANCH   1  10
HETATM   10  C10 UNL     1      -2.104   9.711  18.290  1.00  0.00     0.276 C
BRANCH  10  11
HETATM   11  N1  UNL     1      -2.510   8.369  18.594  1.00  0.00     0.084 N
HETATM   12  C11 UNL     1      -2.181   7.564  17.432  1.00  0.00     0.309 C
BRANCH  11  13
HETATM   13  C12 UNL     1      -1.816   7.796  19.715  1.00  0.00     0.267 C
HETATM   14  C13 UNL     1      -2.870   7.080  20.583  1.00  0.00     0.037 C
ENDBRANCH  11  13
ENDBRANCH  10  11
ENDBRANCH   1  10
TORSDOF 9
ENDMDL