MODEL 4
REMARK VINA RESULT: -6.637744212      2.977      4.184
REMARK  9 active torsions:
REMARK  status: ('A' for Active; 'I' for Inactive)
REMARK    1  A    between atoms: C2_2  and  C3_3
REMARK    2  A    between atoms: C3_3  and  C4_4
REMARK    3  A    between atoms: C4_4  and  N1_5
REMARK    4  A    between atoms: N1_5  and  C5_8
REMARK    5  A    between atoms: C5_8  and  C6_9
REMARK    6  A    between atoms: C6_9  and  C7_10
REMARK    7  A    between atoms: C7_10  and  C8_11
REMARK    8  A    between atoms: C8_11  and  C9_12
REMARK    9  A    between atoms: C9_12  and  C10_13
ROOT
HETATM    1  C6  UNL     1      -1.630   9.609  17.394  1.00  0.00     0.027 C
ENDROOT
BRANCH   1   2
HETATM    2  C5  UNL     1      -2.091   8.208  17.811  1.00  0.00     0.232 C
BRANCH   2   3
HETATM    3  N1  UNL     1      -1.922   8.075  19.243  1.00  0.00    -0.075 N
ATOM      4  H12 UNL     1      -2.780   8.312  19.741  1.00  0.00     0.277 HD
ATOM      5  H11 UNL     1      -1.314   8.805  19.614  1.00  0.00     0.277 HD
BRANCH   3   6
HETATM    6  C4  UNL     1      -1.459   6.788  19.603  1.00  0.00     0.236 C
BRANCH   6   7
HETATM    7  C3  UNL     1      -0.828   6.083  18.447  1.00  0.00     0.054 C
BRANCH   7   8
HETATM    8  C2  UNL     1       0.465   5.462  18.827  1.00  0.00    -0.035 C
HETATM    9  C1  UNL     1       0.655   4.988  20.049  1.00  0.00     0.007 C
ENDBRANCH   7   8
ENDBRANCH   6   7
ENDBRANCH   3   6
ENDBRANCH   2   3
ENDBRANCH   1   2
BRANCH   1  10
HETATM   10  C7  UNL     1      -2.393  10.637  18.196  1.00  0.00     0.002 C
BRANCH  10  11
HETATM   11  C8  UNL     1      -1.413  11.505  18.953  1.00  0.00     0.000 C
BRANCH  11  12
HETATM   12  C9  UNL     1      -1.995  12.875  19.105  1.00  0.00     0.004 C
BRANCH  12  13
HETATM   13  C10 UNL     1      -1.991  13.786  17.965  1.00  0.00    -0.014 C
HETATM   14  C11 UNL     1      -3.394  14.136  17.482  1.00  0.00     0.004 C
HETATM   15  C12 UNL     1      -3.271  15.604  17.029  1.00  0.00     0.000 C
HETATM   16  C13 UNL     1      -2.312  16.119  18.091  1.00  0.00     0.000 C
HETATM   17  C14 UNL     1      -1.255  15.055  18.068  1.00  0.00     0.004 C
ENDBRANCH  12  13
ENDBRANCH  11  12
ENDBRANCH  10  11
ENDBRANCH   1  10
TORSDOF 9
ENDMDL