MODEL 4
REMARK VINA RESULT: -5.501763847      1.286      1.525
REMARK  5 active torsions:
REMARK  status: ('A' for Active; 'I' for Inactive)
REMARK    1  A    between atoms: C2_2  and  O1_4
REMARK    2  A    between atoms: O1_4  and  C4_5
REMARK    3  A    between atoms: C4_5  and  C5_7
REMARK    4  A    between atoms: C5_7  and  O3_8
REMARK    5  A    between atoms: O3_8  and  C6_9
ROOT
HETATM    1  C5  UNL     1      -3.387  11.741  18.789  1.00  0.00     0.286 C
ENDROOT
BRANCH   1   2
HETATM    2  C4  UNL     1      -2.395  11.226  19.793  1.00  0.00     0.283 C
HETATM    3  O2  UNL     1      -1.946  11.968  20.704  1.00  0.00    -0.263 OA
BRANCH   2   4
HETATM    4  O1  UNL     1      -1.937   9.918  19.758  1.00  0.00    -0.315 OA
BRANCH   4   5
HETATM    5  C2  UNL     1      -2.788   8.904  19.255  1.00  0.00     0.123 C
HETATM    6  C1  UNL     1      -2.099   8.370  17.993  1.00  0.00     0.040 C
HETATM    7  C3  UNL     1      -3.024   7.789  20.211  1.00  0.00     0.040 C
ENDBRANCH   4   5
ENDBRANCH   2   4
ENDBRANCH   1   2
BRANCH   1   8
HETATM    8  O3  UNL     1      -2.667  12.492  17.830  1.00  0.00    -0.342 OA
BRANCH   8   9
HETATM    9  C6  UNL     1      -2.788  13.866  17.866  1.00  0.00     0.069 A
HETATM   10  C7  UNL     1      -3.847  14.411  17.308  1.00  0.00     0.036 A
HETATM   11  C8  UNL     1      -4.014  15.868  17.323  1.00  0.00     0.204 A
HETATM   12  O4  UNL     1      -3.020  16.599  17.941  1.00  0.00    -0.359 OA
HETATM   13  C9  UNL     1      -1.921  15.999  18.518  1.00  0.00     0.137 A
HETATM   14  C10 UNL     1      -1.781  14.700  18.499  1.00  0.00     0.060 A
ENDBRANCH   8   9
ENDBRANCH   1   8
TORSDOF 5
ENDMDL