MODEL 2
REMARK VINA RESULT: -6.382163383      1.090      2.429
REMARK  7 active torsions:
REMARK  status: ('A' for Active; 'I' for Inactive)
REMARK    1  A    between atoms: C2_2  and  C3_3
REMARK    2  A    between atoms: C3_3  and  C4_4
REMARK    3  A    between atoms: C4_4  and  O1_5
REMARK    4  A    between atoms: C4_4  and  C5_7
REMARK    5  A    between atoms: C5_7  and  O2_8
REMARK    6  A    between atoms: O2_8  and  C6_9
REMARK    7  A    between atoms: C6_9  and  C7_10
ROOT
HETATM    1  C6  UNL     1      -3.869  12.566  17.156  1.00  0.00     0.206 C
ENDROOT
BRANCH   1   2
HETATM    2  O2  UNL     1      -4.018  11.919  18.348  1.00  0.00    -0.384 OA
BRANCH   2   3
HETATM    3  C5  UNL     1      -3.599  10.633  18.338  1.00  0.00     0.199 C
BRANCH   3   4
HETATM    4  C4  UNL     1      -2.338  10.389  19.151  1.00  0.00     0.142 C
BRANCH   4   5
HETATM    5  C3  UNL     1      -2.331   8.969  19.668  1.00  0.00     0.033 C
BRANCH   5   6
HETATM    6  C2  UNL     1      -1.987   7.990  18.613  1.00  0.00    -0.002 C
HETATM    7  C1  UNL     1      -1.220   6.843  19.164  1.00  0.00     0.005 C
ENDBRANCH   5   6
ENDBRANCH   4   5
BRANCH   4   8
HETATM    8  O1  UNL     1      -2.293  11.340  20.192  1.00  0.00    -0.393 OA
ATOM      9  H1  UNL     1      -3.070  11.317  20.738  1.00  0.00     0.210 HD
ENDBRANCH   4   8
ENDBRANCH   3   4
ENDBRANCH   2   3
ENDBRANCH   1   2
BRANCH   1  10
HETATM   10  C7  UNL     1      -3.521  13.989  17.415  1.00  0.00    -0.034 A
HETATM   11  C8  UNL     1      -2.397  14.325  18.122  1.00  0.00     0.016 A
HETATM   12  C9  UNL     1      -2.098  15.657  18.349  1.00  0.00    -0.061 A
HETATM   13  C10 UNL     1      -0.869  15.980  19.121  1.00  0.00     0.048 C
HETATM   14  C11 UNL     1      -2.948  16.636  17.852  1.00  0.00     0.013 A
HETATM   15  C12 UNL     1      -4.081  16.314  17.139  1.00  0.00    -0.061 A
HETATM   16  C13 UNL     1      -5.015  17.333  16.591  1.00  0.00     0.048 C
HETATM   17  C14 UNL     1      -4.371  14.985  16.919  1.00  0.00     0.016 A
ENDBRANCH   1  10
TORSDOF 7
ENDMDL