MODEL 1
REMARK VINA RESULT: -6.699138293      0.000      0.000
REMARK  9 active torsions:
REMARK  status: ('A' for Active; 'I' for Inactive)
REMARK    1  A    between atoms: C2_2  and  C3_3
REMARK    2  A    between atoms: C3_3  and  C4_4
REMARK    3  A    between atoms: C4_4  and  C5_5
REMARK    4  A    between atoms: C5_5  and  C6_6
REMARK    5  A    between atoms: C6_6  and  C7_7
REMARK    6  A    between atoms: C7_7  and  C8_8
REMARK    7  A    between atoms: C8_8  and  O1_9
REMARK    8  A    between atoms: O1_9  and  C9_10
REMARK    9  A    between atoms: C14_15  and  O2_16
ROOT
HETATM    1  O1  UNL     1      -1.812  12.744  18.411  1.00  0.00    -0.348 OA
ENDROOT
BRANCH   1   2
HETATM    2  C8  UNL     1      -1.759  12.068  19.604  1.00  0.00     0.176 C
BRANCH   2   3
HETATM    3  C7  UNL     1      -2.563  10.794  19.546  1.00  0.00     0.027 C
BRANCH   3   4
HETATM    4  C6  UNL     1      -2.217  10.154  18.200  1.00  0.00     0.002 C
BRANCH   4   5
HETATM    5  C5  UNL     1      -2.213   8.636  18.324  1.00  0.00     0.000 C
BRANCH   5   6
HETATM    6  C4  UNL     1      -2.672   8.340  19.755  1.00  0.00     0.000 C
BRANCH   6   7
HETATM    7  C3  UNL     1      -2.126   6.978  20.111  1.00  0.00    -0.000 C
BRANCH   7   8
HETATM    8  C2  UNL     1      -0.878   6.731  19.264  1.00  0.00    -0.005 C
HETATM    9  C1  UNL     1      -0.084   5.645  19.961  1.00  0.00     0.005 C
ENDBRANCH   7   8
ENDBRANCH   6   7
ENDBRANCH   5   6
ENDBRANCH   4   5
ENDBRANCH   3   4
ENDBRANCH   2   3
ENDBRANCH   1   2
BRANCH   1  10
HETATM   10  C9  UNL     1      -2.275  14.010  18.181  1.00  0.00     0.101 A
HETATM   11  C10 UNL     1      -1.679  15.185  18.576  1.00  0.00     0.039 A
HETATM   12  C11 UNL     1      -2.230  16.444  18.301  1.00  0.00     0.003 A
HETATM   13  C12 UNL     1      -3.412  16.568  17.611  1.00  0.00     0.003 A
HETATM   14  C13 UNL     1      -4.022  15.404  17.207  1.00  0.00     0.039 A
HETATM   15  C14 UNL     1      -3.489  14.170  17.473  1.00  0.00     0.099 A
BRANCH  15  16
HETATM   16  O2  UNL     1      -4.105  12.987  17.064  1.00  0.00    -0.358 OA
ATOM     17  H2  UNL     1      -4.378  12.962  16.154  1.00  0.00     0.217 HD
ENDBRANCH  15  16
ENDBRANCH   1  10
TORSDOF 9
ENDMDL