MODEL 1
REMARK VINA RESULT: -7.166402561      0.000      0.000
REMARK  9 active torsions:
REMARK  status: ('A' for Active; 'I' for Inactive)
REMARK    1  A    between atoms: C2_2  and  C3_3
REMARK    2  A    between atoms: C3_3  and  C4_4
REMARK    3  A    between atoms: C4_4  and  O1_5
REMARK    4  A    between atoms: O1_5  and  C5_6
REMARK    5  A    between atoms: C5_6  and  C6_7
REMARK    6  A    between atoms: C10_11  and  C11_12
REMARK    7  A    between atoms: C11_12  and  C12_13
REMARK    8  A    between atoms: C12_13  and  C13_14
REMARK    9  A    between atoms: C13_14  and  O2_15
ROOT
HETATM    1  C6  UNL     1      -2.975  13.626  18.156  1.00  0.00    -0.034 A
HETATM    2  C7  UNL     1      -1.831  14.170  18.706  1.00  0.00     0.009 A
HETATM    3  C8  UNL     1      -1.588  15.545  18.645  1.00  0.00     0.001 A
HETATM    4  C9  UNL     1      -2.469  16.397  18.044  1.00  0.00     0.007 A
HETATM    5  C10 UNL     1      -3.617  15.869  17.490  1.00  0.00    -0.058 A
HETATM    6  C14 UNL     1      -3.848  14.509  17.556  1.00  0.00     0.016 A
ENDROOT
BRANCH   1   7
HETATM    7  C5  UNL     1      -3.228  12.165  18.224  1.00  0.00     0.206 C
BRANCH   7   8
HETATM    8  O1  UNL     1      -3.079  11.648  19.495  1.00  0.00    -0.387 OA
BRANCH   8   9
HETATM    9  C4  UNL     1      -2.329  10.486  19.396  1.00  0.00     0.168 C
BRANCH   9  10
HETATM   10  C3  UNL     1      -2.418   9.898  17.980  1.00  0.00     0.026 C
BRANCH  10  11
HETATM   11  C2  UNL     1      -2.076   8.442  17.975  1.00  0.00    -0.002 C
HETATM   12  C1  UNL     1      -1.934   7.869  19.361  1.00  0.00     0.005 C
ENDBRANCH  10  11
ENDBRANCH   9  10
ENDBRANCH   8   9
ENDBRANCH   7   8
ENDBRANCH   1   7
BRANCH   5  13
HETATM   13  C11 UNL     1      -4.578  16.783  16.837  1.00  0.00     0.041 C
BRANCH  13  14
HETATM   14  C12 UNL     1      -4.074  18.202  16.726  1.00  0.00     0.030 C
BRANCH  14  15
HETATM   15  C13 UNL     1      -3.740  18.599  15.316  1.00  0.00     0.164 C
BRANCH  15  16
HETATM   16  O2  UNL     1      -4.079  19.961  15.150  1.00  0.00    -0.401 OA
ATOM     17  H2  UNL     1      -4.760  20.019  14.490  1.00  0.00     0.209 HD
ENDBRANCH  15  16
ENDBRANCH  14  15
ENDBRANCH  13  14
ENDBRANCH   5  13
TORSDOF 9
ENDMDL