MODEL 1
REMARK VINA RESULT: -5.327729120      0.000      0.000
REMARK  5 active torsions:
REMARK  status: ('A' for Active; 'I' for Inactive)
REMARK    1  A    between atoms: C2_2  and  C3_3
REMARK    2  A    between atoms: C3_3  and  C6_6
REMARK    3  A    between atoms: C6_6  and  C7_7
REMARK    4  A    between atoms: C7_7  and  C8_8
REMARK    5  A    between atoms: C8_8  and  O2_10
ROOT
HETATM    1  C7  UNL     1      -2.733   7.760  18.534  1.00  0.00     0.052 C
HETATM    2  C10 UNL     1      -2.578   6.664  17.535  1.00  0.00     0.020 C
HETATM    3  C11 UNL     1      -3.710   5.678  17.492  1.00  0.00     0.001 C
HETATM    4  C12 UNL     1      -4.188   5.386  18.912  1.00  0.00     0.000 C
HETATM    5  C13 UNL     1      -4.711   6.634  19.520  1.00  0.00     0.001 C
HETATM    6  C14 UNL     1      -4.118   7.923  19.031  1.00  0.00     0.020 C
ENDROOT
BRANCH   1   7
HETATM    7  C6  UNL     1      -2.083   9.041  18.100  1.00  0.00     0.058 C
BRANCH   7   8
HETATM    8  C3  UNL     1      -2.717  10.300  18.364  1.00  0.00    -0.062 C
HETATM    9  C4  UNL     1      -3.542  10.964  17.626  1.00  0.00    -0.024 C
HETATM   10  C5  UNL     1      -4.107  12.254  18.103  1.00  0.00     0.036 C
BRANCH   8  11
HETATM   11  C2  UNL     1      -2.388  10.914  19.690  1.00  0.00    -0.004 C
HETATM   12  C1  UNL     1      -1.295  11.609  19.888  1.00  0.00     0.012 C
ENDBRANCH   8  11
ENDBRANCH   7   8
ENDBRANCH   1   7
BRANCH   1  13
HETATM   13  C8  UNL     1      -1.903   7.335  19.735  1.00  0.00     0.267 C
HETATM   14  O1  UNL     1      -2.263   7.593  20.878  1.00  0.00    -0.264 OA
BRANCH  13  15
HETATM   15  O2  UNL     1      -0.736   6.652  19.477  1.00  0.00    -0.326 OA
HETATM   16  C9  UNL     1      -0.381   5.448  20.131  1.00  0.00     0.213 C
ENDBRANCH  13  15
ENDBRANCH   1  13
TORSDOF 5
ENDMDL