MODEL 4
REMARK VINA RESULT: -6.732547917      1.014      1.014
REMARK  8 active torsions:
REMARK  status: ('A' for Active; 'I' for Inactive)
REMARK    1  A    between atoms: C2_2  and  C3_3
REMARK    2  A    between atoms: C2_2  and  C5_7
REMARK    3  A    between atoms: C3_3  and  C4_4
REMARK    4  A    between atoms: C4_4  and  O1_5
REMARK    5  A    between atoms: C5_7  and  C6_8
REMARK    6  A    between atoms: C6_8  and  C7_9
REMARK    7  A    between atoms: C7_9  and  O2_10
REMARK    8  A    between atoms: O2_10  and  C8_11
ROOT
HETATM    1  C6  UNL     1      -2.302   9.817  18.045  1.00  0.00     0.031 C
ENDROOT
BRANCH   1   2
HETATM    2  C5  UNL     1      -2.266   8.962  19.303  1.00  0.00     0.035 C
BRANCH   2   3
HETATM    3  C2  UNL     1      -2.006   7.532  19.021  1.00  0.00    -0.087 C
HETATM    4  C1  UNL     1      -2.629   6.954  17.994  1.00  0.00     0.014 C
BRANCH   3   5
HETATM    5  C3  UNL     1      -1.069   6.729  19.828  1.00  0.00     0.059 C
BRANCH   5   6
HETATM    6  C4  UNL     1      -1.579   5.395  20.262  1.00  0.00     0.168 C
BRANCH   6   7
HETATM    7  O1  UNL     1      -2.440   5.514  21.320  1.00  0.00    -0.401 OA
ATOM      8  H1  UNL     1      -2.948   4.721  21.441  1.00  0.00     0.209 HD
ENDBRANCH   6   7
ENDBRANCH   5   6
ENDBRANCH   3   5
ENDBRANCH   2   3
ENDBRANCH   1   2
BRANCH   1   9
HETATM    9  C7  UNL     1      -2.002  11.240  18.410  1.00  0.00     0.176 C
BRANCH   9  10
HETATM   10  O2  UNL     1      -3.004  12.149  18.139  1.00  0.00    -0.351 OA
BRANCH  10  11
HETATM   11  C8  UNL     1      -2.953  13.516  18.057  1.00  0.00     0.068 A
HETATM   12  C9  UNL     1      -3.895  14.318  17.461  1.00  0.00     0.037 A
HETATM   13  C10 UNL     1      -3.761  15.710  17.429  1.00  0.00     0.003 A
HETATM   14  C11 UNL     1      -2.680  16.344  17.993  1.00  0.00     0.000 A
HETATM   15  C12 UNL     1      -1.729  15.552  18.591  1.00  0.00     0.003 A
HETATM   16  C13 UNL     1      -1.852  14.192  18.628  1.00  0.00     0.037 A
ENDBRANCH  10  11
ENDBRANCH   9  10
ENDBRANCH   1   9
TORSDOF 8
ENDMDL