MODEL 4
REMARK VINA RESULT: -6.987103796      1.830      7.300
REMARK  7 active torsions:
REMARK  status: ('A' for Active; 'I' for Inactive)
REMARK    1  A    between atoms: C2_2  and  C3_3
REMARK    2  A    between atoms: C3_3  and  C4_4
REMARK    3  A    between atoms: C4_4  and  O1_5
REMARK    4  A    between atoms: O1_5  and  C5_6
REMARK    5  A    between atoms: C8_9  and  C9_10
REMARK    6  A    between atoms: C9_10  and  C11_12
REMARK    7  A    between atoms: C11_12  and  O2_14
ROOT
HETATM    1  C5  UNL     1      -3.732  15.120  17.375  1.00  0.00     0.121 C
HETATM    2  C6  UNL     1      -3.623  13.746  16.749  1.00  0.00     0.032 C
HETATM    3  C7  UNL     1      -3.791  12.774  17.924  1.00  0.00     0.007 C
HETATM    4  C8  UNL     1      -2.643  12.974  18.882  1.00  0.00    -0.008 C
HETATM    5  C13 UNL     1      -1.797  14.152  18.598  1.00  0.00     0.007 C
HETATM    6  C14 UNL     1      -2.469  15.382  18.113  1.00  0.00     0.032 C
ENDROOT
BRANCH   4   7
HETATM    7  C9  UNL     1      -1.834  11.699  18.838  1.00  0.00     0.014 C
HETATM    8  C10 UNL     1      -0.830  11.615  19.965  1.00  0.00     0.013 C
BRANCH   7   9
HETATM    9  C11 UNL     1      -2.643  10.452  18.711  1.00  0.00     0.118 C
HETATM   10  C12 UNL     1      -2.003   9.624  17.586  1.00  0.00     0.040 C
BRANCH   9  11
HETATM   11  O2  UNL     1      -2.537   9.629  19.843  1.00  0.00    -0.396 OA
ATOM     12  H2  UNL     1      -3.329   9.634  20.368  1.00  0.00     0.210 HD
ENDBRANCH   9  11
ENDBRANCH   7   9
ENDBRANCH   4   7
BRANCH   1  13
HETATM   13  O1  UNL     1      -4.061  16.095  16.452  1.00  0.00    -0.386 OA
BRANCH  13  14
HETATM   14  C4  UNL     1      -4.935  17.052  16.948  1.00  0.00     0.168 C
BRANCH  14  15
HETATM   15  C3  UNL     1      -4.108  18.332  17.128  1.00  0.00     0.026 C
BRANCH  15  16
HETATM   16  C2  UNL     1      -3.404  18.539  15.778  1.00  0.00    -0.002 C
HETATM   17  C1  UNL     1      -4.082  19.648  15.051  1.00  0.00     0.005 C
ENDBRANCH  15  16
ENDBRANCH  14  15
ENDBRANCH  13  14
ENDBRANCH   1  13
TORSDOF 7
ENDMDL