MODEL 4
REMARK VINA RESULT: -7.379283748      2.427      7.308
REMARK  5 active torsions:
REMARK  status: ('A' for Active; 'I' for Inactive)
REMARK    1  A    between atoms: C3_3  and  C4_4
REMARK    2  A    between atoms: C4_4  and  C5_5
REMARK    3  A    between atoms: C8_8  and  C9_9
REMARK    4  A    between atoms: C9_9  and  O2_11
REMARK    5  A    between atoms: O2_11  and  C10_12
ROOT
HETATM    1  C5  UNL     1      -2.734  10.465  18.271  1.00  0.00    -0.011 C
HETATM    2  C6  UNL     1      -3.914  11.254  17.878  1.00  0.00     0.006 C
HETATM    3  C7  UNL     1      -3.774  12.738  17.952  1.00  0.00     0.015 C
HETATM    4  C8  UNL     1      -2.346  13.191  18.184  1.00  0.00     0.085 C
HETATM    5  C13 UNL     1      -1.941  12.531  19.484  1.00  0.00     0.015 C
HETATM    6  C14 UNL     1      -1.818  11.072  19.274  1.00  0.00     0.006 C
ENDROOT
BRANCH   4   7
HETATM    7  C9  UNL     1      -2.360  14.664  18.290  1.00  0.00     0.263 C
HETATM    8  O1  UNL     1      -1.332  15.255  18.681  1.00  0.00    -0.265 OA
BRANCH   7   9
HETATM    9  O2  UNL     1      -3.495  15.352  17.956  1.00  0.00    -0.317 OA
BRANCH   9  10
HETATM   10  C10 UNL     1      -3.513  16.460  17.070  1.00  0.00     0.123 C
HETATM   11  C11 UNL     1      -3.177  17.691  17.885  1.00  0.00     0.040 C
HETATM   12  C12 UNL     1      -4.910  16.538  16.486  1.00  0.00     0.040 C
ENDBRANCH   9  10
ENDBRANCH   7   9
ENDBRANCH   4   7
BRANCH   1  13
HETATM   13  C4  UNL     1      -3.088   9.067  18.770  1.00  0.00     0.031 C
BRANCH  13  14
HETATM   14  C3  UNL     1      -1.981   8.105  18.637  1.00  0.00    -0.031 C
HETATM   15  C2  UNL     1      -1.575   7.313  19.634  1.00  0.00    -0.035 C
HETATM   16  C1  UNL     1      -0.454   6.370  19.429  1.00  0.00     0.036 C
ENDBRANCH  13  14
ENDBRANCH   1  13
TORSDOF 5
ENDMDL