MODEL 4
REMARK VINA RESULT: -6.436452628      0.906      2.293
REMARK  7 active torsions:
REMARK  status: ('A' for Active; 'I' for Inactive)
REMARK    1  A    between atoms: C2_2  and  C3_3
REMARK    2  A    between atoms: C3_3  and  C4_4
REMARK    3  A    between atoms: C4_4  and  C5_5
REMARK    4  A    between atoms: C5_5  and  O1_6
REMARK    5  A    between atoms: C5_5  and  C6_8
REMARK    6  A    between atoms: C6_8  and  O2_9
REMARK    7  A    between atoms: O2_9  and  C7_10
ROOT
HETATM    1  O2  UNL     1      -2.766   9.668  19.786  1.00  0.00    -0.349 OA
ENDROOT
BRANCH   1   2
HETATM    2  C6  UNL     1      -1.998  10.767  19.477  1.00  0.00     0.207 C
BRANCH   2   3
HETATM    3  C5  UNL     1      -2.590  11.567  18.358  1.00  0.00     0.142 C
BRANCH   3   4
HETATM    4  C4  UNL     1      -2.407  13.046  18.452  1.00  0.00     0.037 C
BRANCH   4   5
HETATM    5  C3  UNL     1      -3.475  13.801  17.735  1.00  0.00     0.029 C
BRANCH   5   6
HETATM    6  C2  UNL     1      -3.165  15.275  17.840  1.00  0.00    -0.037 C
HETATM    7  C1  UNL     1      -2.060  15.664  18.407  1.00  0.00     0.007 C
ENDBRANCH   5   6
ENDBRANCH   4   5
ENDBRANCH   3   4
BRANCH   3   8
HETATM    8  O1  UNL     1      -3.999  11.288  18.379  1.00  0.00    -0.393 OA
ATOM      9  H1  UNL     1      -4.454  12.039  18.015  1.00  0.00     0.210 HD
ENDBRANCH   3   8
ENDBRANCH   2   3
ENDBRANCH   1   2
BRANCH   1  10
HETATM   10  C7  UNL     1      -2.472   8.352  19.510  1.00  0.00     0.069 A
HETATM   11  C8  UNL     1      -3.399   7.630  18.790  1.00  0.00     0.043 A
HETATM   12  C9  UNL     1      -3.215   6.304  18.455  1.00  0.00    -0.059 A
HETATM   13  C10 UNL     1      -4.257   5.566  17.669  1.00  0.00     0.048 C
HETATM   14  C11 UNL     1      -2.045   5.696  18.866  1.00  0.00     0.013 A
HETATM   15  C12 UNL     1      -1.083   6.371  19.588  1.00  0.00    -0.059 A
HETATM   16  C13 UNL     1       0.157   5.666  20.005  1.00  0.00     0.048 C
HETATM   17  C14 UNL     1      -1.321   7.704  19.899  1.00  0.00     0.043 A
ENDBRANCH   1  10
TORSDOF 7
ENDMDL