MODEL 2
REMARK VINA RESULT: -5.780046672      1.422      2.054
REMARK  6 active torsions:
REMARK  status: ('A' for Active; 'I' for Inactive)
REMARK    1  A    between atoms: C2_2  and  C3_3
REMARK    2  A    between atoms: C3_3  and  O1_4
REMARK    3  A    between atoms: O1_4  and  C4_5
REMARK    4  A    between atoms: C4_5  and  C5_6
REMARK    5  A    between atoms: C5_6  and  O2_7
REMARK    6  A    between atoms: O2_7  and  C6_8
ROOT
HETATM    1  C6  UNL     1      -3.103  12.264  17.863  1.00  0.00     0.075 A
HETATM    2  C7  UNL     1      -3.778  12.709  16.749  1.00  0.00     0.044 A
HETATM    3  C8  UNL     1      -3.728  14.025  16.284  1.00  0.00    -0.059 A
HETATM    4  C9  UNL     1      -4.479  14.450  15.076  1.00  0.00     0.048 C
HETATM    5  C10 UNL     1      -2.947  14.897  17.007  1.00  0.00     0.014 A
HETATM    6  C11 UNL     1      -2.266  14.460  18.123  1.00  0.00    -0.053 A
HETATM    7  C12 UNL     1      -1.437  15.443  18.865  1.00  0.00     0.049 C
HETATM    8  C13 UNL     1      -2.308  13.177  18.587  1.00  0.00    -0.023 A
HETATM    9  C14 UNL     1      -1.575  12.713  19.786  1.00  0.00     0.052 C
ENDROOT
BRANCH   1  10
HETATM   10  O2  UNL     1      -3.149  10.991  18.314  1.00  0.00    -0.348 OA
BRANCH  10  11
HETATM   11  C5  UNL     1      -2.548   9.806  17.955  1.00  0.00     0.201 C
BRANCH  11  12
HETATM   12  C4  UNL     1      -2.452   8.873  19.121  1.00  0.00     0.194 C
BRANCH  12  13
HETATM   13  O1  UNL     1      -1.936   7.642  18.818  1.00  0.00    -0.389 OA
BRANCH  13  14
HETATM   14  C3  UNL     1      -1.333   6.947  19.821  1.00  0.00     0.167 C
BRANCH  14  15
HETATM   15  C2  UNL     1      -0.200   6.058  19.439  1.00  0.00     0.022 C
HETATM   16  C1  UNL     1       0.300   5.211  20.586  1.00  0.00     0.007 C
ENDBRANCH  14  15
ENDBRANCH  13  14
ENDBRANCH  12  13
ENDBRANCH  11  12
ENDBRANCH  10  11
ENDBRANCH   1  10
TORSDOF 6
ENDMDL