MODEL 4
REMARK VINA RESULT: -6.536922303      2.489      4.551
REMARK  7 active torsions:
REMARK  status: ('A' for Active; 'I' for Inactive)
REMARK    1  A    between atoms: C2_2  and  C3_3
REMARK    2  A    between atoms: C3_3  and  C4_4
REMARK    3  A    between atoms: C4_4  and  O1_6
REMARK    4  A    between atoms: O1_6  and  C6_7
REMARK    5  A    between atoms: C6_7  and  C7_8
REMARK    6  A    between atoms: C11_12  and  O2_13
REMARK    7  A    between atoms: C12_15  and  C13_16
ROOT
HETATM    1  C7  UNL     1      -3.744  12.366  18.823  1.00  0.00    -0.033 A
HETATM    2  C8  UNL     1      -2.503  12.650  19.350  1.00  0.00     0.019 A
HETATM    3  C9  UNL     1      -1.678  11.677  19.877  1.00  0.00    -0.028 A
HETATM    4  C10 UNL     1      -0.339  11.954  20.453  1.00  0.00     0.051 C
HETATM    5  C11 UNL     1      -2.136  10.371  19.865  1.00  0.00     0.078 A
HETATM    6  C12 UNL     1      -3.360  10.021  19.358  1.00  0.00    -0.021 A
HETATM    7  C16 UNL     1      -4.154  11.026  18.839  1.00  0.00     0.019 A
ENDROOT
BRANCH   1   8
HETATM    8  C6  UNL     1      -4.592  13.435  18.288  1.00  0.00     0.206 C
BRANCH   8   9
HETATM    9  O1  UNL     1      -3.997  14.401  17.542  1.00  0.00    -0.382 OA
BRANCH   9  10
HETATM   10  C4  UNL     1      -4.086  15.708  18.045  1.00  0.00     0.117 C
HETATM   11  C5  UNL     1      -2.720  16.079  18.511  1.00  0.00     0.039 C
BRANCH  10  12
HETATM   12  C3  UNL     1      -4.608  16.567  16.952  1.00  0.00     0.031 C
BRANCH  12  13
HETATM   13  C2  UNL     1      -4.941  17.977  17.210  1.00  0.00    -0.002 C
HETATM   14  C1  UNL     1      -4.355  18.943  16.264  1.00  0.00     0.005 C
ENDBRANCH  12  13
ENDBRANCH  10  12
ENDBRANCH   9  10
ENDBRANCH   8   9
ENDBRANCH   1   8
BRANCH   6  15
HETATM   15  C13 UNL     1      -3.868   8.659  19.352  1.00  0.00     0.013 C
HETATM   16  C14 UNL     1      -5.336   8.599  18.920  1.00  0.00     0.015 C
HETATM   17  C15 UNL     1      -3.761   7.939  20.666  1.00  0.00     0.015 C
ENDBRANCH   6  15
BRANCH   5  18
HETATM   18  O2  UNL     1      -1.338   9.391  20.379  1.00  0.00    -0.360 OA
ATOM     19  H2  UNL     1      -0.585   9.104  19.875  1.00  0.00     0.217 HD
ENDBRANCH   5  18
TORSDOF 7
ENDMDL