MODEL 4
REMARK VINA RESULT: -5.770961844      2.648      5.608
REMARK  8 active torsions:
REMARK  status: ('A' for Active; 'I' for Inactive)
REMARK    1  A    between atoms: C2_2  and  C4_4
REMARK    2  A    between atoms: C4_4  and  C5_5
REMARK    3  A    between atoms: C5_5  and  C6_6
REMARK    4  A    between atoms: C5_5  and  C12_15
REMARK    5  A    between atoms: C6_6  and  C7_7
REMARK    6  A    between atoms: C10_10  and  C11_11
REMARK    7  A    between atoms: C11_11  and  O1_12
REMARK    8  A    between atoms: C12_15  and  C13_16
ROOT
HETATM    1  C5  UNL     1      -2.801   8.483  20.151  1.00  0.00    -0.007 C
ENDROOT
BRANCH   1   2
HETATM    2  C4  UNL     1      -2.925   9.993  20.332  1.00  0.00     0.009 C
BRANCH   2   3
HETATM    3  C2  UNL     1      -2.042  10.791  19.426  1.00  0.00    -0.022 C
HETATM    4  C1  UNL     1      -1.275  11.756  20.326  1.00  0.00     0.009 C
HETATM    5  C3  UNL     1      -2.765  11.613  18.416  1.00  0.00     0.009 C
ENDBRANCH   2   3
ENDBRANCH   1   2
BRANCH   1   6
HETATM    6  C6  UNL     1      -1.342   8.207  20.134  1.00  0.00     0.069 C
BRANCH   6   7
HETATM    7  C7  UNL     1      -0.968   6.770  19.978  1.00  0.00     0.053 A
HETATM    8  C8  UNL     1      -0.188   6.118  19.079  1.00  0.00     0.035 A
HETATM    9  C9  UNL     1      -0.182   4.776  19.399  1.00  0.00     0.037 A
HETATM   10  C10 UNL     1      -0.993   4.698  20.520  1.00  0.00     0.076 A
HETATM   11  O2  UNL     1      -1.433   5.878  20.830  1.00  0.00    -0.317 OA
BRANCH  10  12
HETATM   12  C11 UNL     1      -1.296   3.427  21.242  1.00  0.00     0.229 C
BRANCH  12  13
HETATM   13  O1  UNL     1      -2.399   3.584  22.082  1.00  0.00    -0.394 OA
ATOM     14  H1  UNL     1      -2.212   3.250  22.951  1.00  0.00     0.209 HD
ENDBRANCH  12  13
ENDBRANCH  10  12
ENDBRANCH   6   7
ENDBRANCH   1   6
BRANCH   1  15
HETATM   15  C12 UNL     1      -3.537   8.026  18.970  1.00  0.00     0.013 C
BRANCH  15  16
HETATM   16  C13 UNL     1      -4.429   6.863  18.964  1.00  0.00    -0.051 C
HETATM   17  C14 UNL     1      -3.881   5.816  17.920  1.00  0.00     0.014 C
HETATM   18  C15 UNL     1      -4.532   6.034  20.218  1.00  0.00     0.014 C
HETATM   19  C16 UNL     1      -5.834   7.145  18.492  1.00  0.00     0.014 C
ENDBRANCH  15  16
ENDBRANCH   1  15
TORSDOF 8
ENDMDL