MODEL 3
REMARK VINA RESULT: -6.237885070      0.972      1.228
REMARK  9 active torsions:
REMARK  status: ('A' for Active; 'I' for Inactive)
REMARK    1  A    between atoms: C2_2  and  C3_3
REMARK    2  A    between atoms: C3_3  and  C4_4
REMARK    3  A    between atoms: C4_4  and  C5_5
REMARK    4  A    between atoms: C5_5  and  C6_6
REMARK    5  A    between atoms: C10_10  and  O1_11
REMARK    6  A    between atoms: O1_11  and  C11_12
REMARK    7  A    between atoms: C14_15  and  C15_16
REMARK    8  A    between atoms: C15_16  and  C16_17
REMARK    9  A    between atoms: C16_17  and  O2_18
ROOT
HETATM    1  C6  UNL     1      -2.274   7.956  20.009  1.00  0.00    -0.051 A
HETATM    2  C7  UNL     1      -1.514   9.124  20.161  1.00  0.00     0.017 A
HETATM    3  C8  UNL     1      -1.997  10.388  19.947  1.00  0.00    -0.028 A
HETATM    4  C9  UNL     1      -1.120  11.576  20.132  1.00  0.00     0.051 C
HETATM    5  C10 UNL     1      -3.308  10.508  19.562  1.00  0.00     0.075 A
HETATM    6  C13 UNL     1      -4.076   9.381  19.406  1.00  0.00     0.045 A
HETATM    7  C14 UNL     1      -3.579   8.096  19.622  1.00  0.00    -0.047 A
ENDROOT
BRANCH   1   8
HETATM    8  C5  UNL     1      -1.633   6.665  20.353  1.00  0.00     0.039 C
BRANCH   8   9
HETATM    9  C4  UNL     1      -0.297   6.480  19.685  1.00  0.00     0.005 C
BRANCH   9  10
HETATM   10  C3  UNL     1      -0.333   5.298  18.769  1.00  0.00    -0.000 C
BRANCH  10  11
HETATM   11  C2  UNL     1      -1.586   4.489  18.909  1.00  0.00    -0.005 C
HETATM   12  C1  UNL     1      -2.287   4.350  17.585  1.00  0.00     0.005 C
ENDBRANCH  10  11
ENDBRANCH   9  10
ENDBRANCH   8   9
ENDBRANCH   1   8
BRANCH   7  13
HETATM   13  C15 UNL     1      -4.418   6.912  19.366  1.00  0.00     0.065 C
BRANCH  13  14
HETATM   14  C16 UNL     1      -5.784   7.222  18.816  1.00  0.00     0.168 C
BRANCH  14  15
HETATM   15  O2  UNL     1      -6.746   7.093  19.842  1.00  0.00    -0.401 OA
ATOM     16  H2  UNL     1      -6.306   6.942  20.671  1.00  0.00     0.209 HD
ENDBRANCH  14  15
ENDBRANCH  13  14
ENDBRANCH   7  13
BRANCH   5  17
HETATM   17  O1  UNL     1      -3.862  11.729  19.332  1.00  0.00    -0.351 OA
BRANCH  17  18
HETATM   18  C11 UNL     1      -4.075  12.420  18.162  1.00  0.00     0.171 C
HETATM   19  C12 UNL     1      -3.842  13.886  18.190  1.00  0.00     0.034 C
ENDBRANCH  17  18
ENDBRANCH   5  17
TORSDOF 9
ENDMDL