MODEL 5
REMARK VINA RESULT: -6.396721110      2.575      8.188
REMARK  9 active torsions:
REMARK  status: ('A' for Active; 'I' for Inactive)
REMARK    1  A    between atoms: C2_2  and  C3_3
REMARK    2  A    between atoms: C3_3  and  C4_4
REMARK    3  A    between atoms: C4_4  and  C5_5
REMARK    4  A    between atoms: C5_5  and  C6_6
REMARK    5  A    between atoms: C6_6  and  C7_7
REMARK    6  A    between atoms: C7_7  and  C8_8
REMARK    7  A    between atoms: C10_10  and  C11_11
REMARK    8  A    between atoms: C11_11  and  O1_12
REMARK    9  A    between atoms: C15_17  and  O2_18
ROOT
HETATM    1  C8  UNL     1      -3.766  12.569  18.776  1.00  0.00    -0.024 A
HETATM    2  C9  UNL     1      -4.231  13.599  17.936  1.00  0.00     0.019 A
HETATM    3  C10 UNL     1      -3.662  14.845  17.887  1.00  0.00    -0.028 A
HETATM    4  C12 UNL     1      -2.586  15.148  18.672  1.00  0.00    -0.051 A
HETATM    5  C13 UNL     1      -1.943  16.482  18.647  1.00  0.00     0.049 C
HETATM    6  C14 UNL     1      -2.105  14.174  19.500  1.00  0.00     0.044 A
HETATM    7  C15 UNL     1      -2.691  12.894  19.549  1.00  0.00     0.075 A
ENDROOT
BRANCH   1   8
HETATM    8  C7  UNL     1      -4.485  11.278  18.775  1.00  0.00     0.041 C
BRANCH   8   9
HETATM    9  C6  UNL     1      -3.710  10.051  18.687  1.00  0.00     0.005 C
BRANCH   9  10
HETATM   10  C5  UNL     1      -3.998   8.810  19.383  1.00  0.00     0.001 C
BRANCH  10  11
HETATM   11  C4  UNL     1      -3.182   8.377  20.533  1.00  0.00     0.004 C
BRANCH  11  12
HETATM   12  C3  UNL     1      -1.691   8.261  20.164  1.00  0.00     0.026 C
BRANCH  12  13
HETATM   13  C2  UNL     1      -1.433   6.804  20.007  1.00  0.00    -0.037 C
HETATM   14  C1  UNL     1      -0.282   6.382  19.516  1.00  0.00     0.007 C
ENDBRANCH  12  13
ENDBRANCH  11  12
ENDBRANCH  10  11
ENDBRANCH   9  10
ENDBRANCH   8   9
ENDBRANCH   1   8
BRANCH   7  15
HETATM   15  O2  UNL     1      -2.147  11.957  20.406  1.00  0.00    -0.355 OA
HETATM   16  C16 UNL     1      -0.752  11.880  20.575  1.00  0.00     0.210 C
ENDBRANCH   7  15
BRANCH   3  17
HETATM   17  C11 UNL     1      -4.246  15.846  16.958  1.00  0.00     0.203 C
BRANCH  17  18
HETATM   18  O1  UNL     1      -5.087  16.734  17.606  1.00  0.00    -0.396 OA
ATOM     19  H1  UNL     1      -5.456  17.377  17.012  1.00  0.00     0.209 HD
ENDBRANCH  17  18
ENDBRANCH   3  17
TORSDOF 9
ENDMDL