MODEL 4
REMARK VINA RESULT: -5.372359961      2.008      7.650
REMARK  3 active torsions:
REMARK  status: ('A' for Active; 'I' for Inactive)
REMARK    1  A    between atoms: C2_7  and  C3_8
REMARK    2  A    between atoms: C3_8  and  N3_9
REMARK    3  A    between atoms: C12_22  and  O3_23
ROOT
HETATM    1  N1  UNL     1      -0.777  12.026  20.153  1.00  0.00    -0.384 N
ATOM      2  H11 UNL     1      -0.535  13.009  20.032  1.00  0.00     0.157 HD
ATOM      3  H12 UNL     1       0.027  11.616  20.628  1.00  0.00     0.157 HD
HETATM    4  C1  UNL     1      -1.779  11.412  19.830  1.00  0.00     0.129 A
HETATM    5  N2  UNL     1      -2.116  10.047  19.998  1.00  0.00    -0.329 N
ATOM      6  H2  UNL     1      -1.537   9.332  20.439  1.00  0.00     0.168 HD
HETATM    7  C2  UNL     1      -3.413   9.856  19.435  1.00  0.00     0.112 A
HETATM    8  N4  UNL     1      -3.881  10.949  18.955  1.00  0.00    -0.340 N
ATOM      9  H4  UNL     1      -4.791  11.049  18.505  1.00  0.00     0.167 HD
HETATM   10  C11 UNL     1      -2.941  12.005  19.144  1.00  0.00     0.099 A
HETATM   11  C12 UNL     1      -3.091  13.266  18.774  1.00  0.00     0.164 C
ENDROOT
BRANCH   7  12
HETATM   12  C3  UNL     1      -4.083   8.535  19.437  1.00  0.00     0.348 C
BRANCH  12  13
HETATM   13  N3  UNL     1      -3.135   7.451  19.651  1.00  0.00     0.098 N
HETATM   14  C4  UNL     1      -3.351   6.937  20.963  1.00  0.00     0.275 C
HETATM   15  C5  UNL     1      -2.632   5.671  21.284  1.00  0.00     0.065 C
HETATM   16  C6  UNL     1      -2.883   4.686  20.144  1.00  0.00     0.153 C
HETATM   17  O1  UNL     1      -2.240   3.486  20.344  1.00  0.00    -0.381 OA
HETATM   18  C9  UNL     1      -2.366   5.324  18.901  1.00  0.00     0.178 C
HETATM   19  C7  UNL     1      -2.623   2.649  19.295  1.00  0.00     0.194 C
HETATM   20  C8  UNL     1      -2.303   3.193  17.954  1.00  0.00     0.194 C
HETATM   21  O2  UNL     1      -2.145   4.527  17.842  1.00  0.00    -0.379 OA
HETATM   22  C10 UNL     1      -3.302   6.501  18.594  1.00  0.00     0.307 C
ENDBRANCH  12  13
ENDBRANCH   7  12
BRANCH  11  23
HETATM   23  O3  UNL     1      -4.265  13.634  18.136  1.00  0.00    -0.370 OA
ATOM     24  H3  UNL     1      -4.470  14.559  18.058  1.00  0.00     0.216 HD
ENDBRANCH  11  23
TORSDOF 3
ENDMDL