MODEL 3
REMARK VINA RESULT: -5.394760993      1.571      2.940
REMARK  6 active torsions:
REMARK  status: ('A' for Active; 'I' for Inactive)
REMARK    1  A    between atoms: C2_2  and  C3_3
REMARK    2  A    between atoms: C3_3  and  C4_4
REMARK    3  A    between atoms: C10_10  and  O1_11
REMARK    4  A    between atoms: C10_10  and  C11_13
REMARK    5  A    between atoms: C11_13  and  C12_14
REMARK    6  A    between atoms: C12_14  and  C13_15
ROOT
HETATM    1  C3  UNL     1      -1.973   3.949  20.844  1.00  0.00    -0.041 C
HETATM    2  C6  UNL     1      -0.547   3.996  20.343  1.00  0.00     0.009 C
HETATM    3  C7  UNL     1       0.114   5.316  20.245  1.00  0.00     0.001 C
HETATM    4  C8  UNL     1      -0.538   6.344  19.387  1.00  0.00     0.003 C
HETATM    5  C9  UNL     1      -1.233   7.420  20.169  1.00  0.00     0.038 C
HETATM    6  C10 UNL     1      -2.759   7.280  20.067  1.00  0.00     0.058 C
HETATM    7  C15 UNL     1      -3.287   6.145  20.864  1.00  0.00     0.038 C
HETATM    8  C16 UNL     1      -2.376   5.232  21.545  1.00  0.00     0.012 C
ENDROOT
BRANCH   6   9
HETATM    9  O1  UNL     1      -3.017   7.173  18.697  1.00  0.00    -0.390 OA
ATOM     10  H1  UNL     1      -3.753   7.754  18.542  1.00  0.00     0.210 HD
ENDBRANCH   6   9
BRANCH   6  11
HETATM   11  C11 UNL     1      -3.286   8.633  20.487  1.00  0.00     0.045 C
BRANCH  11  12
HETATM   12  C12 UNL     1      -3.512   9.621  19.404  1.00  0.00     0.081 C
BRANCH  12  13
HETATM   13  C13 UNL     1      -2.824  10.892  19.809  1.00  0.00     0.123 C
HETATM   14  C14 UNL     1      -1.351  11.035  19.793  1.00  0.00     0.091 C
HETATM   15  O2  UNL     1      -3.553  11.825  20.161  1.00  0.00    -0.298 OA
ENDBRANCH  12  13
ENDBRANCH  11  12
ENDBRANCH   6  11
BRANCH   1  16
HETATM   16  C2  UNL     1      -2.940   3.515  19.814  1.00  0.00     0.005 C
HETATM   17  C1  UNL     1      -2.523   3.360  18.402  1.00  0.00     0.006 C
ENDBRANCH   1  16
BRANCH   1  18
HETATM   18  C4  UNL     1      -1.937   2.909  21.939  1.00  0.00     0.005 C
HETATM   19  C5  UNL     1      -3.187   2.258  22.345  1.00  0.00     0.006 C
ENDBRANCH   1  18
TORSDOF 6
ENDMDL