MODEL 5
REMARK VINA RESULT: -6.791757537      2.043      8.504
REMARK  9 active torsions:
REMARK  status: ('A' for Active; 'I' for Inactive)
REMARK    1  A    between atoms: C2_2  and  C3_3
REMARK    2  A    between atoms: C5_5  and  C6_6
REMARK    3  A    between atoms: C6_6  and  C7_7
REMARK    4  A    between atoms: C7_7  and  C8_8
REMARK    5  A    between atoms: C8_8  and  O1_9
REMARK    6  A    between atoms: C8_8  and  C9_11
REMARK    7  A    between atoms: C9_11  and  C10_12
REMARK    8  A    between atoms: C10_12  and  C11_13
REMARK    9  A    between atoms: C11_13  and  O2_14
ROOT
HETATM    1  C6  UNL     1      -1.545  11.343  19.870  1.00  0.00     0.041 C
ENDROOT
BRANCH   1   2
HETATM    2  C5  UNL     1      -2.067   9.981  19.859  1.00  0.00    -0.057 A
HETATM    3  C4  UNL     1      -1.222   8.901  20.033  1.00  0.00     0.019 A
HETATM    4  C3  UNL     1      -1.708   7.611  20.043  1.00  0.00    -0.031 A
HETATM    5  C15 UNL     1      -3.067   7.394  19.876  1.00  0.00    -0.052 A
HETATM    6  C14 UNL     1      -3.933   8.459  19.700  1.00  0.00     0.008 A
HETATM    7  C16 UNL     1      -3.577   5.986  19.890  1.00  0.00     0.049 C
HETATM    8  C13 UNL     1      -3.414   9.759  19.694  1.00  0.00     0.007 A
BRANCH   4   9
HETATM    9  C2  UNL     1      -0.824   6.453  20.228  1.00  0.00     0.002 C
HETATM   10  C1  UNL     1       0.086   6.073  19.369  1.00  0.00     0.012 C
ENDBRANCH   4   9
ENDBRANCH   1   2
BRANCH   1  11
HETATM   11  C7  UNL     1      -2.513  12.452  19.944  1.00  0.00     0.036 C
BRANCH  11  12
HETATM   12  C8  UNL     1      -2.809  13.213  18.713  1.00  0.00     0.118 C
BRANCH  12  13
HETATM   13  O1  UNL     1      -4.061  13.083  18.179  1.00  0.00    -0.396 OA
ATOM     14  H1  UNL     1      -4.753  13.616  18.554  1.00  0.00     0.210 HD
ENDBRANCH  12  13
BRANCH  12  15
HETATM   15  C9  UNL     1      -2.480  14.687  18.811  1.00  0.00     0.034 C
BRANCH  15  16
HETATM   16  C10 UNL     1      -3.601  15.425  18.089  1.00  0.00     0.029 C
BRANCH  16  17
HETATM   17  C11 UNL     1      -3.344  16.886  17.982  1.00  0.00     0.167 C
BRANCH  17  18
HETATM   18  O2  UNL     1      -4.470  17.650  17.865  1.00  0.00    -0.396 OA
HETATM   19  C12 UNL     1      -4.371  18.485  16.768  1.00  0.00     0.201 C
ENDBRANCH  17  18
ENDBRANCH  16  17
ENDBRANCH  15  16
ENDBRANCH  12  15
ENDBRANCH  11  12
ENDBRANCH   1  11
TORSDOF 9
ENDMDL