MODEL 5
REMARK VINA RESULT: -5.587799723      1.380      3.471
REMARK  7 active torsions:
REMARK  status: ('A' for Active; 'I' for Inactive)
REMARK    1  A    between atoms: C2_2  and  C3_3
REMARK    2  A    between atoms: C3_3  and  C4_4
REMARK    3  A    between atoms: C4_4  and  C5_5
REMARK    4  A    between atoms: C5_5  and  C6_6
REMARK    5  A    between atoms: C6_6  and  C7_8
REMARK    6  A    between atoms: C12_14  and  C13_15
REMARK    7  A    between atoms: C13_15  and  C14_16
ROOT
HETATM    1  C7  UNL     1      -3.531   5.970  19.235  1.00  0.00     0.048 A
HETATM    2  C8  UNL     1      -4.661   6.068  18.400  1.00  0.00     0.064 A
HETATM    3  C9  UNL     1      -5.902   6.878  18.681  1.00  0.00     0.077 C
HETATM    4  O2  UNL     1      -4.401   5.330  17.369  1.00  0.00    -0.319 OA
HETATM    5  C10 UNL     1      -3.240   4.762  17.429  1.00  0.00     0.056 A
HETATM    6  C11 UNL     1      -2.626   3.845  16.411  1.00  0.00     0.077 C
HETATM    7  C12 UNL     1      -2.627   5.157  18.645  1.00  0.00    -0.012 A
ENDROOT
BRANCH   1   8
HETATM    8  C6  UNL     1      -3.515   6.590  20.528  1.00  0.00     0.162 C
HETATM    9  O1  UNL     1      -3.578   5.765  21.530  1.00  0.00    -0.292 OA
BRANCH   8  10
HETATM   10  C5  UNL     1      -3.448   7.996  20.901  1.00  0.00     0.084 C
BRANCH  10  11
HETATM   11  C4  UNL     1      -2.289   8.699  20.184  1.00  0.00     0.008 C
BRANCH  11  12
HETATM   12  C3  UNL     1      -2.699  10.105  19.878  1.00  0.00     0.000 C
BRANCH  12  13
HETATM   13  C2  UNL     1      -1.552  11.063  19.798  1.00  0.00    -0.005 C
HETATM   14  C1  UNL     1      -1.969  12.505  19.737  1.00  0.00     0.005 C
ENDBRANCH  12  13
ENDBRANCH  11  12
ENDBRANCH  10  11
ENDBRANCH   8  10
ENDBRANCH   1   8
BRANCH   7  15
HETATM   15  C13 UNL     1      -1.262   4.726  19.000  1.00  0.00     0.046 C
BRANCH  15  16
HETATM   16  C14 UNL     1      -0.363   5.719  19.615  1.00  0.00    -0.018 C
HETATM   17  C15 UNL     1       0.385   5.311  20.835  1.00  0.00     0.010 C
HETATM   18  C16 UNL     1       0.711   6.162  18.589  1.00  0.00     0.010 C
ENDBRANCH  15  16
ENDBRANCH   7  15
TORSDOF 7
ENDMDL