MODEL 3
REMARK VINA RESULT: -5.770554707      1.827      3.640
REMARK  7 active torsions:
REMARK  status: ('A' for Active; 'I' for Inactive)
REMARK    1  A    between atoms: C2_2  and  C3_3
REMARK    2  A    between atoms: C3_3  and  C4_4
REMARK    3  A    between atoms: C4_4  and  C5_5
REMARK    4  A    between atoms: C10_11  and  C11_12
REMARK    5  A    between atoms: C11_12  and  C12_14
REMARK    6  A    between atoms: C12_14  and  C13_15
REMARK    7  A    between atoms: C13_15  and  C15_17
ROOT
HETATM    1  C5  UNL     1      -3.108   5.089  20.566  1.00  0.00    -0.012 A
HETATM    2  C6  UNL     1      -3.870   4.223  19.847  1.00  0.00     0.056 A
HETATM    3  C7  UNL     1      -3.703   2.760  19.732  1.00  0.00     0.077 C
HETATM    4  O1  UNL     1      -4.854   4.865  19.200  1.00  0.00    -0.319 OA
HETATM    5  C8  UNL     1      -4.784   6.136  19.455  1.00  0.00     0.064 A
HETATM    6  C9  UNL     1      -5.704   7.210  18.926  1.00  0.00     0.077 C
HETATM    7  C10 UNL     1      -3.713   6.350  20.307  1.00  0.00     0.048 A
ENDROOT
BRANCH   7   8
HETATM    8  C11 UNL     1      -3.297   7.636  20.830  1.00  0.00     0.163 C
HETATM    9  O2  UNL     1      -3.770   8.010  21.915  1.00  0.00    -0.292 OA
BRANCH   8  10
HETATM   10  C12 UNL     1      -2.339   8.440  20.068  1.00  0.00     0.088 C
BRANCH  10  11
HETATM   11  C13 UNL     1      -2.654   9.910  20.043  1.00  0.00    -0.012 C
HETATM   12  C14 UNL     1      -3.715  10.308  19.076  1.00  0.00     0.010 C
BRANCH  11  13
HETATM   13  C15 UNL     1      -1.412  10.775  19.961  1.00  0.00     0.000 C
HETATM   14  C16 UNL     1      -1.845  12.214  19.693  1.00  0.00     0.005 C
ENDBRANCH  11  13
ENDBRANCH  10  11
ENDBRANCH   8  10
ENDBRANCH   7   8
BRANCH   1  15
HETATM   15  C4  UNL     1      -1.954   4.952  21.440  1.00  0.00     0.042 C
BRANCH  15  16
HETATM   16  C3  UNL     1      -0.633   4.647  20.896  1.00  0.00     0.004 C
BRANCH  16  17
HETATM   17  C2  UNL     1       0.294   5.747  20.488  1.00  0.00    -0.004 C
HETATM   18  C1  UNL     1       0.237   6.061  19.008  1.00  0.00     0.005 C
ENDBRANCH  16  17
ENDBRANCH  15  16
ENDBRANCH   1  15
TORSDOF 7
ENDMDL