MODEL 3
REMARK VINA RESULT: -7.022199628      2.389      4.400
REMARK  8 active torsions:
REMARK  status: ('A' for Active; 'I' for Inactive)
REMARK    1  A    between atoms: C2_2  and  C3_3
REMARK    2  A    between atoms: C3_3  and  C4_4
REMARK    3  A    between atoms: C4_4  and  C5_5
REMARK    4  A    between atoms: C5_5  and  C6_6
REMARK    5  A    between atoms: C6_6  and  C7_7
REMARK    6  A    between atoms: C7_7  and  C8_9
REMARK    7  A    between atoms: C10_11  and  C11_12
REMARK    8  A    between atoms: C13_14  and  O2_15
ROOT
HETATM    1  C8  UNL     1      -3.517  14.671  17.956  1.00  0.00     0.016 A
HETATM    2  C9  UNL     1      -3.783  13.289  18.007  1.00  0.00     0.025 A
HETATM    3  C10 UNL     1      -3.075  12.413  18.802  1.00  0.00    -0.024 A
HETATM    4  C13 UNL     1      -2.064  12.945  19.572  1.00  0.00     0.072 A
HETATM    5  C14 UNL     1      -1.764  14.286  19.561  1.00  0.00     0.044 A
HETATM    6  C15 UNL     1      -2.507  15.160  18.736  1.00  0.00    -0.045 A
HETATM    7  C16 UNL     1      -2.135  16.576  18.766  1.00  0.00     0.049 C
ENDROOT
BRANCH   1   8
HETATM    8  C7  UNL     1      -4.299  15.532  17.115  1.00  0.00     0.160 C
HETATM    9  O1  UNL     1      -4.443  15.251  15.894  1.00  0.00    -0.292 OA
BRANCH   8  10
HETATM   10  C6  UNL     1      -4.997  16.780  17.530  1.00  0.00     0.084 C
BRANCH  10  11
HETATM   11  C5  UNL     1      -5.179  17.705  16.351  1.00  0.00     0.008 C
BRANCH  11  12
HETATM   12  C4  UNL     1      -4.095  18.749  16.267  1.00  0.00     0.004 C
BRANCH  12  13
HETATM   13  C3  UNL     1      -4.472  19.938  15.459  1.00  0.00     0.026 C
BRANCH  13  14
HETATM   14  C2  UNL     1      -4.931  19.465  14.115  1.00  0.00    -0.037 C
HETATM   15  C1  UNL     1      -5.356  20.274  13.158  1.00  0.00     0.007 C
ENDBRANCH  13  14
ENDBRANCH  12  13
ENDBRANCH  11  12
ENDBRANCH  10  11
ENDBRANCH   8  10
ENDBRANCH   1   8
BRANCH   3  16
HETATM   16  C11 UNL     1      -3.393  10.961  18.819  1.00  0.00     0.037 C
HETATM   17  C12 UNL     1      -4.876  10.702  18.695  1.00  0.00     0.010 C
ENDBRANCH   3  16
BRANCH   4  18
HETATM   18  O2  UNL     1      -1.358  12.049  20.369  1.00  0.00    -0.360 OA
ATOM     19  H2  UNL     1      -0.627  12.406  20.859  1.00  0.00     0.217 HD
ENDBRANCH   4  18
TORSDOF 8
ENDMDL