MODEL 3
REMARK VINA RESULT: -6.013949471      2.116      5.746
REMARK  10 active torsions:
REMARK  status: ('A' for Active; 'I' for Inactive)
REMARK    1  A    between atoms: C2_2  and  C3_3
REMARK    2  A    between atoms: C3_3  and  C4_4
REMARK    3  A    between atoms: C4_4  and  C5_5
REMARK    4  A    between atoms: C5_5  and  O1_6
REMARK    5  A    between atoms: O1_6  and  C6_7
REMARK    6  A    between atoms: C9_10  and  C10_11
REMARK    7  A    between atoms: C10_11  and  O2_13
REMARK    8  A    between atoms: C13_16  and  C14_17
REMARK    9  A    between atoms: C14_17  and  C16_19
REMARK   10  A    between atoms: C16_19  and  C17_20
ROOT
HETATM    1  C6  UNL     1      -3.498   7.138  20.428  1.00  0.00     0.075 A
HETATM    2  C7  UNL     1      -2.190   7.538  20.621  1.00  0.00     0.038 A
HETATM    3  C8  UNL     1      -1.778   8.697  19.979  1.00  0.00     0.012 A
HETATM    4  C9  UNL     1      -2.650   9.413  19.180  1.00  0.00    -0.029 A
HETATM    5  C12 UNL     1      -3.943   8.948  19.034  1.00  0.00     0.020 A
HETATM    6  C13 UNL     1      -4.406   7.798  19.650  1.00  0.00    -0.020 A
ENDROOT
BRANCH   1   7
HETATM    7  O1  UNL     1      -3.922   5.985  21.104  1.00  0.00    -0.351 OA
BRANCH   7   8
HETATM    8  C5  UNL     1      -3.064   4.844  21.148  1.00  0.00     0.175 C
BRANCH   8   9
HETATM    9  C4  UNL     1      -3.005   4.259  19.737  1.00  0.00     0.027 C
BRANCH   9  10
HETATM   10  C3  UNL     1      -1.542   4.170  19.339  1.00  0.00     0.002 C
BRANCH  10  11
HETATM   11  C2  UNL     1      -0.593   4.180  20.509  1.00  0.00    -0.004 C
HETATM   12  C1  UNL     1       0.433   5.262  20.474  1.00  0.00     0.005 C
ENDBRANCH  10  11
ENDBRANCH   9  10
ENDBRANCH   8   9
ENDBRANCH   7   8
ENDBRANCH   1   7
BRANCH   6  13
HETATM   13  C14 UNL     1      -5.710   7.184  19.348  1.00  0.00     0.017 C
HETATM   14  C15 UNL     1      -6.632   8.355  18.859  1.00  0.00     0.015 C
BRANCH  13  15
HETATM   15  C16 UNL     1      -5.582   6.307  18.082  1.00  0.00     0.009 C
BRANCH  15  16
HETATM   16  C17 UNL     1      -6.401   5.063  18.157  1.00  0.00    -0.004 C
HETATM   17  C18 UNL     1      -6.784   4.795  19.592  1.00  0.00     0.005 C
ENDBRANCH  15  16
ENDBRANCH  13  15
ENDBRANCH   6  13
BRANCH   4  18
HETATM   18  C10 UNL     1      -2.099  10.608  18.548  1.00  0.00     0.147 C
HETATM   19  C11 UNL     1      -1.260  11.378  19.588  1.00  0.00     0.044 C
BRANCH  18  20
HETATM   20  O2  UNL     1      -1.227  10.303  17.502  1.00  0.00    -0.391 OA
ATOM     21  H2  UNL     1      -1.325  10.894  16.765  1.00  0.00     0.210 HD
ENDBRANCH  18  20
ENDBRANCH   4  18
TORSDOF 10
ENDMDL