MODEL 3
REMARK VINA RESULT: -6.840037115      0.140      1.892
REMARK  7 active torsions:
REMARK  status: ('A' for Active; 'I' for Inactive)
REMARK    1  A    between atoms: C2_2  and  C3_3
REMARK    2  A    between atoms: C3_3  and  C4_4
REMARK    3  A    between atoms: C4_4  and  C5_5
REMARK    4  A    between atoms: C6_7  and  C7_8
REMARK    5  A    between atoms: C6_7  and  O2_10
REMARK    6  A    between atoms: O2_10  and  C9_11
REMARK    7  A    between atoms: C9_11  and  C10_12
ROOT
HETATM    1  O2  UNL     1      -4.061  15.150  17.229  1.00  0.00    -0.350 OA
ENDROOT
BRANCH   1   2
HETATM    2  C6  UNL     1      -4.460  16.317  16.677  1.00  0.00     0.055 C
HETATM    3  C4  UNL     1      -4.620  16.513  15.361  1.00  0.00     0.009 C
BRANCH   3   4
HETATM    4  C3  UNL     1      -5.030  17.827  14.793  1.00  0.00     0.044 C
BRANCH   4   5
HETATM    5  C2  UNL     1      -3.879  18.798  14.643  1.00  0.00     0.000 C
HETATM    6  C1  UNL     1      -4.278  20.115  15.302  1.00  0.00     0.005 C
ENDBRANCH   4   5
ENDBRANCH   3   4
BRANCH   3   7
HETATM    7  C5  UNL     1      -4.464  15.392  14.444  1.00  0.00     0.268 C
HETATM    8  O1  UNL     1      -5.047  15.346  13.316  1.00  0.00    -0.302 OA
ENDBRANCH   3   7
BRANCH   2   9
HETATM    9  C7  UNL     1      -4.707  17.432  17.654  1.00  0.00     0.061 C
HETATM   10  C8  UNL     1      -3.369  17.913  18.213  1.00  0.00     0.012 C
ENDBRANCH   2   9
ENDBRANCH   1   2
BRANCH   1  11
HETATM   11  C9  UNL     1      -4.552  14.159  18.003  1.00  0.00     0.215 C
BRANCH  11  12
HETATM   12  C10 UNL     1      -3.615  13.210  18.643  1.00  0.00    -0.022 A
HETATM   13  C11 UNL     1      -2.341  13.517  19.006  1.00  0.00    -0.053 A
HETATM   14  C12 UNL     1      -1.900  14.919  19.004  1.00  0.00     0.049 C
HETATM   15  C13 UNL     1      -1.426  12.542  19.454  1.00  0.00     0.014 A
HETATM   16  C14 UNL     1      -1.793  11.226  19.543  1.00  0.00    -0.061 A
HETATM   17  C15 UNL     1      -0.815  10.196  20.000  1.00  0.00     0.048 C
HETATM   18  C16 UNL     1      -3.089  10.899  19.179  1.00  0.00     0.014 A
HETATM   19  C17 UNL     1      -3.987  11.865  18.738  1.00  0.00    -0.053 A
HETATM   20  C18 UNL     1      -5.363  11.424  18.376  1.00  0.00     0.049 C
ENDBRANCH  11  12
ENDBRANCH   1  11
TORSDOF 7
ENDMDL