MODEL 5
REMARK VINA RESULT: -7.134431676      1.763      7.913
REMARK  9 active torsions:
REMARK  status: ('A' for Active; 'I' for Inactive)
REMARK    1  A    between atoms: O1_2  and  C2_3
REMARK    2  A    between atoms: C9_10  and  C10_11
REMARK    3  A    between atoms: C10_11  and  C11_12
REMARK    4  A    between atoms: C11_12  and  C12_13
REMARK    5  A    between atoms: C12_13  and  C13_14
REMARK    6  A    between atoms: C13_14  and  C14_15
REMARK    7  A    between atoms: C14_15  and  C15_16
REMARK    8  A    between atoms: C15_16  and  C16_17
REMARK    9  A    between atoms: C16_17  and  O2_20
ROOT
HETATM    1  C10 UNL     1      -3.315  14.094  18.157  1.00  0.00     0.041 C
ENDROOT
BRANCH   1   2
HETATM    2  C9  UNL     1      -3.700  15.181  17.214  1.00  0.00    -0.024 A
HETATM    3  C2  UNL     1      -3.600  16.512  17.525  1.00  0.00     0.075 A
HETATM    4  C3  UNL     1      -3.975  17.447  16.592  1.00  0.00     0.044 A
HETATM    5  C4  UNL     1      -4.457  17.115  15.336  1.00  0.00    -0.053 A
HETATM    6  C5  UNL     1      -4.859  18.136  14.339  1.00  0.00     0.049 C
HETATM    7  C6  UNL     1      -4.546  15.773  15.052  1.00  0.00    -0.055 A
HETATM    8  C7  UNL     1      -5.062  15.375  13.705  1.00  0.00     0.049 C
HETATM    9  C8  UNL     1      -4.175  14.828  15.974  1.00  0.00     0.017 A
BRANCH   3  10
HETATM   10  O1  UNL     1      -3.126  16.904  18.764  1.00  0.00    -0.355 OA
HETATM   11  C1  UNL     1      -1.779  16.636  19.133  1.00  0.00     0.210 C
ENDBRANCH   3  10
ENDBRANCH   1   2
BRANCH   1  12
HETATM   12  C11 UNL     1      -4.361  13.020  18.189  1.00  0.00     0.005 C
BRANCH  12  13
HETATM   13  C12 UNL     1      -3.830  11.691  18.630  1.00  0.00     0.000 C
BRANCH  13  14
HETATM   14  C13 UNL     1      -2.310  11.609  18.617  1.00  0.00     0.000 C
BRANCH  14  15
HETATM   15  C14 UNL     1      -1.781  10.228  18.511  1.00  0.00     0.003 C
BRANCH  15  16
HETATM   16  C15 UNL     1      -1.668   9.404  19.724  1.00  0.00     0.037 C
BRANCH  16  17
HETATM   17  C16 UNL     1      -2.627   8.312  19.970  1.00  0.00     0.051 C
HETATM   18  C17 UNL     1      -1.774   7.043  20.227  1.00  0.00     0.045 C
HETATM   19  C18 UNL     1      -3.577   7.925  18.892  1.00  0.00     0.045 C
BRANCH  17  20
HETATM   20  O2  UNL     1      -3.373   8.492  21.143  1.00  0.00    -0.391 OA
ATOM     21  H2  UNL     1      -3.900   7.734  21.368  1.00  0.00     0.210 HD
ENDBRANCH  17  20
ENDBRANCH  16  17
ENDBRANCH  15  16
ENDBRANCH  14  15
ENDBRANCH  13  14
ENDBRANCH  12  13
ENDBRANCH   1  12
TORSDOF 9
ENDMDL