MODEL 1
REMARK VINA RESULT: -6.933297215      0.000      0.000
REMARK  5 active torsions:
REMARK  status: ('A' for Active; 'I' for Inactive)
REMARK    1  A    between atoms: C2_2  and  C5_5
REMARK    2  A    between atoms: C6_10  and  O1_11
REMARK    3  A    between atoms: C7_13  and  C8_14
REMARK    4  A    between atoms: C8_14  and  C9_15
REMARK    5  A    between atoms: C9_15  and  C10_16
ROOT
HETATM    1  C10 UNL     1      -1.281   5.425  20.620  1.00  0.00     0.123 A
HETATM    2  N3  UNL     1      -1.977   5.153  21.774  1.00  0.00    -0.284 N
ATOM      3  H3  UNL     1      -2.332   5.851  22.427  1.00  0.00     0.188 HD
HETATM    4  N4  UNL     1      -2.112   3.860  21.903  1.00  0.00    -0.285 N
ATOM      5  H4  UNL     1      -2.591   3.396  22.675  1.00  0.00     0.188 HD
HETATM    6  C11 UNL     1      -1.530   3.235  20.872  1.00  0.00     0.136 A
HETATM    7  N5  UNL     1      -1.021   4.192  20.092  1.00  0.00    -0.317 N
HETATM    8  C12 UNL     1      -0.295   3.838  18.905  1.00  0.00     0.159 C
HETATM    9  C13 UNL     1      -0.065   2.377  18.797  1.00  0.00     0.254 C
HETATM   10  N6  UNL     1      -1.131   1.543  19.212  1.00  0.00    -0.058 N
ATOM     11  H61 UNL     1      -0.927   0.560  19.034  1.00  0.00     0.278 HD
ATOM     12  H62 UNL     1      -1.944   1.648  18.605  1.00  0.00     0.278 HD
HETATM   13  C14 UNL     1      -1.476   1.773  20.614  1.00  0.00     0.184 C
HETATM   14  C15 UNL     1      -2.851   1.186  20.820  1.00  0.00     0.047 C
HETATM   15  C16 UNL     1      -2.741  -0.061  21.703  1.00  0.00     0.003 C
HETATM   16  C17 UNL     1      -2.210   0.411  23.036  1.00  0.00     0.000 C
HETATM   17  C18 UNL     1      -0.797   0.862  22.853  1.00  0.00     0.003 C
HETATM   18  C19 UNL     1      -0.402   1.102  21.433  1.00  0.00     0.047 C
ENDROOT
BRANCH   1  19
HETATM   19  C9  UNL     1      -0.954   6.767  20.170  1.00  0.00     0.051 C
BRANCH  19  20
HETATM   20  C8  UNL     1      -1.550   7.881  20.414  1.00  0.00     0.022 C
BRANCH  20  21
HETATM   21  C7  UNL     1      -2.834   8.312  19.879  1.00  0.00     0.041 A
HETATM   22  C5  UNL     1      -3.060   9.519  19.205  1.00  0.00     0.048 A
HETATM   23  N1  UNL     1      -4.353   9.536  18.881  1.00  0.00    -0.301 N
HETATM   24  N2  UNL     1      -4.937   8.452  19.295  1.00  0.00    -0.279 N
ATOM     25  H1  UNL     1      -4.818  10.293  18.379  1.00  0.00     0.186 HD
HETATM   26  C6  UNL     1      -4.028   7.645  19.931  1.00  0.00     0.167 A
ATOM     27  H2  UNL     1      -5.925   8.234  19.166  1.00  0.00     0.189 HD
BRANCH  22  28
HETATM   28  C2  UNL     1      -2.042  10.524  18.936  1.00  0.00    -0.006 C
HETATM   29  C1  UNL     1      -2.743  11.811  18.490  1.00  0.00     0.021 C
HETATM   30  C3  UNL     1      -1.143  10.117  17.765  1.00  0.00     0.021 C
HETATM   31  C4  UNL     1      -1.220  10.899  20.151  1.00  0.00     0.021 C
ENDBRANCH  22  28
BRANCH  26  32
HETATM   32  O1  UNL     1      -4.350   6.404  20.490  1.00  0.00    -0.344 OA
ATOM     33  H1  UNL     1      -3.716   5.835  20.911  1.00  0.00     0.219 HD
ENDBRANCH  26  32
ENDBRANCH  20  21
ENDBRANCH  19  20
ENDBRANCH   1  19
TORSDOF 5
ENDMDL