MODEL 2
REMARK VINA RESULT: -8.134351439      0.970      2.307
REMARK  10 active torsions:
REMARK  status: ('A' for Active; 'I' for Inactive)
REMARK    1  A    between atoms: C2_2  and  C3_3
REMARK    2  A    between atoms: C3_3  and  C4_4
REMARK    3  A    between atoms: C4_4  and  C5_5
REMARK    4  A    between atoms: C5_5  and  C6_6
REMARK    5  A    between atoms: C6_6  and  C7_7
REMARK    6  A    between atoms: C7_7  and  C8_9
REMARK    7  A    between atoms: C8_9  and  C9_10
REMARK    8  A    between atoms: C9_10  and  O2_11
REMARK    9  A    between atoms: C9_10  and  C10_13
REMARK   10  A    between atoms: C10_13  and  C11_14
ROOT
HETATM    1  C9  UNL     1      -3.412  14.207  17.997  1.00  0.00     0.129 C
ENDROOT
BRANCH   1   2
HETATM    2  C8  UNL     1      -2.278  13.535  18.707  1.00  0.00     0.110 C
BRANCH   2   3
HETATM    3  C7  UNL     1      -2.727  12.245  19.268  1.00  0.00     0.129 C
HETATM    4  O1  UNL     1      -3.121  12.179  20.409  1.00  0.00    -0.298 OA
BRANCH   3   5
HETATM    5  C6  UNL     1      -2.704  10.999  18.440  1.00  0.00     0.078 C
BRANCH   5   6
HETATM    6  C5  UNL     1      -1.296  10.431  18.628  1.00  0.00     0.007 C
BRANCH   6   7
HETATM    7  C4  UNL     1      -1.296   9.329  19.646  1.00  0.00     0.000 C
BRANCH   7   8
HETATM    8  C3  UNL     1      -2.633   8.640  19.623  1.00  0.00    -0.000 C
BRANCH   8   9
HETATM    9  C2  UNL     1      -2.586   7.337  20.355  1.00  0.00    -0.005 C
HETATM   10  C1  UNL     1      -1.171   6.776  20.311  1.00  0.00     0.005 C
ENDBRANCH   8   9
ENDBRANCH   7   8
ENDBRANCH   6   7
ENDBRANCH   5   6
ENDBRANCH   3   5
ENDBRANCH   2   3
ENDBRANCH   1   2
BRANCH   1  11
HETATM   11  O2  UNL     1      -4.634  13.613  18.468  1.00  0.00    -0.395 OA
ATOM     12  H2  UNL     1      -5.265  13.654  17.760  1.00  0.00     0.210 HD
ENDBRANCH   1  11
BRANCH   1  13
HETATM   13  C10 UNL     1      -3.467  15.671  18.322  1.00  0.00     0.070 C
BRANCH  13  14
HETATM   14  C11 UNL     1      -3.873  16.435  17.124  1.00  0.00    -0.055 A
HETATM   15  C12 UNL     1      -3.946  17.786  17.008  1.00  0.00     0.013 A
HETATM   16  C13 UNL     1      -4.348  18.427  15.843  1.00  0.00    -0.061 A
HETATM   17  C14 UNL     1      -4.415  19.910  15.759  1.00  0.00     0.048 C
HETATM   18  C15 UNL     1      -4.686  17.651  14.760  1.00  0.00     0.013 A
HETATM   19  C16 UNL     1      -4.625  16.262  14.833  1.00  0.00    -0.061 A
HETATM   20  C17 UNL     1      -4.992  15.410  13.654  1.00  0.00     0.048 C
HETATM   21  C18 UNL     1      -4.220  15.665  16.008  1.00  0.00     0.013 A
ENDBRANCH  13  14
ENDBRANCH   1  13
TORSDOF 10
ENDMDL