MODEL 4
REMARK VINA RESULT: -7.969081526      1.936      7.979
REMARK  9 active torsions:
REMARK  status: ('A' for Active; 'I' for Inactive)
REMARK    1  A    between atoms: C2_2  and  C3_3
REMARK    2  A    between atoms: C3_3  and  C4_4
REMARK    3  A    between atoms: C4_4  and  C5_5
REMARK    4  A    between atoms: C4_4  and  C8_8
REMARK    5  A    between atoms: C5_5  and  C6_6
REMARK    6  A    between atoms: C8_8  and  C9_10
REMARK    7  A    between atoms: C9_10  and  C10_11
REMARK    8  A    between atoms: C10_11  and  C11_12
REMARK    9  A    between atoms: C14_15  and  C15_16
ROOT
HETATM    1  C9  UNL     1      -1.225  11.196  19.510  1.00  0.00     0.083 C
ENDROOT
BRANCH   1   2
HETATM    2  C8  UNL     1      -1.699  10.040  18.740  1.00  0.00     0.132 C
HETATM    3  O1  UNL     1      -1.840  10.170  17.492  1.00  0.00    -0.298 OA
BRANCH   2   4
HETATM    4  C4  UNL     1      -2.049   8.689  19.227  1.00  0.00     0.062 C
BRANCH   4   5
HETATM    5  C3  UNL     1      -3.420   8.725  19.918  1.00  0.00     0.038 C
BRANCH   5   6
HETATM    6  C2  UNL     1      -4.508   8.171  19.100  1.00  0.00    -0.036 C
HETATM    7  C1  UNL     1      -4.304   7.045  18.425  1.00  0.00     0.007 C
ENDBRANCH   5   6
ENDBRANCH   4   5
BRANCH   4   8
HETATM    8  C5  UNL     1      -1.096   8.099  20.231  1.00  0.00     0.038 C
BRANCH   8   9
HETATM    9  C6  UNL     1      -1.215   6.622  20.328  1.00  0.00    -0.036 C
HETATM   10  C7  UNL     1      -0.148   5.855  20.404  1.00  0.00     0.007 C
ENDBRANCH   8   9
ENDBRANCH   4   8
ENDBRANCH   2   4
ENDBRANCH   1   2
BRANCH   1  11
HETATM   11  C10 UNL     1      -2.283  12.003  20.151  1.00  0.00     0.046 C
BRANCH  11  12
HETATM   12  C11 UNL     1      -2.670  13.197  19.347  1.00  0.00    -0.052 A
HETATM   13  C12 UNL     1      -1.882  14.320  19.345  1.00  0.00     0.008 A
HETATM   14  C13 UNL     1      -2.185  15.461  18.633  1.00  0.00     0.015 A
HETATM   15  C14 UNL     1      -3.355  15.455  17.880  1.00  0.00     0.002 A
HETATM   16  C16 UNL     1      -4.141  14.321  17.888  1.00  0.00     0.021 A
HETATM   17  C17 UNL     1      -3.837  13.179  18.601  1.00  0.00    -0.055 A
HETATM   18  C18 UNL     1      -4.695  11.974  18.591  1.00  0.00     0.049 C
BRANCH  15  19
HETATM   19  C15 UNL     1      -3.737  16.622  17.108  1.00  0.00     0.269 C
HETATM   20  O2  UNL     1      -4.162  17.668  17.652  1.00  0.00    -0.301 OA
ENDBRANCH  15  19
ENDBRANCH  11  12
ENDBRANCH   1  11
TORSDOF 9
ENDMDL