MODEL 4
REMARK VINA RESULT: -7.046060048      0.516      2.632
REMARK  10 active torsions:
REMARK  status: ('A' for Active; 'I' for Inactive)
REMARK    1  A    between atoms: C2_2  and  C3_3
REMARK    2  A    between atoms: C3_3  and  C4_4
REMARK    3  A    between atoms: C6_6  and  C7_7
REMARK    4  A    between atoms: C10_10  and  C11_11
REMARK    5  A    between atoms: C11_11  and  O1_12
REMARK    6  A    between atoms: O1_12  and  C12_13
REMARK    7  A    between atoms: C12_13  and  C14_15
REMARK    8  A    between atoms: C14_15  and  O2_16
REMARK    9  A    between atoms: C14_15  and  C15_18
REMARK   10  A    between atoms: C15_18  and  C16_19
ROOT
HETATM    1  C4  UNL     1      -3.961  15.663  15.881  1.00  0.00    -0.057 A
HETATM    2  C5  UNL     1      -4.241  17.015  16.036  1.00  0.00     0.014 A
HETATM    3  C6  UNL     1      -3.921  17.722  17.168  1.00  0.00    -0.057 A
HETATM    4  C9  UNL     1      -3.292  17.029  18.184  1.00  0.00     0.016 A
HETATM    5  C10 UNL     1      -2.980  15.688  18.102  1.00  0.00    -0.034 A
HETATM    6  C18 UNL     1      -3.330  15.023  16.928  1.00  0.00     0.016 A
ENDROOT
BRANCH   5   7
HETATM    7  C11 UNL     1      -2.301  14.985  19.223  1.00  0.00     0.207 C
BRANCH   7   8
HETATM    8  O1  UNL     1      -1.993  13.707  18.817  1.00  0.00    -0.379 OA
BRANCH   8   9
HETATM    9  C12 UNL     1      -2.469  12.720  19.646  1.00  0.00     0.146 C
HETATM   10  C13 UNL     1      -3.815  12.183  19.217  1.00  0.00     0.042 C
BRANCH   9  11
HETATM   11  C14 UNL     1      -1.489  11.544  19.559  1.00  0.00     0.146 C
BRANCH  11  12
HETATM   12  O2  UNL     1      -0.587  11.690  20.590  1.00  0.00    -0.393 OA
ATOM     13  H2  UNL     1       0.276  11.522  20.233  1.00  0.00     0.210 HD
ENDBRANCH  11  12
BRANCH  11  14
HETATM   14  C15 UNL     1      -2.305  10.286  19.791  1.00  0.00     0.034 C
BRANCH  14  15
HETATM   15  C16 UNL     1      -1.380   9.095  19.678  1.00  0.00    -0.002 C
HETATM   16  C17 UNL     1      -1.992   7.847  20.257  1.00  0.00     0.005 C
ENDBRANCH  14  15
ENDBRANCH  11  14
ENDBRANCH   9  11
ENDBRANCH   8   9
ENDBRANCH   7   8
ENDBRANCH   5   7
BRANCH   3  17
HETATM   17  C7  UNL     1      -4.230  19.151  17.305  1.00  0.00     0.034 C
HETATM   18  C8  UNL     1      -4.363  19.873  16.009  1.00  0.00     0.010 C
ENDBRANCH   3  17
BRANCH   1  19
HETATM   19  C3  UNL     1      -4.339  14.976  14.629  1.00  0.00     0.038 C
BRANCH  19  20
HETATM   20  C2  UNL     1      -5.492  15.682  13.933  1.00  0.00     0.000 C
HETATM   21  C1  UNL     1      -5.057  17.053  13.432  1.00  0.00     0.005 C
ENDBRANCH  19  20
ENDBRANCH   1  19
TORSDOF 10
ENDMDL