MODEL 5
REMARK VINA RESULT: -6.987236834      3.985      7.536
REMARK  10 active torsions:
REMARK  status: ('A' for Active; 'I' for Inactive)
REMARK    1  A    between atoms: C2_2  and  C3_3
REMARK    2  A    between atoms: C5_5  and  C6_6
REMARK    3  A    between atoms: C6_6  and  C7_7
REMARK    4  A    between atoms: C7_7  and  C8_8
REMARK    5  A    between atoms: C14_14  and  O1_15
REMARK    6  A    between atoms: O1_15  and  C15_16
REMARK    7  A    between atoms: C15_16  and  C16_17
REMARK    8  A    between atoms: C16_17  and  C17_18
REMARK    9  A    between atoms: C17_18  and  C18_19
REMARK   10  A    between atoms: C18_19  and  O2_20
ROOT
HETATM    1  C8  UNL     1      -3.685  14.903  18.047  1.00  0.00    -0.024 A
HETATM    2  C9  UNL     1      -2.558  14.641  18.789  1.00  0.00     0.010 A
HETATM    3  C10 UNL     1      -1.729  15.614  19.271  1.00  0.00     0.001 A
HETATM    4  C11 UNL     1      -2.033  16.912  19.005  1.00  0.00     0.009 A
HETATM    5  C12 UNL     1      -3.178  17.209  18.248  1.00  0.00    -0.028 A
HETATM    6  C13 UNL     1      -3.400  18.650  18.024  1.00  0.00     0.051 C
HETATM    7  C14 UNL     1      -4.023  16.243  17.752  1.00  0.00     0.081 A
ENDROOT
BRANCH   1   8
HETATM    8  C7  UNL     1      -4.498  13.737  17.668  1.00  0.00     0.045 C
BRANCH   8   9
HETATM    9  C6  UNL     1      -4.301  12.571  18.623  1.00  0.00     0.032 C
BRANCH   9  10
HETATM   10  C5  UNL     1      -3.344  11.616  18.007  1.00  0.00    -0.024 C
HETATM   11  C3  UNL     1      -2.357  11.009  18.624  1.00  0.00    -0.088 C
HETATM   12  C4  UNL     1      -1.482  10.065  17.822  1.00  0.00     0.043 C
BRANCH  11  13
HETATM   13  C2  UNL     1      -1.989  11.142  20.048  1.00  0.00     0.029 C
HETATM   14  C1  UNL     1      -0.660  11.856  20.257  1.00  0.00     0.010 C
ENDBRANCH  11  13
ENDBRANCH   9  10
ENDBRANCH   8   9
ENDBRANCH   1   8
BRANCH   7  15
HETATM   15  O1  UNL     1      -5.099  16.456  17.035  1.00  0.00    -0.350 OA
BRANCH  15  16
HETATM   16  C15 UNL     1      -5.818  17.115  16.156  1.00  0.00     0.176 C
BRANCH  16  17
HETATM   17  C16 UNL     1      -5.357  17.895  14.996  1.00  0.00     0.029 C
BRANCH  17  18
HETATM   18  C17 UNL     1      -5.007  17.149  13.748  1.00  0.00     0.028 C
BRANCH  18  19
HETATM   19  C18 UNL     1      -5.200  15.644  13.916  1.00  0.00     0.164 C
BRANCH  19  20
HETATM   20  O2  UNL     1      -4.073  15.026  14.430  1.00  0.00    -0.401 OA
ATOM     21  H2  UNL     1      -4.283  14.426  15.136  1.00  0.00     0.209 HD
ENDBRANCH  19  20
ENDBRANCH  18  19
ENDBRANCH  17  18
ENDBRANCH  16  17
ENDBRANCH  15  16
ENDBRANCH   7  15
TORSDOF 10
ENDMDL