MODEL 4
REMARK VINA RESULT: -7.760605716      1.393      8.278
REMARK  9 active torsions:
REMARK  status: ('A' for Active; 'I' for Inactive)
REMARK    1  A    between atoms: C2_2  and  C3_3
REMARK    2  A    between atoms: C3_3  and  C6_6
REMARK    3  A    between atoms: C6_6  and  C7_7
REMARK    4  A    between atoms: C7_7  and  O1_8
REMARK    5  A    between atoms: C7_7  and  C8_10
REMARK    6  A    between atoms: C8_10  and  C9_11
REMARK    7  A    between atoms: C9_11  and  C10_12
REMARK    8  A    between atoms: C10_12  and  O2_13
REMARK    9  A    between atoms: O2_13  and  C11_14
ROOT
HETATM    1  C9  UNL     1      -2.721  14.364  18.656  1.00  0.00     0.029 C
ENDROOT
BRANCH   1   2
HETATM    2  C8  UNL     1      -3.889  13.495  18.257  1.00  0.00     0.034 C
BRANCH   2   3
HETATM    3  C7  UNL     1      -3.848  12.135  18.916  1.00  0.00     0.122 C
BRANCH   3   4
HETATM    4  C6  UNL     1      -2.645  11.415  18.374  1.00  0.00     0.070 C
BRANCH   4   5
HETATM    5  C3  UNL     1      -1.995  10.474  19.277  1.00  0.00    -0.061 C
HETATM    6  C4  UNL     1      -2.054   9.172  19.135  1.00  0.00    -0.024 C
HETATM    7  C5  UNL     1      -1.331   8.299  20.118  1.00  0.00     0.036 C
BRANCH   5   8
HETATM    8  C2  UNL     1      -1.228  11.030  20.392  1.00  0.00    -0.004 C
HETATM    9  C1  UNL     1      -0.415  12.049  20.215  1.00  0.00     0.012 C
ENDBRANCH   5   8
ENDBRANCH   4   5
ENDBRANCH   3   4
BRANCH   3  10
HETATM   10  O1  UNL     1      -4.979  11.384  18.626  1.00  0.00    -0.395 OA
ATOM     11  H1  UNL     1      -4.977  10.612  19.180  1.00  0.00     0.210 HD
ENDBRANCH   3  10
ENDBRANCH   2   3
ENDBRANCH   1   2
BRANCH   1  12
HETATM   12  C10 UNL     1      -2.774  15.735  18.086  1.00  0.00     0.175 C
BRANCH  12  13
HETATM   13  O2  UNL     1      -3.170  15.714  16.769  1.00  0.00    -0.351 OA
BRANCH  13  14
HETATM   14  C11 UNL     1      -3.817  16.559  15.937  1.00  0.00     0.075 A
HETATM   15  C12 UNL     1      -3.836  17.928  16.011  1.00  0.00     0.044 A
HETATM   16  C13 UNL     1      -4.528  18.744  15.117  1.00  0.00    -0.059 A
HETATM   17  C14 UNL     1      -4.516  20.228  15.242  1.00  0.00     0.048 C
HETATM   18  C15 UNL     1      -5.226  18.113  14.111  1.00  0.00     0.007 A
HETATM   19  C16 UNL     1      -5.217  16.741  14.024  1.00  0.00     0.010 A
HETATM   20  C17 UNL     1      -4.538  15.939  14.900  1.00  0.00    -0.029 A
HETATM   21  C18 UNL     1      -4.563  14.449  14.760  1.00  0.00     0.051 C
ENDBRANCH  13  14
ENDBRANCH  12  13
ENDBRANCH   1  12
TORSDOF 9
ENDMDL