MODEL 5
REMARK VINA RESULT: -5.927806174      2.164      5.746
REMARK  9 active torsions:
REMARK  status: ('A' for Active; 'I' for Inactive)
REMARK    1  A    between atoms: C2_2  and  C3_3
REMARK    2  A    between atoms: C3_3  and  C4_4
REMARK    3  A    between atoms: C6_6  and  C7_7
REMARK    4  A    between atoms: C7_7  and  O1_8
REMARK    5  A    between atoms: C7_7  and  C8_10
REMARK    6  A    between atoms: C11_13  and  O2_14
REMARK    7  A    between atoms: O2_14  and  C12_15
REMARK    8  A    between atoms: C14_17  and  C15_18
REMARK    9  A    between atoms: C16_19  and  C17_20
ROOT
HETATM    1  C4  UNL     1      -2.469   6.637  20.271  1.00  0.00    -0.041 A
HETATM    2  C5  UNL     1      -1.723   7.910  20.163  1.00  0.00     0.022 A
HETATM    3  C6  UNL     1      -2.328   8.944  19.413  1.00  0.00     0.000 A
HETATM    4  C10 UNL     1      -3.545   8.715  18.857  1.00  0.00     0.052 A
HETATM    5  C11 UNL     1      -4.247   7.501  18.976  1.00  0.00     0.080 A
HETATM    6  C14 UNL     1      -3.637   6.512  19.687  1.00  0.00     0.004 A
ENDROOT
BRANCH   3   7
HETATM    7  C7  UNL     1      -1.580  10.061  19.195  1.00  0.00     0.075 C
BRANCH   7   8
HETATM    8  O1  UNL     1      -0.875  10.190  17.982  1.00  0.00    -0.360 OA
ATOM      9  H1  UNL     1      -0.180   9.575  17.782  1.00  0.00     0.217 HD
ENDBRANCH   7   8
BRANCH   7  10
HETATM   10  C8  UNL     1      -1.243  11.333  19.909  1.00  0.00     0.027 C
HETATM   11  C9  UNL     1      -1.893  12.375  20.142  1.00  0.00     0.014 C
ENDBRANCH   7  10
ENDBRANCH   3   7
BRANCH   1  12
HETATM   12  C3  UNL     1      -1.869   5.707  21.241  1.00  0.00     0.066 C
BRANCH  12  13
HETATM   13  C2  UNL     1      -0.632   5.056  20.791  1.00  0.00    -0.032 C
HETATM   14  C1  UNL     1      -0.265   4.382  19.781  1.00  0.00     0.007 C
ENDBRANCH  12  13
ENDBRANCH   1  12
BRANCH   5  15
HETATM   15  O2  UNL     1      -5.518   7.346  18.379  1.00  0.00    -0.351 OA
BRANCH  15  16
HETATM   16  C12 UNL     1      -6.505   8.272  18.900  1.00  0.00     0.171 C
HETATM   17  C13 UNL     1      -7.295   7.522  20.003  1.00  0.00     0.034 C
ENDBRANCH  15  16
ENDBRANCH   5  15
BRANCH   6  18
HETATM   18  C15 UNL     1      -4.374   5.185  19.651  1.00  0.00     0.011 C
HETATM   19  C16 UNL     1      -4.346   4.100  19.016  1.00  0.00    -0.026 C
BRANCH  19  20
HETATM   20  C17 UNL     1      -5.410   3.062  19.418  1.00  0.00     0.022 C
HETATM   21  C18 UNL     1      -6.793   3.645  19.292  1.00  0.00     0.009 C
ENDBRANCH  19  20
ENDBRANCH   6  18
TORSDOF 9
ENDMDL