MODEL 1
REMARK VINA RESULT: -6.919422873      0.000      0.000
REMARK  12 active torsions:
REMARK  status: ('A' for Active; 'I' for Inactive)
REMARK       I    between atoms: C2_2  and  N1_4
REMARK    1  A    between atoms: N1_4  and  C4_6
REMARK    2  A    between atoms: C4_6  and  C5_7
REMARK    3  A    between atoms: C5_7  and  N2_8
REMARK    4  A    between atoms: N2_8  and  C7_10
REMARK    5  A    between atoms: C7_10  and  O2_11
REMARK    6  A    between atoms: C7_10  and  C8_13
REMARK    7  A    between atoms: C9_14  and  C10_15
REMARK    8  A    between atoms: C10_15  and  C11_17
REMARK    9  A    between atoms: C17_23  and  O4_24
REMARK   10  A    between atoms: C18_26  and  O5_27
REMARK   11  A    between atoms: N3_29  and  C19_30
REMARK   12  A    between atoms: C19_30  and  C20_31
ROOT
HETATM    1  C8  UNL     1      -0.345  51.152  21.576  1.00  0.00     0.105 A
HETATM    2  C9  UNL     1      -1.094  52.129  22.162  1.00  0.00     0.084 A
HETATM    3  C17 UNL     1      -1.725  52.812  21.079  1.00  0.00     0.133 A
HETATM    4  C18 UNL     1      -1.349  52.223  19.915  1.00  0.00     0.178 A
HETATM    5  N3  UNL     1      -0.514  51.212  20.185  1.00  0.00    -0.320 N
ENDROOT
BRANCH   1   6
HETATM    6  C7  UNL     1       0.751  50.356  22.085  1.00  0.00     0.166 C
BRANCH   6   7
HETATM    7  N2  UNL     1       2.107  50.651  22.177  1.00  0.00    -0.363 N
HETATM    8  C6  UNL     1       3.134  50.064  21.345  1.00  0.00     0.152 C
BRANCH   7   9
HETATM    9  C5  UNL     1       2.599  51.488  23.315  1.00  0.00     0.144 C
BRANCH   9  10
HETATM   10  C4  UNL     1       3.776  50.816  23.959  1.00  0.00     0.145 C
BRANCH  10  11
HETATM   11  N1  UNL     1       3.421  49.970  25.073  1.00  0.00    -0.355 N
HETATM   12  C2  UNL     1       3.148  50.577  26.323  1.00  0.00     0.215 C
HETATM   13  C1  UNL     1       2.770  49.814  27.545  1.00  0.00     0.117 C
HETATM   14  O1  UNL     1       3.220  51.834  26.447  1.00  0.00    -0.274 OA
HETATM   15  C3  UNL     1       3.335  48.549  24.964  1.00  0.00     0.152 C
ENDBRANCH  10  11
ENDBRANCH   9  10
ENDBRANCH   7   9
ENDBRANCH   6   7
BRANCH   6  16
HETATM   16  O2  UNL     1       0.457  49.161  22.517  1.00  0.00    -0.344 OA
ATOM     17  H2  UNL     1      -0.353  49.132  23.012  1.00  0.00     0.219 HD
ENDBRANCH   6  16
ENDBRANCH   1   6
BRANCH   2  18
HETATM   18  C10 UNL     1      -1.370  52.492  23.534  1.00  0.00     0.197 C
HETATM   19  O3  UNL     1      -1.468  53.737  23.824  1.00  0.00    -0.286 OA
BRANCH  18  20
HETATM   20  C11 UNL     1      -1.572  51.598  24.647  1.00  0.00     0.015 A
HETATM   21  C12 UNL     1      -2.802  51.110  25.016  1.00  0.00     0.015 A
HETATM   22  C13 UNL     1      -2.998  50.259  26.071  1.00  0.00     0.001 A
HETATM   23  C14 UNL     1      -1.911  49.853  26.826  1.00  0.00     0.000 A
HETATM   24  C15 UNL     1      -0.675  50.335  26.468  1.00  0.00     0.001 A
HETATM   25  C16 UNL     1      -0.476  51.184  25.416  1.00  0.00     0.015 A
ENDBRANCH  18  20
ENDBRANCH   2  18
BRANCH   5  26
HETATM   26  C19 UNL     1       0.075  50.364  19.198  1.00  0.00     0.146 C
BRANCH  26  27
HETATM   27  C20 UNL     1      -0.925  49.289  18.737  1.00  0.00     0.135 C
HETATM   28 CL1  UNL     1      -0.755  47.888  19.809  1.00  0.00    -0.129 Cl
ENDBRANCH  26  27
ENDBRANCH   5  26
BRANCH   3  29
HETATM   29  O4  UNL     1      -2.579  53.902  21.279  1.00  0.00    -0.356 OA
ATOM     30  H4  UNL     1      -3.158  53.962  22.030  1.00  0.00     0.218 HD
ENDBRANCH   3  29
BRANCH   4  31
HETATM   31  O5  UNL     1      -1.794  52.649  18.648  1.00  0.00    -0.344 OA
ATOM     32  H5  UNL     1      -1.440  53.405  18.194  1.00  0.00     0.219 HD
ENDBRANCH   4  31
TORSDOF 12
ENDMDL