MODEL 4
REMARK VINA RESULT: -5.965982194      3.074      5.937
REMARK  9 active torsions:
REMARK  status: ('A' for Active; 'I' for Inactive)
REMARK    1  A    between atoms: C2_2  and  C3_3
REMARK    2  A    between atoms: C4_4  and  N1_5
REMARK    3  A    between atoms: N1_5  and  C5_6
REMARK    4  A    between atoms: N1_5  and  S1_8
REMARK    5  A    between atoms: S1_8  and  C7_11
REMARK    6  A    between atoms: C7_11  and  C9_14
REMARK    7  A    between atoms: C11_16  and  C12_17
REMARK    8  A    between atoms: C12_17  and  O3_18
REMARK    9  A    between atoms: C15_25  and  C16_26
ROOT
HETATM    1  C3  UNL     1       0.071  49.189  21.843  1.00  0.00     0.045 A
HETATM    2  C4  UNL     1       0.126  49.842  20.606  1.00  0.00     0.078 A
HETATM    3  C11 UNL     1      -0.495  51.037  20.507  1.00  0.00     0.020 A
HETATM    4  C13 UNL     1      -1.181  51.646  21.582  1.00  0.00     0.089 A
HETATM    5 CL2  UNL     1      -1.964  53.193  21.402  1.00  0.00    -0.080 Cl
HETATM    6  C14 UNL     1      -1.203  50.966  22.776  1.00  0.00     0.135 A
HETATM    7  N2  UNL     1      -1.773  51.298  23.956  1.00  0.00    -0.334 N
ATOM      8  H2  UNL     1      -2.299  52.150  24.150  1.00  0.00     0.168 HD
HETATM    9  C15 UNL     1      -1.525  50.323  24.814  1.00  0.00     0.127 A
HETATM   10  C17 UNL     1      -0.787  49.369  24.148  1.00  0.00     0.135 A
HETATM   11  N3  UNL     1      -0.599  49.783  22.893  1.00  0.00    -0.306 N
ENDROOT
BRANCH   2  12
HETATM   12  N1  UNL     1       0.959  49.249  19.594  1.00  0.00    -0.272 N
BRANCH  12  13
HETATM   13  C5  UNL     1       0.247  48.314  18.695  1.00  0.00     0.137 C
HETATM   14  C6  UNL     1      -0.252  48.851  17.422  1.00  0.00     0.028 C
ENDBRANCH  12  13
BRANCH  12  15
HETATM   15  S1  UNL     1       2.574  49.563  19.271  1.00  0.00     0.255 S
HETATM   16  O1  UNL     1       3.137  50.465  20.395  1.00  0.00    -0.203 OA
HETATM   17  O2  UNL     1       2.618  50.521  18.057  1.00  0.00    -0.203 OA
BRANCH  15  18
HETATM   18  C7  UNL     1       3.728  48.333  18.922  1.00  0.00     0.155 C
HETATM   19  C8  UNL     1       4.132  48.267  17.439  1.00  0.00     0.052 C
HETATM   20 CL1  UNL     1       3.402  46.688  19.414  1.00  0.00    -0.101 Cl
BRANCH  18  21
HETATM   21  C9  UNL     1       5.035  48.704  19.683  1.00  0.00     0.039 C
HETATM   22  C10 UNL     1       5.412  47.746  20.738  1.00  0.00     0.008 C
ENDBRANCH  18  21
ENDBRANCH  15  18
ENDBRANCH  12  15
ENDBRANCH   2  12
BRANCH   1  23
HETATM   23  C2  UNL     1       0.621  47.861  22.073  1.00  0.00     0.055 C
HETATM   24  C1  UNL     1       2.040  47.858  22.631  1.00  0.00     0.011 C
ENDBRANCH   1  23
BRANCH   3  25
HETATM   25  C12 UNL     1      -0.565  51.772  19.247  1.00  0.00     0.207 C
BRANCH  25  26
HETATM   26  O3  UNL     1       0.547  52.629  19.099  1.00  0.00    -0.396 OA
ATOM     27  H3  UNL     1       1.304  52.153  18.782  1.00  0.00     0.209 HD
ENDBRANCH  25  26
ENDBRANCH   3  25
BRANCH   9  28
HETATM   28  C16 UNL     1      -1.969  50.302  26.198  1.00  0.00     0.228 C
HETATM   29  O4  UNL     1      -1.176  50.120  27.141  1.00  0.00    -0.643 OA
HETATM   30  O5  UNL     1      -3.311  50.487  26.484  1.00  0.00    -0.643 OA
ENDBRANCH   9  28
TORSDOF 9
ENDMDL