MODEL 4
REMARK VINA RESULT: -6.253044731      3.344      7.084
REMARK  10 active torsions:
REMARK  status: ('A' for Active; 'I' for Inactive)
REMARK    1  A    between atoms: C4_5  and  C5_6
REMARK    2  A    between atoms: C6_7  and  C7_8
REMARK    3  A    between atoms: C9_11  and  O3_12
REMARK    4  A    between atoms: O3_12  and  C10_13
REMARK    5  A    between atoms: C10_13  and  C11_15
REMARK    6  A    between atoms: C13_19  and  C14_20
REMARK    7  A    between atoms: C15_21  and  C16_22
REMARK    8  A    between atoms: C16_22  and  C18_24
REMARK    9  A    between atoms: C18_24  and  O5_25
REMARK   10  A    between atoms: C18_24  and  C19_27
ROOT
HETATM    1  C1  UNL     1      -1.411  50.650  16.725  1.00  0.00     0.012 C
HETATM    2  C2  UNL     1      -1.443  50.380  18.214  1.00  0.00     0.009 C
HETATM    3  C3  UNL     1      -1.749  51.676  18.913  1.00  0.00     0.173 C
HETATM    4  O1  UNL     1      -1.871  51.577  20.274  1.00  0.00    -0.377 OA
HETATM    5  C4  UNL     1      -1.393  50.403  20.825  1.00  0.00     0.173 C
HETATM    6  C12 UNL     1      -0.147  49.916  20.185  1.00  0.00    -0.047 C
HETATM    7  C13 UNL     1       0.948  49.623  20.847  1.00  0.00     0.005 C
HETATM    8  C20 UNL     1      -0.153  49.757  18.708  1.00  0.00     0.043 C
ENDROOT
BRANCH   5   9
HETATM    9  C5  UNL     1      -1.288  50.511  22.289  1.00  0.00     0.010 C
HETATM   10  C6  UNL     1      -0.957  51.659  22.841  1.00  0.00     0.032 C
BRANCH  10  11
HETATM   11  C7  UNL     1      -0.830  51.846  24.317  1.00  0.00     0.287 C
HETATM   12  O2  UNL     1       0.127  52.802  24.543  1.00  0.00    -0.353 OA
HETATM   13  C8  UNL     1       1.293  52.038  24.733  1.00  0.00     0.232 C
HETATM   14  C9  UNL     1       0.749  50.945  25.626  1.00  0.00     0.289 C
HETATM   15  O4  UNL     1      -0.481  50.692  24.970  1.00  0.00    -0.326 OA
BRANCH  14  16
HETATM   16  O3  UNL     1       0.424  51.428  26.868  1.00  0.00    -0.338 OA
BRANCH  16  17
HETATM   17  C10 UNL     1       1.032  50.804  27.924  1.00  0.00     0.234 C
HETATM   18 CL1  UNL     1       2.012  49.463  27.231  1.00  0.00    -0.094 Cl
BRANCH  17  19
HETATM   19  C11 UNL     1       0.049  50.159  28.865  1.00  0.00     0.162 C
HETATM   20 CL2  UNL     1      -1.607  50.142  28.281  1.00  0.00    -0.127 Cl
ENDBRANCH  17  19
ENDBRANCH  16  17
ENDBRANCH  14  16
ENDBRANCH  10  11
ENDBRANCH   5   9
BRANCH   7  21
HETATM   21  C14 UNL     1       2.139  49.151  20.171  1.00  0.00    -0.003 C
HETATM   22  C15 UNL     1       3.306  48.939  20.807  1.00  0.00    -0.019 C
BRANCH  22  23
HETATM   23  C16 UNL     1       4.475  48.462  20.073  1.00  0.00     0.043 C
HETATM   24  C17 UNL     1       4.197  48.286  18.591  1.00  0.00     0.017 C
BRANCH  23  25
HETATM   25  C18 UNL     1       5.674  49.321  20.322  1.00  0.00     0.226 C
BRANCH  25  26
HETATM   26  O5  UNL     1       5.383  50.217  21.375  1.00  0.00    -0.384 OA
ATOM     27  H5  UNL     1       5.149  49.717  22.148  1.00  0.00     0.210 HD
ENDBRANCH  25  26
BRANCH  25  28
HETATM   28  C19 UNL     1       6.889  48.574  20.674  1.00  0.00     0.203 C
HETATM   29  O6  UNL     1       7.506  47.927  19.803  1.00  0.00    -0.646 OA
HETATM   30  O7  UNL     1       7.372  48.580  21.990  1.00  0.00    -0.646 OA
ENDBRANCH  25  28
ENDBRANCH  23  25
ENDBRANCH  22  23
ENDBRANCH   7  21
TORSDOF 10
ENDMDL