MODEL 1
REMARK VINA RESULT: -7.317101538      0.000      0.000
REMARK  9 active torsions:
REMARK  status: ('A' for Active; 'I' for Inactive)
REMARK    1  A    between atoms: C2_2  and  N1_4
REMARK    2  A    between atoms: N1_4  and  C4_6
REMARK    3  A    between atoms: C5_9  and  N3_10
REMARK    4  A    between atoms: C8_13  and  O1_14
REMARK    5  A    between atoms: O1_14  and  C9_15
REMARK    6  A    between atoms: C9_15  and  C10_16
REMARK    7  A    between atoms: C10_16  and  C11_17
REMARK    8  A    between atoms: C11_17  and  C12_18
REMARK    9  A    between atoms: C16_24  and  N4_25
ROOT
HETATM    1  C4  UNL     1       4.550  50.033  21.619  1.00  0.00     0.681 A
HETATM    2  N2  UNL     1       4.390  49.991  22.959  1.00  0.00    -0.177 N
ATOM      3  H2  UNL     1       5.191  49.794  23.558  1.00  0.00     0.185 HD
HETATM    4  C5  UNL     1       3.187  50.205  23.505  1.00  0.00     0.122 A
HETATM    5  C15 UNL     1       2.124  50.469  22.663  1.00  0.00     0.097 A
HETATM    6  C16 UNL     1       2.260  50.517  21.291  1.00  0.00     0.122 A
HETATM    7  N6  UNL     1       3.514  50.289  20.809  1.00  0.00    -0.177 N
ATOM      8  H6  UNL     1       3.669  50.314  19.802  1.00  0.00     0.185 HD
ENDROOT
BRANCH   4   9
HETATM    9  N3  UNL     1       3.019  50.161  24.915  1.00  0.00    -0.367 N
HETATM   10  C6  UNL     1       2.527  48.934  25.523  1.00  0.00     0.127 C
HETATM   11  C7  UNL     1       3.201  48.888  26.902  1.00  0.00     0.051 C
HETATM   12  C8  UNL     1       2.547  49.919  27.751  1.00  0.00     0.124 C
HETATM   13  C13 UNL     1       2.335  51.219  26.950  1.00  0.00     0.051 C
HETATM   14  C14 UNL     1       3.297  51.258  25.781  1.00  0.00     0.127 C
BRANCH  12  15
HETATM   15  O1  UNL     1       1.288  49.514  28.168  1.00  0.00    -0.386 OA
BRANCH  15  16
HETATM   16  C9  UNL     1       0.398  50.560  28.090  1.00  0.00     0.168 C
BRANCH  16  17
HETATM   17  C10 UNL     1      -0.994  50.096  27.847  1.00  0.00     0.032 C
BRANCH  17  18
HETATM   18  C11 UNL     1      -1.304  50.026  26.363  1.00  0.00     0.073 C
BRANCH  18  19
HETATM   19  C12 UNL     1      -2.729  50.354  26.062  1.00  0.00     0.353 C
HETATM   20  F1  UNL     1      -3.411  50.442  27.276  1.00  0.00    -0.214 F
HETATM   21  F2  UNL     1      -3.276  49.387  25.244  1.00  0.00    -0.214 F
ENDBRANCH  18  19
ENDBRANCH  17  18
ENDBRANCH  16  17
ENDBRANCH  15  16
ENDBRANCH  12  15
ENDBRANCH   4   9
BRANCH   1  22
HETATM   22  N1  UNL     1       5.703  49.824  21.144  1.00  0.00    -0.222 N
ATOM     23  H1  UNL     1       6.188  50.599  20.692  1.00  0.00     0.178 HD
BRANCH  22  24
HETATM   24  C2  UNL     1       6.357  48.564  21.208  1.00  0.00     0.091 C
HETATM   25  C1  UNL     1       6.897  48.268  19.808  1.00  0.00     0.032 C
HETATM   26  C3  UNL     1       7.511  48.545  22.208  1.00  0.00     0.032 C
ENDBRANCH  22  24
ENDBRANCH   1  22
BRANCH   6  27
HETATM   27  N4  UNL     1       1.168  50.763  20.417  1.00  0.00    -0.365 N
HETATM   28  C17 UNL     1       1.353  50.501  19.010  1.00  0.00     0.126 C
HETATM   29  C18 UNL     1       0.675  49.185  18.678  1.00  0.00     0.039 C
HETATM   30  C19 UNL     1      -0.831  49.421  18.677  1.00  0.00     0.115 C
HETATM   31  N5  UNL     1      -1.170  50.763  18.966  1.00  0.00    -0.416 N
HETATM   32  C20 UNL     1      -1.279  51.153  20.319  1.00  0.00     0.090 C
ATOM     33  H5  UNL     1      -1.333  51.434  18.215  1.00  0.00     0.153 HD
HETATM   34  C21 UNL     1      -1.881  52.574  20.311  1.00  0.00     0.033 C
HETATM   35  C22 UNL     1      -0.019  51.244  21.108  1.00  0.00     0.148 C
ENDBRANCH   6  27
TORSDOF 9
ENDMDL