MODEL 1
REMARK VINA RESULT: -6.470827616      0.000      0.000
REMARK  10 active torsions:
REMARK  status: ('A' for Active; 'I' for Inactive)
REMARK    1  A    between atoms: C2_2  and  O1_3
REMARK    2  A    between atoms: C2_2  and  C9_14
REMARK    3  A    between atoms: O1_3  and  C3_4
REMARK    4  A    between atoms: C3_4  and  N1_5
REMARK    5  A    between atoms: C4_6  and  O2_7
REMARK    6  A    between atoms: C7_11  and  C8_12
REMARK    7  A    between atoms: C9_14  and  O4_16
REMARK    8  A    between atoms: O4_16  and  C10_17
REMARK    9  A    between atoms: C10_17  and  C11_18
REMARK   10  A    between atoms: C10_17  and  C12_21
ROOT
HETATM    1  C9  UNL     1       0.358  52.856  24.691  1.00  0.00     0.289 C
HETATM    2  O3  UNL     1       0.234  53.857  25.447  1.00  0.00    -0.262 OA
ENDROOT
BRANCH   1   3
HETATM    3  C2  UNL     1      -0.803  52.268  23.952  1.00  0.00     0.225 C
HETATM    4  C1  UNL     1      -1.463  51.241  24.902  1.00  0.00     0.051 C
BRANCH   3   5
HETATM    5  O1  UNL     1      -0.465  51.681  22.797  1.00  0.00    -0.331 OA
BRANCH   5   6
HETATM    6  C3  UNL     1      -1.291  50.873  22.113  1.00  0.00     0.236 C
BRANCH   6   7
HETATM    7  N1  UNL     1      -1.576  51.213  20.739  1.00  0.00    -0.286 N
HETATM    8  C4  UNL     1      -2.009  52.391  20.301  1.00  0.00     0.147 A
HETATM    9  C5  UNL     1      -2.180  52.270  18.913  1.00  0.00     0.058 A
HETATM   10  C6  UNL     1      -1.828  50.983  18.584  1.00  0.00     0.030 A
HETATM   11  C7  UNL     1      -1.450  50.318  19.715  1.00  0.00     0.030 A
BRANCH   8  12
HETATM   12  O2  UNL     1      -2.276  53.590  20.979  1.00  0.00    -0.346 OA
ATOM     13  H2  UNL     1      -3.048  54.143  20.995  1.00  0.00     0.219 HD
ENDBRANCH   8  12
BRANCH  11  14
HETATM   14  C8  UNL     1      -0.991  48.903  19.828  1.00  0.00     0.142 C
HETATM   15 BR1  UNL     1      -0.033  48.365  18.228  1.00  0.00    -0.090 Br
ENDBRANCH  11  14
ENDBRANCH   6   7
ENDBRANCH   5   6
ENDBRANCH   3   5
ENDBRANCH   1   3
BRANCH   1  16
HETATM   16  O4  UNL     1       1.639  52.335  24.588  1.00  0.00    -0.303 OA
BRANCH  16  17
HETATM   17  C10 UNL     1       1.982  51.060  25.116  1.00  0.00     0.236 C
BRANCH  17  18
HETATM   18  C11 UNL     1       2.778  51.184  26.347  1.00  0.00     0.204 C
HETATM   19  O5  UNL     1       3.578  50.228  26.622  1.00  0.00    -0.646 OA
HETATM   20  O6  UNL     1       2.735  52.231  27.219  1.00  0.00    -0.646 OA
ENDBRANCH  17  18
BRANCH  17  21
HETATM   21  C12 UNL     1       2.691  50.206  24.116  1.00  0.00     0.027 C
HETATM   22  C13 UNL     1       3.021  51.057  22.892  1.00  0.00     0.008 C
HETATM   23  C14 UNL     1       3.875  50.293  21.920  1.00  0.00     0.002 C
HETATM   24  C15 UNL     1       3.498  48.840  21.966  1.00  0.00     0.020 C
HETATM   25  C16 UNL     1       2.016  48.713  22.241  1.00  0.00     0.082 C
HETATM   26 CL1  UNL     1       1.425  47.093  21.857  1.00  0.00    -0.125 Cl
HETATM   27  C17 UNL     1       1.719  49.098  23.687  1.00  0.00     0.028 C
ENDBRANCH  17  21
ENDBRANCH  16  17
ENDBRANCH   1  16
TORSDOF 10
ENDMDL