MODEL 3
REMARK VINA RESULT: -5.724004871      1.277      2.086
REMARK  13 active torsions:
REMARK  status: ('A' for Active; 'I' for Inactive)
REMARK    1  A    between atoms: C2_2  and  O1_5
REMARK    2  A    between atoms: O1_5  and  C5_6
REMARK       I    between atoms: C5_6  and  N1_8
REMARK    3  A    between atoms: N1_8  and  C6_10
REMARK    4  A    between atoms: C6_10  and  N2_11
REMARK    5  A    between atoms: C6_10  and  C12_20
REMARK       I    between atoms: N2_11  and  C7_13
REMARK    6  A    between atoms: C7_13  and  O4_15
REMARK    7  A    between atoms: O4_15  and  C8_16
REMARK    8  A    between atoms: C12_20  and  C13_22
REMARK    9  A    between atoms: C14_24  and  C15_25
REMARK   10  A    between atoms: C15_25  and  N3_26
REMARK   11  A    between atoms: N3_26  and  C16_27
REMARK   12  A    between atoms: N3_26  and  C18_31
REMARK   13  A    between atoms: C16_27  and  C17_28
ROOT
HETATM    1  C6  UNL     1       1.286  48.833  22.418  1.00  0.00     0.264 C
ENDROOT
BRANCH   1   2
HETATM    2  N1  UNL     1       2.168  48.923  21.204  1.00  0.00    -0.309 N
HETATM    3  C5  UNL     1       2.585  47.740  20.543  1.00  0.00     0.363 C
HETATM    4  O2  UNL     1       2.233  46.594  20.952  1.00  0.00    -0.238 OA
ATOM      5  H1  UNL     1       2.466  49.834  20.855  1.00  0.00     0.167 HD
BRANCH   3   6
HETATM    6  O1  UNL     1       3.396  47.793  19.425  1.00  0.00    -0.294 OA
BRANCH   6   7
HETATM    7  C2  UNL     1       2.999  48.213  18.146  1.00  0.00     0.061 C
HETATM    8  C1  UNL     1       4.012  47.649  17.150  1.00  0.00     0.046 C
HETATM    9  C3  UNL     1       1.644  47.647  17.762  1.00  0.00     0.046 C
HETATM   10  C4  UNL     1       2.950  49.710  17.974  1.00  0.00     0.046 C
ENDBRANCH   6   7
ENDBRANCH   3   6
ENDBRANCH   1   2
BRANCH   1  11
HETATM   11  N2  UNL     1       0.317  49.858  22.184  1.00  0.00    -0.309 N
HETATM   12  C7  UNL     1      -0.685  49.677  21.204  1.00  0.00     0.363 C
HETATM   13  O3  UNL     1      -0.769  48.620  20.518  1.00  0.00    -0.238 OA
ATOM     14  H2  UNL     1       0.349  50.722  22.726  1.00  0.00     0.167 HD
BRANCH  12  15
HETATM   15  O4  UNL     1      -1.601  50.673  20.975  1.00  0.00    -0.294 OA
BRANCH  15  16
HETATM   16  C8  UNL     1      -1.410  51.807  20.188  1.00  0.00     0.061 C
HETATM   17  C9  UNL     1      -1.822  53.089  20.885  1.00  0.00     0.046 C
HETATM   18  C10 UNL     1      -0.019  51.984  19.651  1.00  0.00     0.046 C
HETATM   19  C11 UNL     1      -2.339  51.649  18.980  1.00  0.00     0.046 C
ENDBRANCH  15  16
ENDBRANCH  12  15
ENDBRANCH   1  11
BRANCH   1  20
HETATM   20  C12 UNL     1       2.099  49.090  23.611  1.00  0.00     0.200 C
HETATM   21  O5  UNL     1       2.392  48.064  24.304  1.00  0.00    -0.291 OA
BRANCH  20  22
HETATM   22  C13 UNL     1       2.591  50.359  24.067  1.00  0.00     0.230 A
HETATM   23  O6  UNL     1       2.238  51.617  23.650  1.00  0.00    -0.362 OA
HETATM   24  C14 UNL     1       2.049  51.227  25.100  1.00  0.00     0.197 A
BRANCH  24  25
HETATM   25  C15 UNL     1       0.649  51.541  25.436  1.00  0.00     0.098 C
BRANCH  25  26
HETATM   26  N3  UNL     1      -0.141  50.465  25.805  1.00  0.00    -0.361 N
BRANCH  26  27
HETATM   27  C16 UNL     1      -0.022  49.663  26.912  1.00  0.00     0.133 C
BRANCH  27  28
HETATM   28  C17 UNL     1      -0.212  50.275  28.242  1.00  0.00     0.392 C
HETATM   29  F1  UNL     1       0.555  49.601  29.221  1.00  0.00    -0.208 F
HETATM   30  F2  UNL     1      -1.520  50.397  28.609  1.00  0.00    -0.208 F
ENDBRANCH  27  28
ENDBRANCH  26  27
BRANCH  26  31
HETATM   31  C18 UNL     1      -1.349  50.276  25.015  1.00  0.00     0.088 A
HETATM   32  C19 UNL     1      -2.061  51.451  24.516  1.00  0.00     0.028 A
HETATM   33  C20 UNL     1      -2.673  50.536  25.576  1.00  0.00     0.028 A
ENDBRANCH  26  31
ENDBRANCH  25  26
ENDBRANCH  24  25
ENDBRANCH  20  22
ENDBRANCH   1  20
TORSDOF 13
ENDMDL