MODEL 2
REMARK VINA RESULT: -6.828130269      3.356      7.016
REMARK  9 active torsions:
REMARK  status: ('A' for Active; 'I' for Inactive)
REMARK    1  A    between atoms: C2_2  and  C3_3
REMARK       I    between atoms: C3_3  and  N1_5
REMARK    2  A    between atoms: N1_5  and  C4_7
REMARK    3  A    between atoms: C7_12  and  N3_13
REMARK       I    between atoms: N3_13  and  C8_15
REMARK    4  A    between atoms: C8_15  and  C9_17
REMARK    5  A    between atoms: C9_17  and  C10_18
REMARK    6  A    between atoms: C10_18  and  S1_19
REMARK    7  A    between atoms: S1_19  and  C11_22
REMARK    8  A    between atoms: C14_25  and  O5_26
REMARK    9  A    between atoms: O5_26  and  C15_27
ROOT
HETATM    1  N3  UNL     1      -0.260  51.051  25.478  1.00  0.00    -0.320 N
ATOM      2  H3  UNL     1      -0.812  50.384  26.017  1.00  0.00     0.169 HD
HETATM    3  C8  UNL     1       0.877  51.720  26.066  1.00  0.00     0.223 C
HETATM    4  O2  UNL     1       1.523  52.528  25.365  1.00  0.00    -0.273 OA
ENDROOT
BRANCH   3   5
HETATM    5  C9  UNL     1       1.263  51.453  27.455  1.00  0.00     0.118 C
BRANCH   5   6
HETATM    6  C10 UNL     1       2.643  50.929  27.574  1.00  0.00     0.155 C
BRANCH   6   7
HETATM    7  S1  UNL     1       2.799  49.304  26.956  1.00  0.00     0.176 S
HETATM    8  O3  UNL     1       3.476  48.454  28.030  1.00  0.00    -0.223 OA
HETATM    9  O4  UNL     1       1.536  48.638  26.603  1.00  0.00    -0.223 OA
BRANCH   7  10
HETATM   10  C11 UNL     1       3.846  49.330  25.529  1.00  0.00     0.059 A
HETATM   11  C12 UNL     1       4.316  48.149  25.003  1.00  0.00     0.026 A
HETATM   12  C13 UNL     1       5.145  48.159  23.874  1.00  0.00     0.038 A
HETATM   13  C14 UNL     1       5.488  49.347  23.295  1.00  0.00     0.075 A
HETATM   14  C16 UNL     1       5.018  50.562  23.817  1.00  0.00     0.038 A
HETATM   15  C17 UNL     1       4.213  50.509  24.918  1.00  0.00     0.026 A
BRANCH  13  16
HETATM   16  O5  UNL     1       6.293  49.390  22.196  1.00  0.00    -0.290 OA
BRANCH  16  17
HETATM   17  C15 UNL     1       5.993  48.939  20.922  1.00  0.00     0.505 C
HETATM   18  F1  UNL     1       7.157  49.097  20.158  1.00  0.00    -0.184 F
HETATM   19  F2  UNL     1       5.013  49.799  20.410  1.00  0.00    -0.184 F
ENDBRANCH  16  17
ENDBRANCH  13  16
ENDBRANCH   7  10
ENDBRANCH   6   7
ENDBRANCH   5   6
ENDBRANCH   3   5
BRANCH   1  20
HETATM   20  C7  UNL     1      -0.586  51.351  24.123  1.00  0.00     0.102 A
HETATM   21  C5  UNL     1      -0.282  50.649  22.991  1.00  0.00     0.041 A
HETATM   22  N2  UNL     1      -0.693  51.125  21.848  1.00  0.00    -0.338 N
HETATM   23  C6  UNL     1       0.513  49.355  23.106  1.00  0.00     0.071 C
HETATM   24  C4  UNL     1      -1.384  52.266  21.840  1.00  0.00     0.153 A
ATOM     25  H2  UNL     1      -0.490  50.635  20.977  1.00  0.00     0.168 HD
HETATM   26  S2  UNL     1      -1.459  52.680  23.492  1.00  0.00    -0.034 SA
BRANCH  24  27
HETATM   27  N1  UNL     1      -1.879  52.898  20.791  1.00  0.00    -0.307 N
HETATM   28  C3  UNL     1      -1.411  52.465  19.524  1.00  0.00     0.223 C
HETATM   29  O1  UNL     1      -0.343  52.927  19.054  1.00  0.00    -0.273 OA
ATOM     30  H1  UNL     1      -2.558  53.653  20.887  1.00  0.00     0.171 HD
BRANCH  28  31
HETATM   31  C2  UNL     1      -2.148  51.467  18.711  1.00  0.00     0.099 C
HETATM   32  C1  UNL     1      -1.244  50.331  18.290  1.00  0.00     0.014 C
ENDBRANCH  28  31
ENDBRANCH  24  27
ENDBRANCH   1  20
TORSDOF 9
ENDMDL