MODEL 3
REMARK VINA RESULT: -6.889023066      2.206      3.842
REMARK  9 active torsions:
REMARK  status: ('A' for Active; 'I' for Inactive)
REMARK    1  A    between atoms: C2_2  and  C3_5
REMARK    2  A    between atoms: C3_5  and  N1_6
REMARK    3  A    between atoms: C3_5  and  C4_10
REMARK    4  A    between atoms: C6_17  and  C7_18
REMARK    5  A    between atoms: C7_18  and  C8_19
REMARK    6  A    between atoms: C8_19  and  C9_20
REMARK       I    between atoms: C9_20  and  N5_22
REMARK    7  A    between atoms: N5_22  and  C10_24
REMARK    8  A    between atoms: C10_24  and  C11_25
REMARK    9  A    between atoms: N6_29  and  C15_30
ROOT
HETATM    1  C4  UNL     1       2.754  49.584  26.402  1.00  0.00     0.088 A
HETATM    2  N2  UNL     1       3.355  49.613  27.614  1.00  0.00    -0.286 N
ATOM      3  H2  UNL     1       4.344  49.434  27.788  1.00  0.00     0.188 HD
HETATM    4  N3  UNL     1       2.472  49.906  28.521  1.00  0.00    -0.240 N
ATOM      5  H3  UNL     1       2.644  49.996  29.523  1.00  0.00     0.208 HD
HETATM    6  N4  UNL     1       1.280  50.069  27.894  1.00  0.00    -0.279 N
HETATM    7  C5  UNL     1       1.439  49.877  26.600  1.00  0.00     0.064 A
HETATM    8  C6  UNL     1       0.310  49.980  25.642  1.00  0.00     0.062 C
HETATM    9  C21 UNL     1      -0.887  49.511  26.392  1.00  0.00     0.016 C
HETATM   10  C22 UNL     1      -1.136  50.075  27.739  1.00  0.00     0.023 C
HETATM   11  C23 UNL     1       0.047  50.404  28.547  1.00  0.00     0.150 C
ENDROOT
BRANCH   8  12
HETATM   12  C7  UNL     1       0.207  51.298  25.007  1.00  0.00    -0.010 C
BRANCH  12  13
HETATM   13  C8  UNL     1      -1.066  51.943  24.691  1.00  0.00     0.071 C
BRANCH  13  14
HETATM   14  C9  UNL     1      -1.407  52.582  23.454  1.00  0.00     0.240 C
HETATM   15  O1  UNL     1      -1.844  53.739  23.355  1.00  0.00    -0.269 OA
HETATM   16  N5  UNL     1      -1.254  51.879  22.207  1.00  0.00    -0.357 N
ATOM     17  H5  UNL     1      -0.895  50.925  22.226  1.00  0.00     0.162 HD
BRANCH  16  18
HETATM   18  C10 UNL     1      -1.581  52.456  20.954  1.00  0.00     0.127 C
BRANCH  18  19
HETATM   19  C11 UNL     1      -1.990  51.509  19.866  1.00  0.00     0.005 C
HETATM   20  C12 UNL     1      -1.251  51.834  18.571  1.00  0.00     0.008 C
HETATM   21  C13 UNL     1      -1.636  50.778  17.566  1.00  0.00     0.031 C
HETATM   22  C14 UNL     1      -0.857  49.497  17.765  1.00  0.00     0.273 C
HETATM   23  N6  UNL     1       0.146  49.727  18.765  1.00  0.00     0.093 N
HETATM   24  C19 UNL     1      -0.348  49.612  20.091  1.00  0.00     0.273 C
HETATM   25  C20 UNL     1      -1.781  50.064  20.254  1.00  0.00     0.036 C
BRANCH  23  26
HETATM   26  C15 UNL     1       1.369  49.029  18.574  1.00  0.00     0.223 C
HETATM   27  C16 UNL     1       2.474  49.701  17.839  1.00  0.00     0.036 C
HETATM   28  C17 UNL     1       3.096  50.099  19.128  1.00  0.00     0.004 C
HETATM   29  C18 UNL     1       2.226  49.042  19.816  1.00  0.00     0.036 C
ENDBRANCH  23  26
ENDBRANCH  18  19
ENDBRANCH  16  18
ENDBRANCH  13  14
ENDBRANCH  12  13
ENDBRANCH   8  12
BRANCH   1  30
HETATM   30  C3  UNL     1       3.467  49.286  25.174  1.00  0.00     0.307 C
BRANCH  30  31
HETATM   31  C2  UNL     1       3.958  50.565  24.480  1.00  0.00     0.273 C
HETATM   32  C1  UNL     1       3.331  50.699  23.113  1.00  0.00     0.093 C
HETATM   33  F1  UNL     1       5.314  50.608  24.358  1.00  0.00    -0.204 F
HETATM   34  F2  UNL     1       3.571  51.644  25.267  1.00  0.00    -0.204 F
ENDBRANCH  30  31
BRANCH  30  35
HETATM   35  N1  UNL     1       4.596  48.432  25.281  1.00  0.00    -0.064 N
ATOM     36  H13 UNL     1       4.376  47.516  25.672  1.00  0.00     0.275 HD
ATOM     37  H12 UNL     1       4.942  48.103  24.380  1.00  0.00     0.275 HD
ATOM     38  H11 UNL     1       5.294  48.944  25.820  1.00  0.00     0.275 HD
ENDBRANCH  30  35
ENDBRANCH   1  30
TORSDOF 9
ENDMDL