MODEL 4
REMARK VINA RESULT: -5.768990298      2.234      4.781
REMARK  10 active torsions:
REMARK  status: ('A' for Active; 'I' for Inactive)
REMARK    1  A    between atoms: C4_8  and  C5_9
REMARK    2  A    between atoms: C5_9  and  C6_10
REMARK    3  A    between atoms: C5_9  and  N4_23
REMARK    4  A    between atoms: C6_10  and  C7_11
REMARK       I    between atoms: C7_11  and  N3_13
REMARK    5  A    between atoms: N3_13  and  C8_15
REMARK    6  A    between atoms: C8_15  and  C9_16
REMARK    7  A    between atoms: C9_16  and  C10_18
REMARK    8  A    between atoms: C10_18  and  O2_21
REMARK    9  A    between atoms: N4_23  and  C13_25
REMARK   10  A    between atoms: C13_25  and  C14_26
ROOT
HETATM    1  C5  UNL     1       2.527  49.744  20.613  1.00  0.00     0.044 C
ENDROOT
BRANCH   1   2
HETATM    2  C4  UNL     1       3.961  49.497  20.658  1.00  0.00     0.091 A
HETATM    3  N1  UNL     1       4.919  50.030  21.428  1.00  0.00    -0.294 N
HETATM    4  C1  UNL     1       4.755  50.981  22.510  1.00  0.00     0.178 C
HETATM    5  N2  UNL     1       6.135  49.532  21.094  1.00  0.00    -0.308 N
HETATM    6  C2  UNL     1       6.016  48.667  20.105  1.00  0.00     0.129 A
ATOM      7  H2  UNL     1       7.015  49.789  21.542  1.00  0.00     0.186 HD
HETATM    8  C3  UNL     1       4.674  48.622  19.811  1.00  0.00     0.058 A
HETATM    9 BR1  UNL     1       3.890  47.537  18.456  1.00  0.00    -0.047 Br
ENDBRANCH   1   2
BRANCH   1  10
HETATM   10  C6  UNL     1       1.510  49.059  21.397  1.00  0.00     0.161 C
BRANCH  10  11
HETATM   11  C7  UNL     1       0.790  49.909  22.386  1.00  0.00     0.223 C
HETATM   12  O1  UNL     1       1.426  50.807  22.942  1.00  0.00    -0.273 OA
HETATM   13  N3  UNL     1      -0.557  49.684  22.662  1.00  0.00    -0.359 N
ATOM     14  H3  UNL     1      -0.962  48.904  22.142  1.00  0.00     0.162 HD
BRANCH  13  15
HETATM   15  C8  UNL     1      -1.469  50.335  23.527  1.00  0.00     0.145 C
BRANCH  15  16
HETATM   16  C9  UNL     1      -1.777  49.788  24.855  1.00  0.00     0.133 C
HETATM   17 CL1  UNL     1      -3.263  50.393  25.563  1.00  0.00    -0.120 Cl
BRANCH  16  18
HETATM   18  C10 UNL     1      -0.676  50.020  25.878  1.00  0.00     0.069 C
HETATM   19  C11 UNL     1       0.299  48.881  25.940  1.00  0.00     0.047 C
HETATM   20  C12 UNL     1      -1.272  50.176  27.263  1.00  0.00     0.047 C
BRANCH  18  21
HETATM   21  O2  UNL     1       0.044  51.185  25.612  1.00  0.00    -0.389 OA
ATOM     22  H2  UNL     1       0.981  51.033  25.628  1.00  0.00     0.210 HD
ENDBRANCH  18  21
ENDBRANCH  16  18
ENDBRANCH  15  16
ENDBRANCH  13  15
ENDBRANCH  10  11
ENDBRANCH   1  10
BRANCH   1  23
HETATM   23  N4  UNL     1       2.191  50.742  19.808  1.00  0.00    -0.385 N
ATOM     24  H4  UNL     1       2.654  51.645  19.898  1.00  0.00     0.159 HD
BRANCH  23  25
HETATM   25  C13 UNL     1       1.168  50.554  18.801  1.00  0.00     0.184 C
BRANCH  25  26
HETATM   26  C14 UNL     1      -0.123  51.149  19.225  1.00  0.00     0.070 A
HETATM   27  C15 UNL     1      -0.396  52.517  19.353  1.00  0.00     0.036 A
HETATM   28  C16 UNL     1      -1.700  52.647  19.767  1.00  0.00     0.027 A
HETATM   29  C17 UNL     1      -2.184  51.366  19.882  1.00  0.00     0.142 A
HETATM   30  O3  UNL     1      -1.239  50.548  19.559  1.00  0.00    -0.325 OA
ENDBRANCH  25  26
ENDBRANCH  23  25
ENDBRANCH   1  23
TORSDOF 10
ENDMDL