MODEL 2
REMARK VINA RESULT: -6.429293166      0.175      1.653
REMARK  10 active torsions:
REMARK  status: ('A' for Active; 'I' for Inactive)
REMARK    1  A    between atoms: C2_2  and  N1_3
REMARK    2  A    between atoms: N2_6  and  C5_7
REMARK    3  A    between atoms: C5_7  and  C6_8
REMARK    4  A    between atoms: C5_7  and  C12_16
REMARK    5  A    between atoms: C12_16  and  C14_18
REMARK    6  A    between atoms: C14_18  and  O1_19
REMARK    7  A    between atoms: C14_18  and  C15_21
REMARK    8  A    between atoms: C15_21  and  O2_22
REMARK    9  A    between atoms: C15_21  and  C16_24
REMARK   10  A    between atoms: C16_24  and  C17_26
ROOT
HETATM    1  C17 UNL     1       2.992  49.783  27.299  1.00  0.00     0.105 C
HETATM    2  C18 UNL     1       3.020  51.191  27.838  1.00  0.00     0.039 C
HETATM    3  C19 UNL     1       1.509  49.416  27.259  1.00  0.00     0.039 C
HETATM    4  C20 UNL     1       3.611  48.899  28.270  1.00  0.00     0.076 C
HETATM    5  N3  UNL     1       4.124  48.171  29.041  1.00  0.00    -0.196 NA
ENDROOT
BRANCH   1   6
HETATM    6  C16 UNL     1       3.621  49.668  25.963  1.00  0.00     0.179 C
HETATM    7  O3  UNL     1       3.929  48.511  25.674  1.00  0.00    -0.293 OA
BRANCH   6   8
HETATM    8  C15 UNL     1       3.899  50.723  25.002  1.00  0.00     0.218 C
BRANCH   8   9
HETATM    9  C14 UNL     1       2.978  50.938  23.828  1.00  0.00     0.160 C
BRANCH   9  10
HETATM   10  C12 UNL     1       1.591  51.221  24.086  1.00  0.00     0.036 C
HETATM   11  C13 UNL     1       1.592  52.551  24.928  1.00  0.00     0.014 C
BRANCH  10  12
HETATM   12  C5  UNL     1       0.425  51.306  23.234  1.00  0.00     0.105 C
BRANCH  12  13
HETATM   13  N2  UNL     1       0.295  50.390  22.095  1.00  0.00    -0.281 NA
HETATM   14  C4  UNL     1       1.125  50.685  20.972  1.00  0.00     0.077 C
HETATM   15  C3  UNL     1       0.607  50.673  19.587  1.00  0.00     0.097 C
HETATM   16  N1  UNL     1      -0.753  50.517  19.333  1.00  0.00    -0.388 N
HETATM   17  C22 UNL     1      -1.353  49.751  20.346  1.00  0.00     0.137 C
HETATM   18  C21 UNL     1      -1.074  50.501  21.654  1.00  0.00     0.115 C
BRANCH  16  19
HETATM   19  C2  UNL     1      -1.477  51.525  18.674  1.00  0.00     0.118 C
HETATM   20  C1  UNL     1      -1.786  51.032  17.253  1.00  0.00     0.026 C
ENDBRANCH  16  19
ENDBRANCH  12  13
BRANCH  12  21
HETATM   21  C6  UNL     1      -0.752  50.853  24.093  1.00  0.00     0.004 A
HETATM   22  C7  UNL     1      -1.867  51.659  24.319  1.00  0.00     0.043 A
HETATM   23 CL1  UNL     1      -1.840  53.314  23.764  1.00  0.00    -0.084 Cl
HETATM   24  C8  UNL     1      -3.000  51.186  24.996  1.00  0.00     0.024 A
HETATM   25  C9  UNL     1      -3.037  49.912  25.455  1.00  0.00     0.003 A
HETATM   26  C10 UNL     1      -1.968  49.070  25.261  1.00  0.00     0.024 A
HETATM   27  C11 UNL     1      -0.857  49.582  24.575  1.00  0.00     0.043 A
HETATM   28 CL2  UNL     1       0.324  48.342  24.208  1.00  0.00    -0.084 Cl
ENDBRANCH  12  21
ENDBRANCH  10  12
ENDBRANCH   9  10
BRANCH   9  29
HETATM   29  O1  UNL     1       3.367  49.920  22.985  1.00  0.00    -0.392 OA
ATOM     30  H1  UNL     1       3.780  50.093  22.147  1.00  0.00     0.210 HD
ENDBRANCH   9  29
ENDBRANCH   8   9
BRANCH   8  31
HETATM   31  O2  UNL     1       5.229  50.564  24.469  1.00  0.00    -0.385 OA
ATOM     32  H2  UNL     1       5.678  51.391  24.594  1.00  0.00     0.210 HD
ENDBRANCH   8  31
ENDBRANCH   6   8
ENDBRANCH   1   6
TORSDOF 10
ENDMDL