MODEL 5
REMARK VINA RESULT: -7.780255042      1.421      2.144
REMARK  3 active torsions:
REMARK  status: ('A' for Active; 'I' for Inactive)
REMARK    1  A    between atoms: C6_6  and  N1_7
REMARK       I    between atoms: N1_7  and  C7_9
REMARK    2  A    between atoms: C7_9  and  C8_11
REMARK       I    between atoms: C8_11  and  N2_13
REMARK    3  A    between atoms: C14_19  and  C15_20
ROOT
HETATM    1  N1  UNL     1       7.806  10.549  43.568  1.00  0.00    -0.343 N
ATOM      2  H1  UNL     1       7.816  10.544  42.548  1.00  0.00     0.163 HD
HETATM    3  C7  UNL     1       8.648   9.633  44.267  1.00  0.00     0.310 C
HETATM    4  O1  UNL     1       8.598   9.680  45.510  1.00  0.00    -0.262 OA
ENDROOT
BRANCH   3   5
HETATM    5  C8  UNL     1       9.509   8.703  43.577  1.00  0.00     0.312 C
HETATM    6  O2  UNL     1      10.705   9.154  43.350  1.00  0.00    -0.262 OA
HETATM    7  N2  UNL     1       9.271   7.414  43.115  1.00  0.00    -0.331 N
HETATM    8  C9  UNL     1       7.957   6.849  43.315  1.00  0.00     0.127 C
HETATM    9  C14 UNL     1      10.325   6.700  42.408  1.00  0.00     0.176 C
HETATM   10  C10 UNL     1       7.125   7.118  42.080  1.00  0.00     0.020 C
HETATM   11  C11 UNL     1       7.899   7.743  40.948  1.00  0.00     0.002 C
HETATM   12  C12 UNL     1       9.009   6.932  40.390  1.00  0.00     0.002 C
HETATM   13  C13 UNL     1      10.370   7.274  40.998  1.00  0.00     0.035 C
BRANCH   9  14
HETATM   14  C15 UNL     1      11.587   6.553  43.085  1.00  0.00     0.254 C
HETATM   15  N3  UNL     1      11.644   6.100  44.443  1.00  0.00    -0.060 NA
HETATM   16  O3  UNL     1      12.714   6.804  42.529  1.00  0.00    -0.275 OA
ENDBRANCH   9  14
ENDBRANCH   3   5
BRANCH   1  17
HETATM   17  C6  UNL     1       6.974  11.448  44.226  1.00  0.00     0.037 C
HETATM   18  C2  UNL     1       5.818  10.849  45.014  1.00  0.00     0.014 C
HETATM   19  C1  UNL     1       4.852  10.103  44.172  1.00  0.00     0.012 C
HETATM   20  C3  UNL     1       5.262  12.179  45.520  1.00  0.00    -0.008 C
HETATM   21  C4  UNL     1       6.493  12.677  46.277  1.00  0.00     0.007 C
HETATM   22  C17 UNL     1       5.175  12.967  44.257  1.00  0.00     0.007 C
HETATM   23  C5  UNL     1       7.601  12.342  45.270  1.00  0.00     0.032 C
HETATM   24  C16 UNL     1       6.198  12.373  43.304  1.00  0.00     0.032 C
ENDBRANCH   1  17
TORSDOF 3
ENDMDL