MODEL 3
REMARK VINA RESULT: -7.029171670      2.723      4.255
REMARK  3 active torsions:
REMARK  status: ('A' for Active; 'I' for Inactive)
REMARK    1  A    between atoms: S1_2  and  N1_5
REMARK    2  A    between atoms: N1_5  and  C2_7
REMARK       I    between atoms: N2_10  and  C5_11
REMARK       I    between atoms: C5_11  and  N3_13
REMARK    3  A    between atoms: N3_13  and  C6_15
ROOT
HETATM    1  C2  UNL     1       8.670   6.329  42.806  1.00  0.00     0.131 C
HETATM    2  C3  UNL     1       7.722   6.152  41.619  1.00  0.00     0.049 C
HETATM    3  C4  UNL     1       7.629   7.567  41.121  1.00  0.00     0.131 C
HETATM    4  N2  UNL     1       7.710   8.395  42.309  1.00  0.00    -0.315 N
HETATM    5  C5  UNL     1       7.347   9.756  42.391  1.00  0.00     0.319 C
HETATM    6  O3  UNL     1       6.914  10.329  41.363  1.00  0.00    -0.247 OA
HETATM    7  N3  UNL     1       7.471  10.462  43.612  1.00  0.00    -0.338 N
ATOM      8  H3  UNL     1       7.827   9.967  44.430  1.00  0.00     0.164 HD
HETATM    9  C13 UNL     1       8.223   7.619  43.421  1.00  0.00     0.219 C
HETATM   10  C14 UNL     1       7.168   7.373  44.415  1.00  0.00     0.087 C
HETATM   11  N4  UNL     1       6.348   7.171  45.203  1.00  0.00    -0.195 NA
ENDROOT
BRANCH   1  12
HETATM   12  N1  UNL     1      10.003   6.490  42.301  1.00  0.00    -0.312 N
ATOM     13  H1  UNL     1      10.221   6.665  41.320  1.00  0.00     0.172 HD
BRANCH  12  14
HETATM   14  S1  UNL     1      11.197   6.354  43.541  1.00  0.00     0.223 S
HETATM   15  C1  UNL     1      12.526   5.325  42.999  1.00  0.00     0.185 C
HETATM   16  O1  UNL     1      10.538   5.673  44.727  1.00  0.00    -0.206 OA
HETATM   17  O2  UNL     1      11.691   7.704  43.912  1.00  0.00    -0.206 OA
ENDBRANCH  12  14
ENDBRANCH   1  12
BRANCH   7  18
HETATM   18  C6  UNL     1       7.114  11.854  43.746  1.00  0.00     0.086 C
HETATM   19  C7  UNL     1       7.658  12.395  45.028  1.00  0.00     0.025 C
HETATM   20  C8  UNL     1       6.820  12.102  46.232  1.00  0.00     0.002 C
HETATM   21  C9  UNL     1       5.579  12.963  46.307  1.00  0.00     0.000 C
HETATM   22  C10 UNL     1       4.386  12.245  45.731  1.00  0.00     0.000 C
HETATM   23  C11 UNL     1       4.789  11.362  44.562  1.00  0.00     0.002 C
HETATM   24  C12 UNL     1       5.636  12.069  43.567  1.00  0.00     0.025 C
ENDBRANCH   7  18
TORSDOF 3
ENDMDL