MODEL 3
REMARK VINA RESULT: -7.927952142      0.203      1.581
REMARK  5 active torsions:
REMARK  status: ('A' for Active; 'I' for Inactive)
REMARK    1  A    between atoms: N2_6  and  C5_7
REMARK    2  A    between atoms: C5_7  and  C6_8
REMARK    3  A    between atoms: C6_8  and  N4_13
REMARK    4  A    between atoms: N3_9  and  O1_11
REMARK    5  A    between atoms: N4_13  and  C7_15
ROOT
HETATM    1  C6  UNL     1       8.269   7.467  45.720  1.00  0.00     0.126 C
HETATM    2  N3  UNL     1       8.826   7.639  46.871  1.00  0.00    -0.255 N
ATOM      3  H3  UNL     1       8.338   8.222  47.552  1.00  0.00     0.195 HD
ENDROOT
BRANCH   1   4
HETATM    4  C5  UNL     1       9.022   6.611  44.768  1.00  0.00     0.350 C
BRANCH   4   5
HETATM    5  N2  UNL     1       8.886   7.008  43.403  1.00  0.00     0.100 N
HETATM    6  C4  UNL     1       8.170   6.130  42.561  1.00  0.00     0.278 C
HETATM    7  C3  UNL     1       8.872   4.882  42.156  1.00  0.00     0.075 C
HETATM    8  C2  UNL     1      10.101   5.077  41.340  1.00  0.00     0.064 C
HETATM    9  N1  UNL     1      10.222   6.293  40.650  1.00  0.00    -0.376 N
HETATM   10  C1  UNL     1       9.636   6.358  39.351  1.00  0.00     0.154 C
HETATM   11  C18 UNL     1      10.221   7.484  41.400  1.00  0.00     0.092 C
HETATM   12  C17 UNL     1      10.208   7.300  42.891  1.00  0.00     0.317 C
ENDBRANCH   4   5
ENDBRANCH   1   4
BRANCH   1  13
HETATM   13  N4  UNL     1       7.041   8.053  45.398  1.00  0.00    -0.368 N
ATOM     14  H4  UNL     1       6.239   7.428  45.322  1.00  0.00     0.161 HD
BRANCH  13  15
HETATM   15  C7  UNL     1       6.799   9.440  45.163  1.00  0.00     0.032 C
HETATM   16  C8  UNL     1       5.629   9.745  44.279  1.00  0.00     0.035 C
HETATM   17  C9  UNL     1       5.465  11.240  44.184  1.00  0.00    -0.012 C
HETATM   18  C10 UNL     1       6.626  11.901  43.503  1.00  0.00     0.009 C
HETATM   19  C14 UNL     1       5.239  11.824  45.558  1.00  0.00     0.009 C
HETATM   20  C11 UNL     1       7.866  11.561  44.339  1.00  0.00    -0.012 C
HETATM   21  C12 UNL     1       7.693  12.256  45.664  1.00  0.00     0.009 C
HETATM   22  C16 UNL     1       8.004  10.080  44.474  1.00  0.00     0.035 C
HETATM   23  C13 UNL     1       6.498  11.629  46.358  1.00  0.00    -0.012 C
HETATM   24  C15 UNL     1       6.704  10.130  46.512  1.00  0.00     0.035 C
ENDBRANCH  13  15
ENDBRANCH   1  13
BRANCH   2  25
HETATM   25  O1  UNL     1      10.025   7.093  47.242  1.00  0.00    -0.288 OA
ATOM     26  H1  UNL     1      10.263   6.870  48.135  1.00  0.00     0.244 HD
ENDBRANCH   2  25
TORSDOF 5
ENDMDL