MODEL 2
REMARK VINA RESULT: -6.698682040      0.245      1.033
REMARK  4 active torsions:
REMARK  status: ('A' for Active; 'I' for Inactive)
REMARK    1  A    between atoms: C2_2  and  C3_3
REMARK    2  A    between atoms: N1_4  and  C4_5
REMARK    3  A    between atoms: C5_8  and  C6_9
REMARK    4  A    between atoms: C14_18  and  C15_19
ROOT
HETATM    1  C3  UNL     1       9.874   6.663  41.478  1.00  0.00     0.352 C
HETATM    2  N1  UNL     1       9.529   7.239  42.784  1.00  0.00    -0.315 N
HETATM    3  C5  UNL     1       8.441   8.162  42.565  1.00  0.00     0.165 C
HETATM    4  C12 UNL     1       8.625   8.440  41.112  1.00  0.00     0.316 C
HETATM    5  S2  UNL     1       7.108   8.769  40.192  1.00  0.00    -0.128 SA
HETATM    6  C13 UNL     1       7.569   7.661  38.788  1.00  0.00     0.123 C
HETATM    7  C14 UNL     1       8.984   7.264  39.274  1.00  0.00     0.336 C
HETATM    8  N3  UNL     1       8.791   7.042  40.635  1.00  0.00     0.147 N
ENDROOT
BRANCH   3   9
HETATM    9  C6  UNL     1       8.541   9.425  43.291  1.00  0.00    -0.032 A
HETATM   10  C7  UNL     1       7.671   9.797  44.269  1.00  0.00     0.009 A
HETATM   11  C8  UNL     1       7.802  11.015  44.940  1.00  0.00     0.001 A
HETATM   12  C9  UNL     1       8.830  11.863  44.609  1.00  0.00     0.000 A
HETATM   13  C10 UNL     1       9.720  11.512  43.627  1.00  0.00     0.001 A
HETATM   14  C11 UNL     1       9.567  10.285  42.970  1.00  0.00     0.009 A
ENDBRANCH   3   9
BRANCH   2  15
HETATM   15  C4  UNL     1      10.116   6.972  44.044  1.00  0.00     0.185 C
HETATM   16  N2  UNL     1      11.487   7.229  44.315  1.00  0.00    -0.070 NA
HETATM   17  S1  UNL     1       9.249   6.342  45.292  1.00  0.00    -0.044 SA
ENDBRANCH   2  15
BRANCH   1  18
HETATM   18  C2  UNL     1       9.889   5.196  41.725  1.00  0.00     0.020 C
HETATM   19  C1  UNL     1       8.790   4.490  41.849  1.00  0.00     0.011 C
ENDBRANCH   1  18
BRANCH   7  20
HETATM   20  C15 UNL     1       9.396   6.176  38.403  1.00  0.00     0.208 C
HETATM   21  O1  UNL     1      10.401   6.111  37.665  1.00  0.00    -0.646 OA
HETATM   22  O2  UNL     1       8.563   5.041  38.377  1.00  0.00    -0.646 OA
ENDBRANCH   7  20
TORSDOF 4
ENDMDL