MODEL 4
REMARK VINA RESULT: -8.278573738      2.178      3.127
REMARK  4 active torsions:
REMARK  status: ('A' for Active; 'I' for Inactive)
REMARK       I    between atoms: N1_2  and  C2_3
REMARK    1  A    between atoms: N1_2  and  C9_18
REMARK       I    between atoms: C2_3  and  N2_5
REMARK       I    between atoms: N2_5  and  C3_7
REMARK    2  A    between atoms: C3_7  and  C4_9
REMARK    3  A    between atoms: C4_9  and  N3_11
REMARK    4  A    between atoms: C7_14  and  C8_15
ROOT
HETATM    1  C1  UNL     1       6.981   9.505  47.331  1.00  0.00     0.161 C
HETATM    2  N1  UNL     1       7.336   9.642  45.928  1.00  0.00    -0.304 N
HETATM    3  C2  UNL     1       8.445   8.941  45.389  1.00  0.00     0.329 C
HETATM    4  O1  UNL     1       9.101   8.193  46.163  1.00  0.00    -0.246 OA
HETATM    5  N2  UNL     1       8.786   9.091  44.019  1.00  0.00    -0.273 N
ATOM      6  H2  UNL     1       8.226   9.708  43.430  1.00  0.00     0.173 HD
HETATM    7  C3  UNL     1       9.900   8.397  43.443  1.00  0.00     0.287 C
HETATM    8  O2  UNL     1      10.548   7.656  44.193  1.00  0.00    -0.265 OA
ENDROOT
BRANCH   7   9
HETATM    9  C4  UNL     1      10.192   8.609  42.020  1.00  0.00     0.168 C
HETATM   10  S1  UNL     1      11.162   9.843  41.587  1.00  0.00    -0.054 SA
BRANCH   9  11
HETATM   11  N3  UNL     1       9.664   7.758  41.009  1.00  0.00    -0.353 N
HETATM   12  C5  UNL     1       9.045   8.078  39.738  1.00  0.00     0.127 C
HETATM   13  C6  UNL     1       9.538   6.761  39.215  1.00  0.00     0.056 C
HETATM   14  C7  UNL     1       9.454   6.377  40.708  1.00  0.00     0.188 C
BRANCH  14  15
HETATM   15  C8  UNL     1      10.444   5.380  41.087  1.00  0.00     0.196 C
HETATM   16  O3  UNL     1      10.026   4.196  41.340  1.00  0.00    -0.646 OA
HETATM   17  O4  UNL     1      11.791   5.573  41.202  1.00  0.00    -0.646 OA
ENDBRANCH  14  15
ENDBRANCH   9  11
ENDBRANCH   7   9
BRANCH   2  18
HETATM   18  C9  UNL     1       6.563  10.498  45.060  1.00  0.00     0.038 A
HETATM   19  C10 UNL     1       5.687  10.011  44.144  1.00  0.00     0.030 A
HETATM   20  C11 UNL     1       4.970  10.896  43.338  1.00  0.00     0.002 A
HETATM   21  C12 UNL     1       5.131  12.255  43.451  1.00  0.00     0.000 A
HETATM   22  C13 UNL     1       6.020  12.742  44.381  1.00  0.00     0.002 A
HETATM   23  C14 UNL     1       6.741  11.860  45.192  1.00  0.00     0.030 A
ENDBRANCH   2  18
TORSDOF 4
ENDMDL