MODEL 1
REMARK VINA RESULT: -7.097359901      0.000      0.000
REMARK  5 active torsions:
REMARK  status: ('A' for Active; 'I' for Inactive)
REMARK    1  A    between atoms: C1_2  and  N2_4
REMARK    2  A    between atoms: N2_4  and  C2_6
REMARK    3  A    between atoms: C6_10  and  C7_11
REMARK    4  A    between atoms: C7_11  and  O2_13
REMARK    5  A    between atoms: O2_13  and  C8_14
ROOT
HETATM    1  C2  UNL     1       5.845  12.692  45.649  1.00  0.00     0.085 C
HETATM    2  C3  UNL     1       6.102  12.628  44.187  1.00  0.00     0.029 C
HETATM    3  C4  UNL     1       6.903  11.435  43.775  1.00  0.00    -0.010 C
HETATM    4  C5  UNL     1       8.105  11.158  44.649  1.00  0.00     0.024 C
HETATM    5  C6  UNL     1       7.109  10.526  45.619  1.00  0.00     0.050 C
HETATM    6  C15 UNL     1       6.252  10.211  44.418  1.00  0.00     0.024 C
HETATM    7  C16 UNL     1       6.554  11.630  46.445  1.00  0.00     0.045 C
ENDROOT
BRANCH   5   8
HETATM    8  C7  UNL     1       7.604   9.395  46.392  1.00  0.00     0.268 C
HETATM    9  O1  UNL     1       7.896   9.557  47.616  1.00  0.00    -0.264 OA
BRANCH   8  10
HETATM   10  O2  UNL     1       7.788   8.120  45.885  1.00  0.00    -0.313 OA
BRANCH  10  11
HETATM   11  C8  UNL     1       9.025   7.661  45.374  1.00  0.00     0.164 C
HETATM   12  C9  UNL     1       9.074   6.150  45.529  1.00  0.00     0.305 C
HETATM   13  N3  UNL     1       9.669   5.530  44.364  1.00  0.00     0.090 N
HETATM   14  C10 UNL     1       8.703   5.604  43.292  1.00  0.00     0.273 C
HETATM   15  C14 UNL     1      10.880   6.224  43.997  1.00  0.00     0.273 C
HETATM   16  C11 UNL     1       8.173   7.011  43.182  1.00  0.00     0.037 C
HETATM   17  C12 UNL     1       9.129   7.947  43.889  1.00  0.00     0.020 C
HETATM   18  C13 UNL     1      10.538   7.602  43.463  1.00  0.00     0.037 C
ENDBRANCH  10  11
ENDBRANCH   8  10
ENDBRANCH   5   8
BRANCH   1  19
HETATM   19  N2  UNL     1       4.420  12.599  45.970  1.00  0.00    -0.365 N
ATOM     20  H2  UNL     1       3.874  11.812  45.620  1.00  0.00     0.162 HD
BRANCH  19  21
HETATM   21  C1  UNL     1       3.797  13.585  46.758  1.00  0.00     0.181 C
HETATM   22  N1  UNL     1       3.712  13.435  48.153  1.00  0.00    -0.070 NA
HETATM   23  S1  UNL     1       3.179  14.902  46.051  1.00  0.00    -0.044 SA
ENDBRANCH  19  21
ENDBRANCH   1  19
TORSDOF 5
ENDMDL