MODEL 4
REMARK VINA RESULT: -7.731927993      1.879      7.505
REMARK  7 active torsions:
REMARK  status: ('A' for Active; 'I' for Inactive)
REMARK    1  A    between atoms: C2_2  and  C4_4
REMARK    2  A    between atoms: C4_4  and  N1_5
REMARK    3  A    between atoms: C4_4  and  C5_9
REMARK    4  A    between atoms: C5_9  and  O1_10
REMARK    5  A    between atoms: C5_9  and  N2_12
REMARK       I    between atoms: N3_14  and  C7_15
REMARK    6  A    between atoms: C7_15  and  C8_17
REMARK    7  A    between atoms: C9_18  and  C10_19
ROOT
HETATM    1  N2  UNL     1       6.818  11.076  45.635  1.00  0.00    -0.330 N
HETATM    2  C6  UNL     1       7.252   9.658  45.516  1.00  0.00     0.255 C
HETATM    3  N3  UNL     1       8.332   9.484  44.602  1.00  0.00    -0.332 N
HETATM    4  C7  UNL     1       8.777   8.124  44.408  1.00  0.00     0.244 C
HETATM    5  O2  UNL     1       8.224   7.170  45.025  1.00  0.00    -0.268 OA
HETATM    6  C14 UNL     1       9.026  10.483  43.856  1.00  0.00     0.131 C
HETATM    7  C15 UNL     1       8.629  11.853  44.343  1.00  0.00     0.060 C
HETATM    8  C16 UNL     1       7.091  11.830  44.454  1.00  0.00     0.196 C
HETATM    9  C17 UNL     1       6.661  11.048  43.260  1.00  0.00     0.085 C
HETATM   10  N4  UNL     1       6.309  10.449  42.338  1.00  0.00    -0.195 NA
ENDROOT
BRANCH   1  11
HETATM   11  C5  UNL     1       6.230  11.467  46.836  1.00  0.00     0.147 C
BRANCH  11  12
HETATM   12  C4  UNL     1       5.420  12.624  47.180  1.00  0.00     0.260 C
BRANCH  12  13
HETATM   13  C2  UNL     1       4.074  12.644  46.428  1.00  0.00     0.016 C
HETATM   14  C1  UNL     1       2.980  12.703  47.490  1.00  0.00     0.012 C
HETATM   15  C3  UNL     1       3.944  13.857  45.572  1.00  0.00     0.012 C
ENDBRANCH  12  13
BRANCH  12  16
HETATM   16  N1  UNL     1       5.169  12.873  48.555  1.00  0.00    -0.067 N
ATOM     17  H13 UNL     1       5.221  12.027  49.122  1.00  0.00     0.275 HD
ATOM     18  H12 UNL     1       5.926  13.389  49.004  1.00  0.00     0.275 HD
ATOM     19  H11 UNL     1       4.270  13.346  48.638  1.00  0.00     0.275 HD
ENDBRANCH  12  16
ENDBRANCH  11  12
BRANCH  11  20
HETATM   20  O1  UNL     1       6.437  10.662  47.835  1.00  0.00    -0.348 OA
ATOM     21  H1  UNL     1       7.184  10.905  48.371  1.00  0.00     0.219 HD
ENDBRANCH  11  20
ENDBRANCH   1  11
BRANCH   4  22
HETATM   22  C8  UNL     1       9.859   7.810  43.508  1.00  0.00     0.071 C
HETATM   23  C9  UNL     1      10.357   6.607  43.407  1.00  0.00    -0.013 C
BRANCH  23  24
HETATM   24  C10 UNL     1      11.476   6.305  42.471  1.00  0.00    -0.034 C
HETATM   25  C11 UNL     1      12.455   5.343  43.128  1.00  0.00     0.018 C
HETATM   26  C12 UNL     1      10.938   5.604  41.223  1.00  0.00     0.018 C
HETATM   27  C13 UNL     1      12.131   7.618  42.110  1.00  0.00     0.018 C
ENDBRANCH  23  24
ENDBRANCH   4  22
TORSDOF 7
ENDMDL