MODEL 3
REMARK VINA RESULT: -7.923351047      3.334      6.998
REMARK  5 active torsions:
REMARK  status: ('A' for Active; 'I' for Inactive)
REMARK    1  A    between atoms: C2_2  and  C3_4
REMARK    2  A    between atoms: C6_7  and  C7_8
REMARK       I    between atoms: C7_8  and  N1_10
REMARK    3  A    between atoms: N1_10  and  C8_12
REMARK    4  A    between atoms: C13_17  and  S1_18
REMARK    5  A    between atoms: S1_18  and  N2_19
ROOT
HETATM    1  C7  UNL     1       8.006  11.129  44.227  1.00  0.00     0.239 C
HETATM    2  O2  UNL     1       8.808  12.065  44.381  1.00  0.00    -0.272 OA
HETATM    3  N1  UNL     1       8.364   9.917  43.634  1.00  0.00    -0.325 N
ATOM      4  H1  UNL     1       7.620   9.224  43.564  1.00  0.00     0.169 HD
ENDROOT
BRANCH   3   5
HETATM    5  C8  UNL     1       9.612   9.524  43.121  1.00  0.00     0.058 A
HETATM    6  C9  UNL     1      10.357  10.321  42.283  1.00  0.00     0.031 A
HETATM    7  C10 UNL     1      11.581   9.885  41.802  1.00  0.00     0.002 A
HETATM    8  C11 UNL     1      12.053   8.636  42.172  1.00  0.00     0.002 A
HETATM    9  C12 UNL     1      11.300   7.847  43.010  1.00  0.00     0.027 A
HETATM   10  C13 UNL     1      10.090   8.253  43.498  1.00  0.00     0.105 A
BRANCH  10  11
HETATM   11  S1  UNL     1       9.150   7.214  44.574  1.00  0.00     0.259 S
HETATM   12  O3  UNL     1       9.178   7.717  45.970  1.00  0.00    -0.201 OA
HETATM   13  O4  UNL     1       7.761   7.003  44.104  1.00  0.00    -0.201 OA
BRANCH  11  14
HETATM   14  N2  UNL     1       9.934   5.646  44.556  1.00  0.00    -0.324 N
ATOM     15  H22 UNL     1      10.247   5.141  43.727  1.00  0.00     0.169 HD
ATOM     16  H21 UNL     1      10.010   5.352  45.530  1.00  0.00     0.169 HD
ENDBRANCH  11  14
ENDBRANCH  10  11
ENDBRANCH   3   5
BRANCH   1  17
HETATM   17  C6  UNL     1       6.613  11.391  44.729  1.00  0.00     0.084 A
HETATM   18  C5  UNL     1       6.493  12.482  45.700  1.00  0.00    -0.006 A
HETATM   19  C4  UNL     1       5.489  13.293  45.403  1.00  0.00    -0.016 A
HETATM   20  C3  UNL     1       4.782  12.869  44.188  1.00  0.00     0.086 A
HETATM   21  C16 UNL     1       5.581  11.677  43.699  1.00  0.00     0.048 A
HETATM   22  C15 UNL     1       4.892  10.402  44.073  1.00  0.00    -0.022 A
HETATM   23  C14 UNL     1       5.827  10.176  44.983  1.00  0.00    -0.006 A
BRANCH  20  24
HETATM   24  C2  UNL     1       4.655  13.915  43.159  1.00  0.00     0.131 C
HETATM   25  C1  UNL     1       4.518  13.549  41.737  1.00  0.00     0.091 C
HETATM   26  O1  UNL     1       4.664  15.078  43.479  1.00  0.00    -0.298 OA
ENDBRANCH  20  24
ENDBRANCH   1  17
TORSDOF 5
ENDMDL