MODEL 2
REMARK VINA RESULT: -7.926412566      2.752      5.419
REMARK  4 active torsions:
REMARK  status: ('A' for Active; 'I' for Inactive)
REMARK    1  A    between atoms: C1_2  and  C2_4
REMARK    2  A    between atoms: C2_4  and  N2_5
REMARK    3  A    between atoms: C2_4  and  C3_9
REMARK       I    between atoms: C3_9  and  N3_11
REMARK    4  A    between atoms: C4_13  and  C5_14
ROOT
HETATM    1  C3  UNL     1       7.201   8.629  45.318  1.00  0.00     0.274 C
HETATM    2  O2  UNL     1       6.943   8.687  46.545  1.00  0.00    -0.269 OA
HETATM    3  N3  UNL     1       6.840   9.675  44.453  1.00  0.00    -0.252 N
HETATM    4  S1  UNL     1       7.024   9.422  42.695  1.00  0.00    -0.035 SA
HETATM    5  C4  UNL     1       5.995  10.741  41.937  1.00  0.00     0.107 C
HETATM    6  C11 UNL     1       4.841  10.996  42.855  1.00  0.00     0.062 C
HETATM    7  C12 UNL     1       5.327  11.578  44.125  1.00  0.00    -0.029 A
HETATM    8  C13 UNL     1       4.839  12.775  44.587  1.00  0.00     0.009 A
HETATM    9  C14 UNL     1       5.294  13.329  45.776  1.00  0.00     0.001 A
HETATM   10  C15 UNL     1       6.270  12.640  46.504  1.00  0.00     0.002 A
HETATM   11  C16 UNL     1       6.784  11.434  46.070  1.00  0.00     0.031 A
HETATM   12  C17 UNL     1       6.294  10.915  44.866  1.00  0.00     0.055 A
ENDROOT
BRANCH   1  13
HETATM   13  C2  UNL     1       7.906   7.396  44.835  1.00  0.00     0.364 C
BRANCH  13  14
HETATM   14  C1  UNL     1       9.346   7.405  45.195  1.00  0.00     0.271 C
HETATM   15  N1  UNL     1       9.819   6.952  46.468  1.00  0.00    -0.060 NA
HETATM   16  O1  UNL     1      10.219   7.811  44.398  1.00  0.00    -0.274 OA
ENDBRANCH  13  14
BRANCH  13  17
HETATM   17  N2  UNL     1       7.316   6.269  45.574  1.00  0.00    -0.058 N
ATOM     18  H23 UNL     1       7.806   5.385  45.432  1.00  0.00     0.275 HD
ATOM     19  H22 UNL     1       7.456   6.324  46.583  1.00  0.00     0.275 HD
ATOM     20  H21 UNL     1       6.334   6.240  45.299  1.00  0.00     0.275 HD
ENDBRANCH  13  17
ENDBRANCH   1  13
BRANCH   5  21
HETATM   21  C5  UNL     1       5.558  10.344  40.574  1.00  0.00    -0.042 A
HETATM   22  C6  UNL     1       6.396   9.835  39.630  1.00  0.00     0.008 A
HETATM   23  C7  UNL     1       5.958   9.476  38.373  1.00  0.00     0.001 A
HETATM   24  C8  UNL     1       4.633   9.623  38.015  1.00  0.00     0.000 A
HETATM   25  C9  UNL     1       3.787  10.142  38.980  1.00  0.00     0.001 A
HETATM   26  C10 UNL     1       4.227  10.502  40.243  1.00  0.00     0.008 A
ENDBRANCH   5  21
TORSDOF 4
ENDMDL