MODEL 5
REMARK VINA RESULT: -7.078513465      2.016      3.031
REMARK  6 active torsions:
REMARK  status: ('A' for Active; 'I' for Inactive)
REMARK    1  A    between atoms: C2_2  and  C3_3
REMARK    2  A    between atoms: C3_3  and  C4_4
REMARK    3  A    between atoms: C7_7  and  C8_8
REMARK    4  A    between atoms: C11_12  and  O2_13
REMARK    5  A    between atoms: C18_22  and  C19_23
REMARK    6  A    between atoms: C19_23  and  O3_24
ROOT
HETATM    1  C4  UNL     1      10.004   9.009  43.282  1.00  0.00     0.009 C
HETATM    2  C5  UNL     1       8.892   9.289  44.278  1.00  0.00     0.026 C
HETATM    3  C6  UNL     1       8.535  10.756  44.441  1.00  0.00     0.015 C
HETATM    4  C7  UNL     1       7.270  10.936  43.614  1.00  0.00     0.020 C
HETATM    5  C10 UNL     1       6.623   9.574  43.526  1.00  0.00     0.045 C
HETATM    6  C11 UNL     1       7.582   8.611  44.202  1.00  0.00     0.067 C
HETATM    7  C12 UNL     1       7.588   7.241  43.676  1.00  0.00     0.032 A
HETATM    8  C13 UNL     1       7.427   6.553  42.432  1.00  0.00     0.027 A
HETATM    9  C14 UNL     1       8.348   5.450  41.925  1.00  0.00     0.278 C
HETATM   10  N1  UNL     1       9.424   5.875  41.164  1.00  0.00     0.094 N
HETATM   11  C15 UNL     1      10.501   5.057  40.846  1.00  0.00     0.275 C
HETATM   12  C16 UNL     1      11.364   5.861  41.796  1.00  0.00     0.067 C
HETATM   13  C17 UNL     1      10.327   6.925  41.684  1.00  0.00     0.236 C
HETATM   14  C18 UNL     1       9.731   7.564  42.830  1.00  0.00     0.021 C
HETATM   15  C20 UNL     1       8.320   7.664  42.466  1.00  0.00     0.012 A
ENDROOT
BRANCH   1  16
HETATM   16  C3  UNL     1      10.016  10.010  42.172  1.00  0.00     0.032 C
BRANCH  16  17
HETATM   17  C2  UNL     1      11.318  10.304  41.536  1.00  0.00    -0.036 C
HETATM   18  C1  UNL     1      12.491   9.927  41.978  1.00  0.00     0.007 C
ENDBRANCH  16  17
ENDBRANCH   1  16
BRANCH  14  19
HETATM   19  C19 UNL     1      10.123   6.800  44.051  1.00  0.00     0.176 C
BRANCH  19  20
HETATM   20  O3  UNL     1      11.406   7.307  44.408  1.00  0.00    -0.400 OA
ATOM     21  H3  UNL     1      11.391   7.368  45.356  1.00  0.00     0.209 HD
ENDBRANCH  19  20
ENDBRANCH  14  19
BRANCH   6  22
HETATM   22  O2  UNL     1       7.099   8.552  45.541  1.00  0.00    -0.389 OA
ATOM     23  H2  UNL     1       6.247   8.137  45.490  1.00  0.00     0.210 HD
ENDBRANCH   6  22
BRANCH   4  24
HETATM   24  C8  UNL     1       6.329  11.926  44.251  1.00  0.00     0.149 A
HETATM   25  C9  UNL     1       5.561  12.889  43.535  1.00  0.00     0.200 A
HETATM   26  O1  UNL     1       4.937  11.752  44.048  1.00  0.00    -0.381 OA
ENDBRANCH   4  24
TORSDOF 6
ENDMDL