MODEL 2
REMARK VINA RESULT: -3.988978737      2.325      2.871
REMARK  10 active torsions:
REMARK  status: ('A' for Active; 'I' for Inactive)
REMARK    1  A    between atoms: C2_2  and  C3_3
REMARK    2  A    between atoms: C3_3  and  C4_4
REMARK    3  A    between atoms: C4_4  and  C5_5
REMARK    4  A    between atoms: C5_5  and  C6_6
REMARK    5  A    between atoms: C6_6  and  C7_7
REMARK    6  A    between atoms: C7_7  and  C8_8
REMARK    7  A    between atoms: C8_8  and  C9_9
REMARK    8  A    between atoms: C9_9  and  C10_10
REMARK    9  A    between atoms: C10_10  and  C11_11
REMARK   10  A    between atoms: C11_11  and  N1_12
ROOT
HETATM    1  C9  UNL     1     -31.764 -23.078 -41.669  1.00  0.00    -0.039 A
HETATM    2  C12 UNL     1     -32.891 -22.050 -41.754  1.00  0.00     0.010 A
HETATM    3  C13 UNL     1     -33.223 -23.473 -41.526  1.00  0.00     0.010 A
ENDROOT
BRANCH   1   4
HETATM    4  C8  UNL     1     -31.037 -23.063 -40.359  1.00  0.00     0.009 C
BRANCH   4   5
HETATM    5  C7  UNL     1     -31.413 -24.179 -39.434  1.00  0.00     0.001 C
BRANCH   5   6
HETATM    6  C6  UNL     1     -30.146 -24.968 -39.171  1.00  0.00     0.000 C
BRANCH   6   7
HETATM    7  C5  UNL     1     -30.210 -25.718 -37.864  1.00  0.00     0.000 C
BRANCH   7   8
HETATM    8  C4  UNL     1     -31.095 -26.930 -38.062  1.00  0.00     0.004 C
BRANCH   8   9
HETATM    9  C3  UNL     1     -32.016 -27.110 -36.865  1.00  0.00     0.026 C
BRANCH   9  10
HETATM   10  C2  UNL     1     -33.394 -26.788 -37.331  1.00  0.00    -0.037 C
HETATM   11  C1  UNL     1     -33.739 -26.916 -38.603  1.00  0.00     0.007 C
ENDBRANCH   9  10
ENDBRANCH   8   9
ENDBRANCH   7   8
ENDBRANCH   6   7
ENDBRANCH   5   6
ENDBRANCH   4   5
ENDBRANCH   1   4
BRANCH   1  12
HETATM   12  C10 UNL     1     -31.094 -23.500 -42.921  1.00  0.00     0.036 C
BRANCH  12  13
HETATM   13  C11 UNL     1     -29.696 -23.954 -42.710  1.00  0.00     0.230 C
BRANCH  13  14
HETATM   14  N1  UNL     1     -28.803 -23.493 -43.793  1.00  0.00    -0.079 N
ATOM     15  H13 UNL     1     -27.980 -24.088 -43.875  1.00  0.00     0.274 HD
ATOM     16  H12 UNL     1     -29.214 -23.662 -44.712  1.00  0.00     0.274 HD
ATOM     17  H11 UNL     1     -28.545 -22.513 -43.676  1.00  0.00     0.274 HD
ENDBRANCH  13  14
ENDBRANCH  12  13
ENDBRANCH   1  12
TORSDOF 10
ENDMDL