MODEL 1
REMARK VINA RESULT: -4.313292408      0.000      0.000
REMARK  10 active torsions:
REMARK  status: ('A' for Active; 'I' for Inactive)
REMARK    1  A    between atoms: N1_1  and  C1_5
REMARK    2  A    between atoms: C1_5  and  C2_6
REMARK    3  A    between atoms: C2_6  and  C3_7
REMARK    4  A    between atoms: C3_7  and  C4_8
REMARK    5  A    between atoms: C4_8  and  C5_9
REMARK    6  A    between atoms: C6_10  and  C7_11
REMARK    7  A    between atoms: C7_11  and  C8_12
REMARK    8  A    between atoms: C8_12  and  C9_13
REMARK    9  A    between atoms: C9_13  and  C10_14
REMARK   10  A    between atoms: C10_14  and  C11_15
ROOT
HETATM    1  C5  UNL     1     -30.314 -24.629 -39.633  1.00  0.00    -0.031 C
HETATM    2  C6  UNL     1     -29.758 -25.650 -39.057  1.00  0.00    -0.031 C
ENDROOT
BRANCH   1   3
HETATM    3  C4  UNL     1     -31.446 -23.868 -39.099  1.00  0.00     0.027 C
BRANCH   3   4
HETATM    4  C3  UNL     1     -32.374 -23.408 -40.226  1.00  0.00     0.005 C
BRANCH   4   5
HETATM    5  C2  UNL     1     -31.508 -22.772 -41.276  1.00  0.00     0.027 C
BRANCH   5   6
HETATM    6  C1  UNL     1     -31.938 -23.140 -42.671  1.00  0.00     0.229 C
BRANCH   6   7
HETATM    7  N1  UNL     1     -30.850 -23.478 -43.540  1.00  0.00    -0.079 N
ATOM      8  H13 UNL     1     -30.500 -24.414 -43.330  1.00  0.00     0.274 HD
ATOM      9  H12 UNL     1     -31.182 -23.629 -44.492  1.00  0.00     0.274 HD
ATOM     10  H11 UNL     1     -30.088 -22.799 -43.528  1.00  0.00     0.274 HD
ENDBRANCH   6   7
ENDBRANCH   5   6
ENDBRANCH   4   5
ENDBRANCH   3   4
ENDBRANCH   1   3
BRANCH   2  11
HETATM   11  C7  UNL     1     -30.161 -26.216 -37.783  1.00  0.00     0.027 C
BRANCH  11  12
HETATM   12  C8  UNL     1     -31.262 -27.278 -37.927  1.00  0.00     0.004 C
BRANCH  12  13
HETATM   13  C9  UNL     1     -32.386 -27.036 -37.012  1.00  0.00     0.001 C
BRANCH  13  14
HETATM   14  C10 UNL     1     -33.647 -26.584 -37.594  1.00  0.00     0.004 C
BRANCH  14  15
HETATM   15  C11 UNL     1     -34.061 -26.892 -38.966  1.00  0.00    -0.014 A
HETATM   16  C12 UNL     1     -35.495 -27.252 -39.274  1.00  0.00     0.005 A
HETATM   17  C13 UNL     1     -34.915 -26.017 -39.815  1.00  0.00     0.005 A
ENDBRANCH  14  15
ENDBRANCH  13  14
ENDBRANCH  12  13
ENDBRANCH  11  12
ENDBRANCH   2  11
TORSDOF 10
ENDMDL