MODEL 2
REMARK VINA RESULT: -4.196634805      1.152      1.549
REMARK  10 active torsions:
REMARK  status: ('A' for Active; 'I' for Inactive)
REMARK    1  A    between atoms: C2_2  and  C3_3
REMARK    2  A    between atoms: C2_2  and  C9_13
REMARK    3  A    between atoms: C3_3  and  C4_4
REMARK    4  A    between atoms: C4_4  and  C5_5
REMARK    5  A    between atoms: C5_5  and  C6_6
REMARK    6  A    between atoms: C6_6  and  C7_7
REMARK    7  A    between atoms: C7_7  and  C8_8
REMARK    8  A    between atoms: C8_8  and  N1_9
REMARK    9  A    between atoms: C9_13  and  C10_14
REMARK   10  A    between atoms: C10_14  and  C11_15
ROOT
HETATM    1  C4  UNL     1     -31.020 -23.455 -38.020  1.00  0.00     0.000 C
ENDROOT
BRANCH   1   2
HETATM    2  C3  UNL     1     -30.294 -24.723 -37.685  1.00  0.00     0.004 C
BRANCH   2   3
HETATM    3  C2  UNL     1     -30.472 -25.805 -38.702  1.00  0.00    -0.019 C
HETATM    4  C1  UNL     1     -29.134 -26.007 -39.397  1.00  0.00     0.010 C
BRANCH   3   5
HETATM    5  C9  UNL     1     -30.823 -27.127 -38.051  1.00  0.00     0.004 C
BRANCH   5   6
HETATM    6  C10 UNL     1     -32.247 -27.027 -37.535  1.00  0.00     0.005 C
BRANCH   6   7
HETATM    7  C11 UNL     1     -32.334 -27.384 -36.072  1.00  0.00    -0.014 A
HETATM    8  C12 UNL     1     -33.612 -27.364 -35.352  1.00  0.00     0.005 A
HETATM    9  C13 UNL     1     -32.654 -26.228 -35.152  1.00  0.00     0.005 A
ENDBRANCH   6   7
ENDBRANCH   5   6
ENDBRANCH   3   5
ENDBRANCH   2   3
ENDBRANCH   1   2
BRANCH   1  10
HETATM   10  C5  UNL     1     -32.084 -23.638 -39.059  1.00  0.00     0.000 C
BRANCH  10  11
HETATM   11  C6  UNL     1     -31.910 -22.651 -40.203  1.00  0.00     0.002 C
BRANCH  11  12
HETATM   12  C7  UNL     1     -30.975 -23.193 -41.257  1.00  0.00     0.027 C
BRANCH  12  13
HETATM   13  C8  UNL     1     -31.727 -23.138 -42.580  1.00  0.00     0.229 C
BRANCH  13  14
HETATM   14  N1  UNL     1     -30.742 -23.478 -43.612  1.00  0.00    -0.079 N
ATOM     15  H13 UNL     1     -30.305 -24.390 -43.476  1.00  0.00     0.274 HD
ATOM     16  H12 UNL     1     -31.156 -23.677 -44.523  1.00  0.00     0.274 HD
ATOM     17  H11 UNL     1     -30.077 -22.706 -43.625  1.00  0.00     0.274 HD
ENDBRANCH  13  14
ENDBRANCH  12  13
ENDBRANCH  11  12
ENDBRANCH  10  11
ENDBRANCH   1  10
TORSDOF 10
ENDMDL