MODEL 5
REMARK VINA RESULT: -4.007443884      2.664      4.111
REMARK  10 active torsions:
REMARK  status: ('A' for Active; 'I' for Inactive)
REMARK    1  A    between atoms: C2_2  and  C3_3
REMARK    2  A    between atoms: C3_3  and  C4_4
REMARK    3  A    between atoms: C4_4  and  C5_5
REMARK    4  A    between atoms: C5_5  and  C6_6
REMARK    5  A    between atoms: C6_6  and  C7_7
REMARK    6  A    between atoms: C7_7  and  C8_8
REMARK    7  A    between atoms: C8_8  and  C9_9
REMARK    8  A    between atoms: C9_9  and  C10_10
REMARK    9  A    between atoms: C10_10  and  C11_11
REMARK   10  A    between atoms: C11_11  and  N1_12
ROOT
HETATM    1  C9  UNL     1     -31.740 -22.829 -41.803  1.00  0.00    -0.039 C
HETATM    2  C12 UNL     1     -33.121 -23.490 -41.549  1.00  0.00     0.010 C
HETATM    3  C13 UNL     1     -33.729 -22.461 -42.439  1.00  0.00     0.002 C
HETATM    4  C14 UNL     1     -32.553 -21.568 -42.125  1.00  0.00     0.010 C
ENDROOT
BRANCH   1   5
HETATM    5  C8  UNL     1     -31.061 -22.750 -40.500  1.00  0.00     0.009 C
BRANCH   5   6
HETATM    6  C7  UNL     1     -31.472 -21.762 -39.493  1.00  0.00     0.001 C
BRANCH   6   7
HETATM    7  C6  UNL     1     -31.172 -22.430 -38.121  1.00  0.00     0.000 C
BRANCH   7   8
HETATM    8  C5  UNL     1     -31.237 -23.928 -38.291  1.00  0.00     0.000 C
BRANCH   8   9
HETATM    9  C4  UNL     1     -30.316 -24.604 -37.309  1.00  0.00     0.004 C
BRANCH   9  10
HETATM   10  C3  UNL     1     -29.868 -25.922 -37.903  1.00  0.00     0.026 C
BRANCH  10  11
HETATM   11  C2  UNL     1     -29.515 -25.671 -39.342  1.00  0.00    -0.037 C
HETATM   12  C1  UNL     1     -28.317 -25.990 -39.757  1.00  0.00     0.007 C
ENDBRANCH  10  11
ENDBRANCH   9  10
ENDBRANCH   8   9
ENDBRANCH   7   8
ENDBRANCH   6   7
ENDBRANCH   5   6
ENDBRANCH   1   5
BRANCH   1  13
HETATM   13  C10 UNL     1     -31.154 -23.454 -42.995  1.00  0.00     0.036 C
BRANCH  13  14
HETATM   14  C11 UNL     1     -29.863 -24.155 -42.927  1.00  0.00     0.230 C
BRANCH  14  15
HETATM   15  N1  UNL     1     -28.957 -23.409 -43.846  1.00  0.00    -0.079 N
ATOM     16  H13 UNL     1     -28.465 -22.636 -43.398  1.00  0.00     0.274 HD
ATOM     17  H12 UNL     1     -28.128 -23.937 -44.121  1.00  0.00     0.274 HD
ATOM     18  H11 UNL     1     -29.541 -23.124 -44.631  1.00  0.00     0.274 HD
ENDBRANCH  14  15
ENDBRANCH  13  14
ENDBRANCH   1  13
TORSDOF 10
ENDMDL