MODEL 1
REMARK VINA RESULT: -4.097612406      0.000      0.000
REMARK  9 active torsions:
REMARK  status: ('A' for Active; 'I' for Inactive)
REMARK    1  A    between atoms: C2_2  and  C3_3
REMARK    2  A    between atoms: C3_3  and  N1_4
REMARK    3  A    between atoms: N1_4  and  C4_6
REMARK    4  A    between atoms: C4_6  and  C5_7
REMARK    5  A    between atoms: C5_7  and  C6_8
REMARK    6  A    between atoms: C6_8  and  C7_9
REMARK    7  A    between atoms: C7_9  and  C8_10
REMARK    8  A    between atoms: C8_10  and  C9_11
REMARK    9  A    between atoms: C9_11  and  C10_12
ROOT
HETATM    1  C6  UNL     1     -30.216 -24.990 -39.211  1.00  0.00     0.002 C
ENDROOT
BRANCH   1   2
HETATM    2  C5  UNL     1     -30.939 -23.702 -38.910  1.00  0.00     0.019 C
BRANCH   2   3
HETATM    3  C4  UNL     1     -31.769 -23.243 -40.060  1.00  0.00     0.113 C
BRANCH   3   4
HETATM    4  N1  UNL     1     -31.070 -22.757 -41.189  1.00  0.00    -0.421 N
ATOM      5  H1  UNL     1     -30.231 -22.188 -41.083  1.00  0.00     0.153 HD
BRANCH   4   6
HETATM    6  C3  UNL     1     -31.575 -23.087 -42.473  1.00  0.00     0.113 C
BRANCH   6   7
HETATM    7  C2  UNL     1     -30.626 -23.897 -43.329  1.00  0.00     0.015 C
HETATM    8  C1  UNL     1     -29.273 -23.920 -42.648  1.00  0.00     0.006 C
ENDBRANCH   6   7
ENDBRANCH   4   6
ENDBRANCH   3   4
ENDBRANCH   2   3
ENDBRANCH   1   2
BRANCH   1   9
HETATM    9  C7  UNL     1     -30.018 -25.812 -37.930  1.00  0.00     0.001 C
BRANCH   9  10
HETATM   10  C8  UNL     1     -30.875 -27.027 -38.047  1.00  0.00     0.009 C
BRANCH  10  11
HETATM   11  C9  UNL     1     -32.198 -26.967 -37.371  1.00  0.00    -0.041 A
HETATM   12  C12 UNL     1     -32.284 -26.005 -36.198  1.00  0.00     0.010 A
HETATM   13  C13 UNL     1     -32.373 -27.528 -36.010  1.00  0.00     0.010 A
BRANCH  11  14
HETATM   14  C10 UNL     1     -33.379 -27.000 -38.330  1.00  0.00     0.005 C
HETATM   15  C11 UNL     1     -34.094 -25.677 -38.380  1.00  0.00     0.006 C
ENDBRANCH  11  14
ENDBRANCH  10  11
ENDBRANCH   9  10
ENDBRANCH   1   9
TORSDOF 9
ENDMDL