MODEL 5
REMARK VINA RESULT: -3.690189378      2.695      4.676
REMARK  10 active torsions:
REMARK  status: ('A' for Active; 'I' for Inactive)
REMARK    1  A    between atoms: C2_2  and  C3_3
REMARK    2  A    between atoms: C3_3  and  C4_4
REMARK    3  A    between atoms: C4_4  and  N1_5
REMARK    4  A    between atoms: N1_5  and  C5_8
REMARK    5  A    between atoms: C5_8  and  C6_9
REMARK    6  A    between atoms: C6_9  and  C7_10
REMARK    7  A    between atoms: C7_10  and  C8_11
REMARK    8  A    between atoms: C8_11  and  C9_12
REMARK    9  A    between atoms: C9_12  and  C10_13
REMARK   10  A    between atoms: C10_13  and  C11_14
ROOT
HETATM    1  C6  UNL     1     -31.948 -26.842 -36.812  1.00  0.00     0.027 C
ENDROOT
BRANCH   1   2
HETATM    2  C5  UNL     1     -31.106 -27.308 -37.953  1.00  0.00     0.232 C
BRANCH   2   3
HETATM    3  N1  UNL     1     -29.875 -26.584 -38.127  1.00  0.00    -0.075 N
ATOM      4  H12 UNL     1     -29.387 -26.845 -38.984  1.00  0.00     0.277 HD
ATOM      5  H11 UNL     1     -29.156 -26.871 -37.463  1.00  0.00     0.277 HD
BRANCH   3   6
HETATM    6  C4  UNL     1     -30.160 -25.162 -38.061  1.00  0.00     0.236 C
BRANCH   6   7
HETATM    7  C3  UNL     1     -30.454 -24.571 -39.421  1.00  0.00     0.054 C
BRANCH   7   8
HETATM    8  C2  UNL     1     -31.671 -23.738 -39.316  1.00  0.00    -0.035 C
HETATM    9  C1  UNL     1     -32.152 -23.389 -38.154  1.00  0.00     0.007 C
ENDBRANCH   7   8
ENDBRANCH   6   7
ENDBRANCH   3   6
ENDBRANCH   2   3
ENDBRANCH   1   2
BRANCH   1  10
HETATM   10  C7  UNL     1     -33.423 -26.858 -37.140  1.00  0.00     0.002 C
BRANCH  10  11
HETATM   11  C8  UNL     1     -33.667 -26.927 -38.629  1.00  0.00     0.000 C
BRANCH  11  12
HETATM   12  C9  UNL     1     -34.733 -25.960 -39.086  1.00  0.00     0.001 C
BRANCH  12  13
HETATM   13  C10 UNL     1     -35.454 -26.615 -40.241  1.00  0.00     0.009 C
BRANCH  13  14
HETATM   14  C11 UNL     1     -35.447 -25.747 -41.478  1.00  0.00    -0.044 A
HETATM   15  C12 UNL     1     -34.748 -24.422 -41.435  1.00  0.00     0.015 C
HETATM   16  C13 UNL     1     -35.449 -26.501 -42.801  1.00  0.00     0.010 A
HETATM   17  C14 UNL     1     -36.683 -25.798 -42.381  1.00  0.00     0.010 A
ENDBRANCH  13  14
ENDBRANCH  12  13
ENDBRANCH  11  12
ENDBRANCH  10  11
ENDBRANCH   1  10
TORSDOF 10
ENDMDL