MODEL 3
REMARK VINA RESULT: -4.011827707      2.026      3.552
REMARK  10 active torsions:
REMARK  status: ('A' for Active; 'I' for Inactive)
REMARK    1  A    between atoms: C2_2  and  C3_3
REMARK    2  A    between atoms: C3_3  and  C4_4
REMARK    3  A    between atoms: C4_4  and  C5_5
REMARK    4  A    between atoms: C4_4  and  C9_13
REMARK    5  A    between atoms: C5_5  and  C6_6
REMARK    6  A    between atoms: C6_6  and  C7_7
REMARK    7  A    between atoms: C7_7  and  C8_8
REMARK    8  A    between atoms: C8_8  and  N1_9
REMARK    9  A    between atoms: C9_13  and  C10_14
REMARK   10  A    between atoms: C10_14  and  C11_15
ROOT
HETATM    1  C4  UNL     1     -30.693 -24.939 -37.798  1.00  0.00    -0.014 C
ENDROOT
BRANCH   1   2
HETATM    2  C3  UNL     1     -29.483 -25.615 -38.250  1.00  0.00     0.004 C
BRANCH   2   3
HETATM    3  C2  UNL     1     -29.175 -25.769 -39.688  1.00  0.00    -0.004 C
HETATM    4  C1  UNL     1     -27.647 -26.089 -39.741  1.00  0.00     0.005 C
ENDBRANCH   2   3
ENDBRANCH   1   2
BRANCH   1   5
HETATM    5  C5  UNL     1     -30.710 -23.659 -37.104  1.00  0.00     0.005 C
BRANCH   5   6
HETATM    6  C6  UNL     1     -30.991 -22.400 -37.870  1.00  0.00     0.002 C
BRANCH   6   7
HETATM    7  C7  UNL     1     -31.815 -22.752 -39.127  1.00  0.00     0.027 C
BRANCH   7   8
HETATM    8  C8  UNL     1     -31.136 -22.244 -40.364  1.00  0.00     0.229 C
BRANCH   8   9
HETATM    9  N1  UNL     1     -30.762 -20.857 -40.159  1.00  0.00    -0.079 N
ATOM     10  H13 UNL     1     -30.953 -20.540 -39.209  1.00  0.00     0.274 HD
ATOM     11  H12 UNL     1     -29.750 -20.724 -40.154  1.00  0.00     0.274 HD
ATOM     12  H11 UNL     1     -31.226 -20.282 -40.862  1.00  0.00     0.274 HD
ENDBRANCH   8   9
ENDBRANCH   7   8
ENDBRANCH   6   7
ENDBRANCH   5   6
ENDBRANCH   1   5
BRANCH   1  13
HETATM   13  C9  UNL     1     -31.482 -25.948 -36.960  1.00  0.00     0.005 C
BRANCH  13  14
HETATM   14  C10 UNL     1     -32.216 -26.960 -37.772  1.00  0.00     0.005 C
BRANCH  14  15
HETATM   15  C11 UNL     1     -33.192 -26.154 -38.643  1.00  0.00    -0.014 A
HETATM   16  C12 UNL     1     -34.468 -26.923 -38.925  1.00  0.00     0.005 A
HETATM   17  C13 UNL     1     -34.459 -25.672 -38.102  1.00  0.00     0.005 A
ENDBRANCH  14  15
ENDBRANCH  13  14
ENDBRANCH   1  13
TORSDOF 10
ENDMDL