MODEL 5
REMARK VINA RESULT: -6.220848495      6.274      8.038
REMARK  4 active torsions:
REMARK  status: ('A' for Active; 'I' for Inactive)
REMARK    1  A    between atoms: C1_4  and  C2_5
REMARK    2  A    between atoms: C2_5  and  C3_6
REMARK    3  A    between atoms: C3_6  and  C4_8
REMARK    4  A    between atoms: C6_12  and  C7_13
ROOT
HETATM    1  C4  UNL     1      21.671  17.062  17.419  1.00  0.00     0.153 A
HETATM    2  N2  UNL     1      20.386  16.872  17.716  1.00  0.00    -0.347 N
ATOM      3  H2  UNL     1      20.012  16.145  18.326  1.00  0.00     0.167 HD
HETATM    4  C5  UNL     1      19.658  17.822  17.060  1.00  0.00     0.124 A
HETATM    5  C6  UNL     1      20.536  18.608  16.345  1.00  0.00     0.115 A
HETATM    6  N4  UNL     1      21.761  18.109  16.592  1.00  0.00    -0.334 N
ATOM      7  H4  UNL     1      22.631  18.476  16.205  1.00  0.00     0.168 HD
ENDROOT
BRANCH   1   8
HETATM    8  C3  UNL     1      22.834  16.284  17.890  1.00  0.00     0.197 C
HETATM    9  O1  UNL     1      22.666  15.203  18.503  1.00  0.00    -0.289 OA
BRANCH   8  10
HETATM   10  C2  UNL     1      24.208  16.764  17.646  1.00  0.00     0.131 C
BRANCH  10  11
HETATM   11  C1  UNL     1      25.107  15.589  17.509  1.00  0.00     0.060 C
HETATM   12  N1  UNL     1      25.103  14.882  16.444  1.00  0.00    -0.411 N
ATOM     13  H12 UNL     1      24.469  15.141  15.689  1.00  0.00     0.155 HD
ATOM     14  H11 UNL     1      25.721  14.075  16.350  1.00  0.00     0.155 HD
ENDBRANCH  10  11
ENDBRANCH   8  10
ENDBRANCH   1   8
BRANCH   5  15
HETATM   15  C7  UNL     1      20.178  19.744  15.502  1.00  0.00     0.282 C
HETATM   16  N3  UNL     1      19.572  19.554  14.229  1.00  0.00    -0.056 NA
HETATM   17  O2  UNL     1      20.405  20.912  15.900  1.00  0.00    -0.269 OA
ENDBRANCH   5  15
TORSDOF 4
ENDMDL