MODEL 3
REMARK VINA RESULT: -6.281950721      1.191      1.708
REMARK  5 active torsions:
REMARK  status: ('A' for Active; 'I' for Inactive)
REMARK    1  A    between atoms: C2_3  and  N2_4
REMARK    2  A    between atoms: N2_4  and  C3_7
REMARK    3  A    between atoms: C3_7  and  C4_8
REMARK    4  A    between atoms: C4_8  and  N3_9
REMARK    5  A    between atoms: C4_8  and  C5_13
ROOT
HETATM    1  N1  UNL     1      15.313  16.139  18.738  1.00  0.00    -0.195 NA
HETATM    2  C1  UNL     1      16.386  15.693  18.698  1.00  0.00     0.099 C
HETATM    3  C2  UNL     1      17.712  15.114  18.648  1.00  0.00     0.212 C
HETATM    4  C6  UNL     1      18.103  14.410  19.957  1.00  0.00     0.055 C
HETATM    5  C7  UNL     1      17.460  13.168  19.371  1.00  0.00     0.007 C
HETATM    6  C8  UNL     1      17.747  13.765  17.998  1.00  0.00     0.055 C
ENDROOT
BRANCH   3   7
HETATM    7  N2  UNL     1      18.763  16.027  18.297  1.00  0.00    -0.051 N
ATOM      8  H22 UNL     1      18.377  16.849  17.832  1.00  0.00     0.279 HD
ATOM      9  H21 UNL     1      19.149  16.463  19.134  1.00  0.00     0.279 HD
BRANCH   7  10
HETATM   10  C3  UNL     1      19.817  15.450  17.500  1.00  0.00     0.276 C
BRANCH  10  11
HETATM   11  C4  UNL     1      21.060  16.295  17.766  1.00  0.00     0.297 C
BRANCH  11  12
HETATM   12  N3  UNL     1      22.190  15.425  17.545  1.00  0.00    -0.065 N
ATOM     13  H33 UNL     1      21.940  14.535  17.114  1.00  0.00     0.275 HD
ATOM     14  H32 UNL     1      22.814  15.750  16.805  1.00  0.00     0.275 HD
ATOM     15  H31 UNL     1      22.651  15.324  18.449  1.00  0.00     0.275 HD
ENDBRANCH  11  12
BRANCH  11  16
HETATM   16  C5  UNL     1      21.167  17.456  16.889  1.00  0.00     0.263 C
HETATM   17  N4  UNL     1      20.067  18.319  16.641  1.00  0.00    -0.060 NA
HETATM   18  O1  UNL     1      22.252  17.724  16.323  1.00  0.00    -0.275 OA
ENDBRANCH  11  16
ENDBRANCH  10  11
ENDBRANCH   7  10
ENDBRANCH   3   7
TORSDOF 5
ENDMDL