MODEL 3
REMARK VINA RESULT: -6.587970874      0.830      1.290
REMARK  4 active torsions:
REMARK  status: ('A' for Active; 'I' for Inactive)
REMARK       I    between atoms: C1_4  and  N3_6
REMARK    1  A    between atoms: N3_6  and  N4_8
REMARK    2  A    between atoms: C2_10  and  C3_11
REMARK    3  A    between atoms: C3_11  and  C4_12
REMARK    4  A    between atoms: N5_15  and  O2_16
ROOT
HETATM    1  N4  UNL     1      18.826  14.289  17.267  1.00  0.00    -0.313 N
ATOM      2  H4  UNL     1      19.014  14.552  16.300  1.00  0.00     0.185 HD
HETATM    3  C2  UNL     1      17.995  13.346  17.472  1.00  0.00     0.085 C
ENDROOT
BRANCH   1   4
HETATM    4  N3  UNL     1      19.497  14.987  18.269  1.00  0.00    -0.275 N
HETATM    5  C1  UNL     1      20.463  15.949  17.864  1.00  0.00     0.200 C
HETATM    6  N1  UNL     1      21.689  15.796  18.216  1.00  0.00    -0.372 N
HETATM    7  N2  UNL     1      20.016  17.044  17.079  1.00  0.00    -0.062 NA
ATOM      8  H12 UNL     1      22.382  16.486  17.926  1.00  0.00     0.158 HD
ATOM      9  H11 UNL     1      22.011  15.010  18.780  1.00  0.00     0.158 HD
ATOM     10  H3  UNL     1      19.302  14.815  19.255  1.00  0.00     0.189 HD
ENDBRANCH   1   4
BRANCH   3  11
HETATM   11  C3  UNL     1      17.673  12.909  18.868  1.00  0.00     0.088 C
BRANCH  11  12
HETATM   12  C4  UNL     1      16.392  12.146  18.856  1.00  0.00    -0.009 A
HETATM   13  C5  UNL     1      15.314  12.341  18.024  1.00  0.00     0.179 A
HETATM   14  O1  UNL     1      14.411  11.451  18.362  1.00  0.00    -0.222 OA
HETATM   15  N5  UNL     1      14.835  10.712  19.339  1.00  0.00    -0.133 N
HETATM   16  C6  UNL     1      16.062  11.098  19.690  1.00  0.00     0.160 A
BRANCH  15  17
HETATM   17  O2  UNL     1      14.129   9.682  19.931  1.00  0.00    -0.263 OA
ATOM     18  H2  UNL     1      14.341   8.758  19.864  1.00  0.00     0.247 HD
ENDBRANCH  15  17
ENDBRANCH  11  12
ENDBRANCH   3  11
TORSDOF 4
ENDMDL