MODEL 3
REMARK VINA RESULT: -5.752742204      3.025      5.549
REMARK  5 active torsions:
REMARK  status: ('A' for Active; 'I' for Inactive)
REMARK    1  A    between atoms: N1_1  and  C1_5
REMARK    2  A    between atoms: C1_5  and  C2_6
REMARK    3  A    between atoms: C1_5  and  C3_8
REMARK    4  A    between atoms: C3_8  and  C4_9
REMARK       I    between atoms: C4_9  and  N2_11
REMARK    5  A    between atoms: N2_11  and  C5_12
ROOT
HETATM    1  C4  UNL     1      18.450  13.664  17.683  1.00  0.00     0.294 C
HETATM    2  O2  UNL     1      18.757  12.461  17.686  1.00  0.00    -0.257 OA
HETATM    3  N2  UNL     1      19.301  14.764  17.597  1.00  0.00    -0.368 NA
ENDROOT
BRANCH   1   4
HETATM    4  C3  UNL     1      16.953  13.896  17.782  1.00  0.00     0.159 C
BRANCH   4   5
HETATM    5  C1  UNL     1      16.592  14.625  19.037  1.00  0.00     0.254 C
BRANCH   5   6
HETATM    6  N1  UNL     1      17.668  14.675  19.990  1.00  0.00    -0.068 N
ATOM      7  H13 UNL     1      18.556  14.368  19.593  1.00  0.00     0.275 HD
ATOM      8  H12 UNL     1      17.941  15.630  20.222  1.00  0.00     0.275 HD
ATOM      9  H11 UNL     1      17.399  14.135  20.813  1.00  0.00     0.275 HD
ENDBRANCH   5   6
BRANCH   5  10
HETATM   10  C2  UNL     1      16.184  16.019  18.706  1.00  0.00     0.264 C
HETATM   11  O1  UNL     1      14.996  16.286  18.774  1.00  0.00    -0.305 OA
ENDBRANCH   5  10
ENDBRANCH   4   5
ENDBRANCH   1   4
BRANCH   3  12
HETATM   12  C5  UNL     1      20.102  15.797  17.516  1.00  0.00     0.144 A
HETATM   13  C6  UNL     1      19.736  17.159  17.382  1.00  0.00     0.153 A
HETATM   14  N3  UNL     1      20.827  17.927  17.363  1.00  0.00    -0.309 N
HETATM   15  N4  UNL     1      21.907  17.147  17.479  1.00  0.00    -0.309 N
ATOM     16  H3  UNL     1      20.835  18.943  17.273  1.00  0.00     0.186 HD
HETATM   17  C7  UNL     1      21.505  15.869  17.572  1.00  0.00     0.153 A
ATOM     18  H4  UNL     1      22.875  17.469  17.494  1.00  0.00     0.186 HD
ENDBRANCH   3  12
TORSDOF 5
ENDMDL