MODEL 1
REMARK VINA RESULT: -6.209840197      0.000      0.000
REMARK  5 active torsions:
REMARK  status: ('A' for Active; 'I' for Inactive)
REMARK    1  A    between atoms: N1_1  and  C1_5
REMARK    2  A    between atoms: C4_8  and  N2_9
REMARK    3  A    between atoms: N2_9  and  C5_11
REMARK    4  A    between atoms: C5_11  and  C6_12
REMARK    5  A    between atoms: C6_12  and  N3_13
ROOT
HETATM    1  N2  UNL     1      19.724  15.127  18.141  1.00  0.00    -0.412 N
ATOM      2  H2  UNL     1      19.752  15.166  19.159  1.00  0.00     0.153 HD
ENDROOT
BRANCH   1   3
HETATM    3  C4  UNL     1      20.560  15.930  17.336  1.00  0.00     0.107 C
HETATM    4  C1  UNL     1      21.877  16.379  17.993  1.00  0.00     0.205 C
HETATM    5  C2  UNL     1      21.785  17.575  17.067  1.00  0.00     0.037 C
HETATM    6  C3  UNL     1      20.262  17.387  17.180  1.00  0.00     0.029 C
BRANCH   4   7
HETATM    7  N1  UNL     1      22.889  15.415  17.721  1.00  0.00    -0.073 N
ATOM      8  H13 UNL     1      22.709  14.983  16.814  1.00  0.00     0.274 HD
ATOM      9  H12 UNL     1      23.770  15.894  17.532  1.00  0.00     0.274 HD
ATOM     10  H11 UNL     1      23.044  14.685  18.417  1.00  0.00     0.274 HD
ENDBRANCH   4   7
ENDBRANCH   1   3
BRANCH   1  11
HETATM   11  C5  UNL     1      18.837  14.256  17.440  1.00  0.00     0.152 C
BRANCH  11  12
HETATM   12  C6  UNL     1      17.851  13.706  18.477  1.00  0.00     0.112 A
HETATM   13  C7  UNL     1      16.419  14.070  18.363  1.00  0.00     0.042 A
HETATM   14  C8  UNL     1      16.878  12.663  18.044  1.00  0.00     0.042 A
BRANCH  12  15
HETATM   15  N3  UNL     1      18.386  13.735  19.813  1.00  0.00    -0.143 N
HETATM   16  O1  UNL     1      17.958  14.568  20.620  1.00  0.00    -0.536 OA
HETATM   17  O2  UNL     1      19.357  12.853  20.180  1.00  0.00    -0.536 OA
ENDBRANCH  12  15
ENDBRANCH  11  12
ENDBRANCH   1  11
TORSDOF 5
ENDMDL