MODEL 4
REMARK VINA RESULT: -5.751693084      9.171     10.330
REMARK  4 active torsions:
REMARK  status: ('A' for Active; 'I' for Inactive)
REMARK    1  A    between atoms: N1_1  and  N2_4
REMARK       I    between atoms: N2_4  and  C1_5
REMARK    2  A    between atoms: C1_5  and  C2_7
REMARK    3  A    between atoms: C6_13  and  N4_14
REMARK    4  A    between atoms: N4_14  and  C7_16
ROOT
HETATM    1  C2  UNL     1      15.413   5.533  14.453  1.00  0.00     0.144 A
HETATM    2  N3  UNL     1      15.601   6.648  13.691  1.00  0.00    -0.359 N
ATOM      3  H3  UNL     1      14.782   7.120  13.307  1.00  0.00     0.165 HD
HETATM    4  C3  UNL     1      16.809   7.149  13.427  1.00  0.00     0.088 A
HETATM    5  C4  UNL     1      17.938   6.550  13.923  1.00  0.00     0.019 A
HETATM    6  C5  UNL     1      17.799   5.423  14.696  1.00  0.00     0.033 A
HETATM    7  C6  UNL     1      16.521   4.917  14.959  1.00  0.00     0.068 A
ENDROOT
BRANCH   1   8
HETATM    8  C1  UNL     1      14.017   5.066  14.626  1.00  0.00     0.363 C
HETATM    9  N2  UNL     1      13.405   5.245  15.880  1.00  0.00    -0.287 NA
HETATM   10  O1  UNL     1      13.445   4.528  13.652  1.00  0.00    -0.247 OA
BRANCH   9  11
HETATM   11  N1  UNL     1      12.852   5.405  17.013  1.00  0.00    -0.276 N
ATOM     12  H12 UNL     1      13.344   5.319  16.124  1.00  0.00     0.191 HD
ATOM     13  H11 UNL     1      12.406   5.532  17.922  1.00  0.00     0.191 HD
ENDBRANCH   9  11
ENDBRANCH   1   8
BRANCH   7  14
HETATM   14  N4  UNL     1      16.360   3.816  15.809  1.00  0.00    -0.332 N
ATOM     15  H4  UNL     1      16.254   2.887  15.401  1.00  0.00     0.168 HD
BRANCH  14  16
HETATM   16  C7  UNL     1      16.340   3.953  17.210  1.00  0.00     0.353 C
HETATM   17  O2  UNL     1      15.513   4.330  18.006  1.00  0.00    -0.283 OA
ENDBRANCH  14  16
ENDBRANCH   7  14
TORSDOF 4
ENDMDL