MODEL 4
REMARK VINA RESULT: -6.079110797      4.268      6.665
REMARK  3 active torsions:
REMARK  status: ('A' for Active; 'I' for Inactive)
REMARK    1  A    between atoms: C2_4  and  C3_5
REMARK    2  A    between atoms: C3_5  and  N3_6
REMARK       I    between atoms: N3_6  and  C4_8
REMARK    3  A    between atoms: C4_8  and  C5_10
ROOT
HETATM    1  N3  UNL     1      19.357  16.406  17.964  1.00  0.00    -0.335 N
ATOM      2  H3  UNL     1      19.035  16.898  18.798  1.00  0.00     0.168 HD
HETATM    3  C4  UNL     1      19.018  15.006  17.759  1.00  0.00     0.250 C
HETATM    4  O1  UNL     1      19.458  14.486  16.702  1.00  0.00    -0.270 OA
ENDROOT
BRANCH   1   5
HETATM    5  C3  UNL     1      20.138  17.078  16.996  1.00  0.00     0.094 C
BRANCH   5   6
HETATM    6  C2  UNL     1      21.566  17.231  17.184  1.00  0.00     0.059 C
HETATM    7  C1  UNL     1      22.438  16.550  17.863  1.00  0.00     0.129 C
HETATM    8  N1  UNL     1      22.178  15.402  18.645  1.00  0.00    -0.086 NA
HETATM    9  N2  UNL     1      23.845  16.928  17.885  1.00  0.00    -0.086 NA
ENDBRANCH   5   6
ENDBRANCH   1   5
BRANCH   3  10
HETATM   10  C5  UNL     1      18.207  14.248  18.731  1.00  0.00     0.213 C
HETATM   11  C6  UNL     1      16.759  14.512  18.469  1.00  0.00     0.044 C
HETATM   12  C7  UNL     1      16.227  13.136  18.125  1.00  0.00     0.029 C
HETATM   13  C8  UNL     1      17.230  12.245  18.825  1.00  0.00     0.168 C
HETATM   14  O2  UNL     1      18.428  12.892  18.544  1.00  0.00    -0.376 OA
ENDBRANCH   3  10
TORSDOF 3
ENDMDL