MODEL 5
REMARK VINA RESULT: -5.902153463      4.777      5.897
REMARK  3 active torsions:
REMARK  status: ('A' for Active; 'I' for Inactive)
REMARK    1  A    between atoms: C1_2  and  C2_4
REMARK    2  A    between atoms: C2_4  and  S1_5
REMARK    3  A    between atoms: S1_5  and  C3_6
ROOT
HETATM    1  C3  UNL     1      20.512  19.160  15.995  1.00  0.00     0.147 A
HETATM    2  N2  UNL     1      20.531  20.401  16.512  1.00  0.00    -0.346 N
ATOM      3  H2  UNL     1      20.689  20.538  17.510  1.00  0.00     0.167 HD
HETATM    4  C4  UNL     1      20.343  21.452  15.715  1.00  0.00     0.096 A
HETATM    5  C5  UNL     1      20.125  21.309  14.358  1.00  0.00     0.091 A
HETATM    6  C6  UNL     1      20.114  20.010  13.876  1.00  0.00     0.248 A
HETATM    7  O2  UNL     1      19.920  19.799  12.635  1.00  0.00    -0.268 OA
HETATM    8  N3  UNL     1      20.305  18.952  14.688  1.00  0.00    -0.304 N
ATOM      9  H3  UNL     1      20.293  18.005  14.313  1.00  0.00     0.171 HD
ENDROOT
BRANCH   1  10
HETATM   10  S1  UNL     1      20.779  17.731  17.060  1.00  0.00    -0.085 SA
BRANCH  10  11
HETATM   11  C2  UNL     1      22.537  17.351  17.122  1.00  0.00     0.181 C
BRANCH  11  12
HETATM   12  C1  UNL     1      22.770  15.960  17.600  1.00  0.00     0.240 C
HETATM   13  N1  UNL     1      23.678  15.123  16.893  1.00  0.00    -0.061 NA
HETATM   14  O1  UNL     1      22.208  15.459  18.605  1.00  0.00    -0.276 OA
ENDBRANCH  11  12
ENDBRANCH  10  11
ENDBRANCH   1  10
TORSDOF 3
ENDMDL