MODEL 5
REMARK VINA RESULT: -5.422205489      6.689      7.796
REMARK  5 active torsions:
REMARK  status: ('A' for Active; 'I' for Inactive)
REMARK    1  A    between atoms: C1_2  and  C2_4
REMARK    2  A    between atoms: C2_4  and  C3_5
REMARK    3  A    between atoms: C3_5  and  N2_6
REMARK    4  A    between atoms: C3_5  and  C4_10
REMARK    5  A    between atoms: C4_10  and  C5_12
ROOT
HETATM    1  C4  UNL     1      15.664   4.704  16.836  1.00  0.00     0.161 C
HETATM    2  O2  UNL     1      16.061   4.223  17.866  1.00  0.00    -0.295 OA
ENDROOT
BRANCH   1   3
HETATM    3  C3  UNL     1      14.251   4.624  16.405  1.00  0.00     0.261 C
BRANCH   3   4
HETATM    4  C2  UNL     1      13.747   5.924  15.831  1.00  0.00     0.140 C
BRANCH   4   5
HETATM    5  C1  UNL     1      13.187   6.844  16.825  1.00  0.00     0.233 C
HETATM    6  N1  UNL     1      14.032   7.739  17.523  1.00  0.00    -0.062 NA
HETATM    7  O1  UNL     1      11.961   6.858  17.076  1.00  0.00    -0.277 OA
ENDBRANCH   4   5
ENDBRANCH   3   4
BRANCH   3   8
HETATM    8  N2  UNL     1      13.374   4.337  17.549  1.00  0.00    -0.068 N
ATOM      9  H23 UNL     1      13.424   3.372  17.873  1.00  0.00     0.275 HD
ATOM     10  H22 UNL     1      13.678   4.772  18.419  1.00  0.00     0.275 HD
ATOM     11  H21 UNL     1      12.440   4.623  17.252  1.00  0.00     0.275 HD
ENDBRANCH   3   8
ENDBRANCH   1   3
BRANCH   1  12
HETATM   12  C5  UNL     1      16.639   5.403  15.976  1.00  0.00     0.060 C
HETATM   13  C6  UNL     1      17.954   5.679  16.621  1.00  0.00     0.040 C
HETATM   14  C7  UNL     1      19.133   5.156  15.842  1.00  0.00     0.233 C
HETATM   15  N3  UNL     1      19.124   5.502  14.463  1.00  0.00    -0.075 N
HETATM   16  C8  UNL     1      17.815   5.531  13.860  1.00  0.00     0.233 C
ATOM     17  H32 UNL     1      19.602   6.392  14.318  1.00  0.00     0.277 HD
ATOM     18  H31 UNL     1      19.743   4.883  13.938  1.00  0.00     0.277 HD
HETATM   19  C9  UNL     1      16.906   4.645  14.684  1.00  0.00     0.040 C
ENDBRANCH   1  12
TORSDOF 5
ENDMDL