MODEL 2
REMARK VINA RESULT: -5.819074894      5.919      7.012
REMARK  5 active torsions:
REMARK  status: ('A' for Active; 'I' for Inactive)
REMARK    1  A    between atoms: C1_2  and  C2_4
REMARK    2  A    between atoms: C2_4  and  C3_5
REMARK    3  A    between atoms: C3_5  and  N2_6
REMARK    4  A    between atoms: C3_5  and  C4_10
REMARK    5  A    between atoms: C4_10  and  C5_12
ROOT
HETATM    1  C3  UNL     1      21.749  17.356  17.271  1.00  0.00     0.267 C
ENDROOT
BRANCH   1   2
HETATM    2  C2  UNL     1      21.585  15.966  17.829  1.00  0.00     0.140 C
BRANCH   2   3
HETATM    3  C1  UNL     1      22.723  15.536  18.657  1.00  0.00     0.233 C
HETATM    4  N1  UNL     1      22.484  14.523  19.628  1.00  0.00    -0.062 NA
HETATM    5  O1  UNL     1      23.885  15.988  18.579  1.00  0.00    -0.277 OA
ENDBRANCH   2   3
ENDBRANCH   1   2
BRANCH   1   6
HETATM    6  N2  UNL     1      22.767  17.442  16.269  1.00  0.00    -0.067 N
ATOM      7  H23 UNL     1      23.100  16.514  16.009  1.00  0.00     0.275 HD
ATOM      8  H22 UNL     1      22.373  17.735  15.376  1.00  0.00     0.275 HD
ATOM      9  H21 UNL     1      23.544  18.045  16.538  1.00  0.00     0.275 HD
ENDBRANCH   1   6
BRANCH   1  10
HETATM   10  C4  UNL     1      20.456  17.938  16.839  1.00  0.00     0.207 C
HETATM   11  O2  UNL     1      19.378  17.391  17.169  1.00  0.00    -0.288 OA
BRANCH  10  12
HETATM   12  C5  UNL     1      20.374  19.145  16.031  1.00  0.00     0.097 A
HETATM   13  C6  UNL     1      20.270  19.254  14.662  1.00  0.00     0.122 A
HETATM   14  N3  UNL     1      20.219  20.549  14.292  1.00  0.00    -0.360 N
HETATM   15  C7  UNL     1      20.292  21.271  15.424  1.00  0.00     0.180 A
ATOM     16  H3  UNL     1      20.141  20.910  13.341  1.00  0.00     0.166 HD
HETATM   17  N4  UNL     1      20.385  20.437  16.470  1.00  0.00    -0.348 N
ATOM     18  H4  UNL     1      20.453  20.725  17.446  1.00  0.00     0.167 HD
ENDBRANCH  10  12
ENDBRANCH   1  10
TORSDOF 5
ENDMDL