MODEL 1
REMARK VINA RESULT: -5.256028296      0.000      0.000
REMARK  4 active torsions:
REMARK  status: ('A' for Active; 'I' for Inactive)
REMARK    1  A    between atoms: C5_7  and  N2_8
REMARK    2  A    between atoms: C6_10  and  N3_11
REMARK    3  A    between atoms: N3_11  and  N4_13
REMARK    4  A    between atoms: C7_16  and  C8_17
ROOT
HETATM    1  C1  UNL     1      18.910   4.121  14.936  1.00  0.00     0.069 C
HETATM    2  C2  UNL     1      17.670   4.872  14.634  1.00  0.00     0.022 A
HETATM    3  N1  UNL     1      17.331   5.095  13.334  1.00  0.00    -0.369 N
ATOM      4  H1  UNL     1      17.947   4.735  12.605  1.00  0.00     0.165 HD
HETATM    5  C3  UNL     1      16.230   5.763  12.960  1.00  0.00     0.090 A
HETATM    6  C4  UNL     1      15.359   6.273  13.900  1.00  0.00     0.047 A
HETATM    7  C5  UNL     1      15.671   6.066  15.220  1.00  0.00     0.051 A
HETATM    8  C7  UNL     1      16.829   5.364  15.596  1.00  0.00     0.078 A
ENDROOT
BRANCH   7   9
HETATM    9  N2  UNL     1      14.787   6.583  16.210  1.00  0.00    -0.350 N
HETATM   10  C6  UNL     1      13.822   5.851  16.690  1.00  0.00     0.197 C
ATOM     11  H2  UNL     1      14.910   7.538  16.546  1.00  0.00     0.166 HD
BRANCH  10  12
HETATM   12  N3  UNL     1      13.672   4.524  16.204  1.00  0.00    -0.303 N
ATOM     13  H3  UNL     1      13.542   4.366  15.205  1.00  0.00     0.187 HD
BRANCH  12  14
HETATM   14  N4  UNL     1      13.701   3.431  17.080  1.00  0.00    -0.344 N
ATOM     15  H42 UNL     1      12.831   2.934  17.268  1.00  0.00     0.176 HD
ATOM     16  H41 UNL     1      14.573   3.138  17.520  1.00  0.00     0.176 HD
ENDBRANCH  12  14
ENDBRANCH  10  12
ENDBRANCH   7   9
BRANCH   8  17
HETATM   17  C8  UNL     1      17.109   5.173  17.011  1.00  0.00     0.269 C
HETATM   18  N5  UNL     1      16.664   4.101  17.799  1.00  0.00    -0.057 NA
HETATM   19  O1  UNL     1      17.827   6.066  17.573  1.00  0.00    -0.271 OA
ENDBRANCH   8  17
TORSDOF 4
ENDMDL