MODEL 5
REMARK VINA RESULT: -5.777968847      1.727      1.879
REMARK  5 active torsions:
REMARK  status: ('A' for Active; 'I' for Inactive)
REMARK    1  A    between atoms: C1_2  and  C2_4
REMARK    2  A    between atoms: C5_7  and  C6_8
REMARK    3  A    between atoms: C6_8  and  C7_9
REMARK    4  A    between atoms: C7_9  and  N2_10
REMARK    5  A    between atoms: C7_9  and  C8_14
ROOT
HETATM    1  C2  UNL     1      15.631  11.063  19.345  1.00  0.00     0.140 A
HETATM    2  C3  UNL     1      14.775  11.568  18.389  1.00  0.00     0.045 A
HETATM    3  C4  UNL     1      15.474  12.490  17.652  1.00  0.00     0.036 A
HETATM    4  C5  UNL     1      16.752  12.519  18.188  1.00  0.00     0.056 A
HETATM    5  O3  UNL     1      16.776  11.669  19.166  1.00  0.00    -0.310 OA
ENDROOT
BRANCH   4   6
HETATM    6  C6  UNL     1      17.867  13.383  17.701  1.00  0.00     0.105 C
BRANCH   6   7
HETATM    7  C7  UNL     1      18.229  14.415  18.751  1.00  0.00     0.250 C
BRANCH   7   8
HETATM    8  N2  UNL     1      17.043  14.967  19.376  1.00  0.00    -0.069 N
ATOM      9  H23 UNL     1      17.108  15.979  19.477  1.00  0.00     0.275 HD
ATOM     10  H22 UNL     1      16.236  14.924  18.753  1.00  0.00     0.275 HD
ATOM     11  H21 UNL     1      16.851  14.512  20.269  1.00  0.00     0.275 HD
ENDBRANCH   7   8
BRANCH   7  12
HETATM   12  C8  UNL     1      19.005  15.523  18.142  1.00  0.00     0.264 C
HETATM   13  O2  UNL     1      20.005  15.278  17.494  1.00  0.00    -0.305 OA
ENDBRANCH   7  12
ENDBRANCH   6   7
ENDBRANCH   4   6
BRANCH   1  14
HETATM   14  C1  UNL     1      15.270  10.054  20.333  1.00  0.00     0.288 C
HETATM   15  N1  UNL     1      13.967   9.492  20.357  1.00  0.00    -0.055 NA
HETATM   16  O1  UNL     1      16.085   9.641  21.196  1.00  0.00    -0.269 OA
ENDBRANCH   1  14
TORSDOF 5
ENDMDL