MODEL 5
REMARK VINA RESULT: -5.274645581      1.767      5.777
REMARK  7 active torsions:
REMARK  status: ('A' for Active; 'I' for Inactive)
REMARK    1  A    between atoms: N1_1  and  C1_4
REMARK    2  A    between atoms: C1_4  and  C2_5
REMARK    3  A    between atoms: C2_5  and  C3_6
REMARK    4  A    between atoms: C3_6  and  N2_7
REMARK    5  A    between atoms: N2_7  and  C4_9
REMARK    6  A    between atoms: C6_15  and  N5_16
REMARK    7  A    between atoms: C7_19  and  C8_20
ROOT
HETATM    1  C4  UNL     1      18.549  14.266  18.350  1.00  0.00     0.119 A
HETATM    2  N3  UNL     1      18.298  13.879  17.059  1.00  0.00    -0.338 N
ATOM      3  H3  UNL     1      18.775  14.380  16.309  1.00  0.00     0.168 HD
HETATM    4  C5  UNL     1      17.480  12.900  16.726  1.00  0.00     0.183 A
HETATM    5  N4  UNL     1      16.853  12.240  17.702  1.00  0.00    -0.338 N
ATOM      6  H4  UNL     1      16.217  11.479  17.466  1.00  0.00     0.168 HD
HETATM    7  C6  UNL     1      17.054  12.569  19.018  1.00  0.00     0.116 A
HETATM    8  C7  UNL     1      17.923  13.609  19.371  1.00  0.00     0.089 A
ENDROOT
BRANCH   1   9
HETATM    9  N2  UNL     1      19.448  15.332  18.584  1.00  0.00    -0.374 N
ATOM     10  H2  UNL     1      19.564  15.699  19.529  1.00  0.00     0.161 HD
BRANCH   9  11
HETATM   11  C3  UNL     1      20.214  15.912  17.474  1.00  0.00     0.134 C
BRANCH  11  12
HETATM   12  C2  UNL     1      21.643  15.897  17.826  1.00  0.00     0.123 C
BRANCH  12  13
HETATM   13  C1  UNL     1      22.521  16.609  17.194  1.00  0.00    -0.076 C
BRANCH  13  14
HETATM   14  N1  UNL     1      23.284  17.236  16.397  1.00  0.00    -0.370 N
ATOM     15  H12 UNL     1      23.826  16.378  16.292  1.00  0.00     0.165 HD
ATOM     16  H11 UNL     1      23.793  17.875  15.786  1.00  0.00     0.165 HD
ENDBRANCH  13  14
ENDBRANCH  12  13
ENDBRANCH  11  12
ENDBRANCH   9  11
ENDBRANCH   1   9
BRANCH   8  17
HETATM   17  C8  UNL     1      18.080  13.895  20.777  1.00  0.00     0.277 C
HETATM   18  O1  UNL     1      17.934  14.970  21.370  1.00  0.00    -0.301 OA
ENDBRANCH   8  17
BRANCH   7  19
HETATM   19  N5  UNL     1      16.398  11.863  19.854  1.00  0.00    -0.385 N
ATOM     20  H52 UNL     1      16.760  11.027  20.312  1.00  0.00     0.157 HD
ATOM     21  H51 UNL     1      15.453  12.195  20.047  1.00  0.00     0.157 HD
ENDBRANCH   7  19
TORSDOF 7
ENDMDL