MODEL 3
REMARK VINA RESULT: -5.408599974      1.444      2.013
REMARK  5 active torsions:
REMARK  status: ('A' for Active; 'I' for Inactive)
REMARK    1  A    between atoms: C1_2  and  C2_3
REMARK    2  A    between atoms: C2_3  and  N1_4
REMARK    3  A    between atoms: C2_3  and  C8_12
REMARK    4  A    between atoms: N1_4  and  N2_6
REMARK    5  A    between atoms: N2_6  and  C3_7
ROOT
HETATM    1  N1  UNL     1      18.836  15.505  18.134  1.00  0.00    -0.295 N
ATOM      2  H1  UNL     1      18.358  16.404  18.196  1.00  0.00     0.182 HD
ENDROOT
BRANCH   1   3
HETATM    3  C2  UNL     1      18.358  14.260  18.661  1.00  0.00     0.159 C
BRANCH   3   4
HETATM    4  C1  UNL     1      17.190  13.697  17.997  1.00  0.00     0.296 C
HETATM    5  O1  UNL     1      16.053  13.547  18.498  1.00  0.00    -0.300 OA
ENDBRANCH   3   4
BRANCH   3   6
HETATM    6  C8  UNL     1      18.578  13.996  20.055  1.00  0.00     0.231 C
HETATM    7  O2  UNL     1      17.868  14.615  20.966  1.00  0.00    -0.643 OA
HETATM    8  O3  UNL     1      19.532  13.060  20.488  1.00  0.00    -0.643 OA
ENDBRANCH   3   6
ENDBRANCH   1   3
BRANCH   1   9
HETATM    9  N2  UNL     1      20.110  15.266  17.500  1.00  0.00    -0.132 NA
BRANCH   9  10
HETATM   10  C3  UNL     1      21.069  16.047  18.235  1.00  0.00     0.122 C
HETATM   11  C4  UNL     1      22.398  15.408  18.213  1.00  0.00    -0.008 C
HETATM   12  C5  UNL     1      23.192  15.920  17.365  1.00  0.00    -0.029 C
HETATM   13  C6  UNL     1      22.558  17.026  16.599  1.00  0.00     0.029 C
HETATM   14  C7  UNL     1      21.384  17.332  17.472  1.00  0.00     0.031 C
ENDBRANCH   9  10
ENDBRANCH   1   9
TORSDOF 5
ENDMDL