MODEL 3
REMARK VINA RESULT: -5.537540887      2.511      5.123
REMARK  5 active torsions:
REMARK  status: ('A' for Active; 'I' for Inactive)
REMARK    1  A    between atoms: N1_1  and  C1_5
REMARK    2  A    between atoms: C1_5  and  C2_6
REMARK    3  A    between atoms: C1_5  and  C3_8
REMARK    4  A    between atoms: C3_8  and  C4_10
REMARK    5  A    between atoms: C4_10  and  C5_11
ROOT
HETATM    1  C3  UNL     1      15.255  11.331  18.900  1.00  0.00     0.166 C
HETATM    2  O2  UNL     1      14.502  11.609  17.984  1.00  0.00    -0.295 OA
ENDROOT
BRANCH   1   3
HETATM    3  C1  UNL     1      14.783  10.526  20.072  1.00  0.00     0.313 C
BRANCH   3   4
HETATM    4  N1  UNL     1      15.879  10.170  20.943  1.00  0.00    -0.062 N
ATOM      5  H13 UNL     1      15.581  10.093  21.916  1.00  0.00     0.275 HD
ATOM      6  H12 UNL     1      16.179   9.205  20.800  1.00  0.00     0.275 HD
ATOM      7  H11 UNL     1      16.650  10.828  20.832  1.00  0.00     0.275 HD
ENDBRANCH   3   4
BRANCH   3   8
HETATM    8  C2  UNL     1      14.106   9.300  19.560  1.00  0.00     0.271 C
HETATM    9  O1  UNL     1      13.325   8.727  20.272  1.00  0.00    -0.304 OA
ENDBRANCH   3   8
ENDBRANCH   1   3
BRANCH   1  10
HETATM   10  C4  UNL     1      16.669  11.791  18.865  1.00  0.00     0.106 C
BRANCH  10  11
HETATM   11  C5  UNL     1      16.738  13.077  18.110  1.00  0.00     0.091 C
HETATM   12  C6  UNL     1      17.986  13.863  18.389  1.00  0.00     0.035 C
HETATM   13  C7  UNL     1      17.587  15.049  19.239  1.00  0.00     0.105 C
HETATM   14  C8  UNL     1      16.190  15.277  18.787  1.00  0.00     0.217 C
HETATM   15  O3  UNL     1      15.568  16.382  18.697  1.00  0.00    -0.274 OA
HETATM   16  N2  UNL     1      15.676  13.987  18.467  1.00  0.00    -0.356 N
ATOM     17  H2  UNL     1      14.687  13.739  18.488  1.00  0.00     0.162 HD
ENDBRANCH  10  11
ENDBRANCH   1  10
TORSDOF 5
ENDMDL