MODEL 5
REMARK VINA RESULT: -4.482345984      3.899      5.020
REMARK  5 active torsions:
REMARK  status: ('A' for Active; 'I' for Inactive)
REMARK    1  A    between atoms: N1_1  and  C1_5
REMARK    2  A    between atoms: C1_5  and  C2_6
REMARK    3  A    between atoms: C2_6  and  N2_7
REMARK    4  A    between atoms: C2_6  and  C4_11
REMARK    5  A    between atoms: N2_7  and  C3_9
ROOT
HETATM    1  C2  UNL     1      22.946  15.725  18.450  1.00  0.00     0.149 C
ENDROOT
BRANCH   1   2
HETATM    2  C1  UNL     1      24.067  14.915  17.854  1.00  0.00     0.257 C
BRANCH   2   3
HETATM    3  N1  UNL     1      24.376  15.324  16.519  1.00  0.00    -0.077 N
ATOM      4  H13 UNL     1      25.381  15.294  16.348  1.00  0.00     0.274 HD
ATOM      5  H12 UNL     1      24.075  14.626  15.840  1.00  0.00     0.274 HD
ATOM      6  H11 UNL     1      23.991  16.243  16.300  1.00  0.00     0.274 HD
ENDBRANCH   2   3
ENDBRANCH   1   2
BRANCH   1   7
HETATM    7  N2  UNL     1      22.221  14.971  19.447  1.00  0.00    -0.359 N
ATOM      8  H2  UNL     1      21.206  15.066  19.483  1.00  0.00     0.162 HD
BRANCH   7   9
HETATM    9  C3  UNL     1      22.852  14.104  20.378  1.00  0.00     0.348 C
HETATM   10  O1  UNL     1      22.302  12.974  20.573  1.00  0.00    -0.284 OA
ENDBRANCH   7   9
ENDBRANCH   1   7
BRANCH   1  11
HETATM   11  C4  UNL     1      22.073  16.297  17.395  1.00  0.00     0.271 C
HETATM   12  N3  UNL     1      21.903  17.728  17.530  1.00  0.00    -0.059 N
HETATM   13  C5  UNL     1      20.800  18.099  16.662  1.00  0.00     0.244 C
ATOM     14  H32 UNL     1      21.775  18.028  18.496  1.00  0.00     0.278 HD
ATOM     15  H31 UNL     1      22.757  18.255  17.344  1.00  0.00     0.278 HD
HETATM   16  C6  UNL     1      19.581  17.429  17.306  1.00  0.00     0.103 C
HETATM   17  S1  UNL     1      20.323  15.772  17.616  1.00  0.00    -0.133 SA
ENDBRANCH   1  11
TORSDOF 5
ENDMDL