MODEL 5
REMARK VINA RESULT: -6.090639207      4.115      6.201
REMARK  4 active torsions:
REMARK  status: ('A' for Active; 'I' for Inactive)
REMARK    1  A    between atoms: C1_2  and  C2_4
REMARK    2  A    between atoms: C2_4  and  N1_5
REMARK    3  A    between atoms: C2_4  and  C5_15
REMARK    4  A    between atoms: C3_7  and  C4_8
ROOT
HETATM    1  N1  UNL     1      17.425  12.982  19.586  1.00  0.00    -0.381 N
ATOM      2  H1  UNL     1      17.458  12.823  20.593  1.00  0.00     0.160 HD
HETATM    3  C3  UNL     1      16.624  12.255  18.931  1.00  0.00     0.135 C
ENDROOT
BRANCH   1   4
HETATM    4  C2  UNL     1      18.287  13.998  19.079  1.00  0.00     0.186 C
BRANCH   4   5
HETATM    5  C1  UNL     1      19.675  13.829  19.630  1.00  0.00     0.197 C
HETATM    6  O1  UNL     1      19.933  12.926  20.464  1.00  0.00    -0.646 OA
HETATM    7  O2  UNL     1      20.712  14.657  19.240  1.00  0.00    -0.646 OA
ENDBRANCH   4   5
BRANCH   4   8
HETATM    8  C5  UNL     1      17.710  15.335  19.492  1.00  0.00     0.019 A
HETATM    9  C6  UNL     1      17.698  16.477  18.549  1.00  0.00     0.007 A
HETATM   10  C7  UNL     1      16.421  15.707  18.796  1.00  0.00     0.007 A
ENDBRANCH   4   8
ENDBRANCH   1   4
BRANCH   3  11
HETATM   11  C4  UNL     1      15.821  11.264  19.639  1.00  0.00     0.152 A
HETATM   12  N2  UNL     1      14.820  10.398  19.363  1.00  0.00    -0.269 N
HETATM   13  N3  UNL     1      14.779   9.963  20.602  1.00  0.00    -0.239 N
ATOM     14  H2  UNL     1      14.297  10.171  18.518  1.00  0.00     0.190 HD
HETATM   15  N4  UNL     1      15.745  10.787  20.901  1.00  0.00    -0.269 N
ATOM     16  H3  UNL     1      14.226   9.273  21.113  1.00  0.00     0.208 HD
ATOM     17  H4  UNL     1      16.251  10.994  21.763  1.00  0.00     0.190 HD
ENDBRANCH   3  11
TORSDOF 4
ENDMDL