MODEL 5
REMARK VINA RESULT: -6.210102474      1.567      2.400
REMARK  4 active torsions:
REMARK  status: ('A' for Active; 'I' for Inactive)
REMARK    1  A    between atoms: C1_2  and  N1_3
REMARK    2  A    between atoms: N1_3  and  C2_5
REMARK    3  A    between atoms: C2_5  and  C3_6
REMARK    4  A    between atoms: C2_5  and  C4_9
ROOT
HETATM    1  C2  UNL     1      18.319  13.963  18.793  1.00  0.00     0.216 C
ENDROOT
BRANCH   1   2
HETATM    2  N1  UNL     1      18.649  14.623  17.559  1.00  0.00    -0.351 N
ATOM      3  H1  UNL     1      18.062  14.455  16.742  1.00  0.00     0.162 HD
BRANCH   2   4
HETATM    4  C1  UNL     1      19.766  15.507  17.429  1.00  0.00     0.349 C
HETATM    5  O1  UNL     1      19.647  16.752  17.444  1.00  0.00    -0.284 OA
ENDBRANCH   2   4
ENDBRANCH   1   2
BRANCH   1   6
HETATM    6  C3  UNL     1      17.692  14.895  19.770  1.00  0.00     0.199 C
HETATM    7  O2  UNL     1      18.042  14.946  20.974  1.00  0.00    -0.646 OA
HETATM    8  O3  UNL     1      16.681  15.752  19.367  1.00  0.00    -0.646 OA
ENDBRANCH   1   6
BRANCH   1   9
HETATM    9  C4  UNL     1      17.466  12.762  18.531  1.00  0.00     0.184 C
HETATM   10  C5  UNL     1      16.125  13.213  18.023  1.00  0.00     0.160 C
HETATM   11  N2  UNL     1      15.199  12.199  18.486  1.00  0.00    -0.334 N
HETATM   12  C6  UNL     1      15.845  11.511  19.540  1.00  0.00     0.361 C
ATOM     13  H2  UNL     1      14.264  12.016  18.122  1.00  0.00     0.164 HD
HETATM   14  O4  UNL     1      15.366  10.555  20.197  1.00  0.00    -0.239 OA
HETATM   15  O5  UNL     1      17.119  12.080  19.729  1.00  0.00    -0.294 OA
ENDBRANCH   1   9
TORSDOF 4
ENDMDL