MODEL 5
REMARK VINA RESULT: -4.948332080      1.450      1.505
REMARK  4 active torsions:
REMARK  status: ('A' for Active; 'I' for Inactive)
REMARK    1  A    between atoms: C1_2  and  C2_4
REMARK    2  A    between atoms: C2_4  and  C3_5
REMARK    3  A    between atoms: C3_5  and  N2_6
REMARK    4  A    between atoms: C3_5  and  C4_10
ROOT
HETATM    1  C3  UNL     1      18.581  15.119  18.356  1.00  0.00     0.214 C
ENDROOT
BRANCH   1   2
HETATM    2  C2  UNL     1      18.238  13.820  17.689  1.00  0.00     0.134 C
BRANCH   2   3
HETATM    3  C1  UNL     1      17.055  13.258  18.395  1.00  0.00     0.233 C
HETATM    4  N1  UNL     1      17.082  12.002  19.045  1.00  0.00    -0.062 NA
HETATM    5  O1  UNL     1      16.010  13.955  18.392  1.00  0.00    -0.277 OA
ENDBRANCH   2   3
ENDBRANCH   1   2
BRANCH   1   6
HETATM    6  N2  UNL     1      18.782  14.865  19.769  1.00  0.00    -0.073 N
ATOM      7  H23 UNL     1      18.602  15.687  20.345  1.00  0.00     0.274 HD
ATOM      8  H22 UNL     1      18.065  14.259  20.165  1.00  0.00     0.274 HD
ATOM      9  H21 UNL     1      19.724  14.494  19.896  1.00  0.00     0.274 HD
ENDBRANCH   1   6
BRANCH   1  10
HETATM   10  C4  UNL     1      19.766  15.809  17.708  1.00  0.00     0.116 C
HETATM   11  C5  UNL     1      19.663  17.289  17.741  1.00  0.00     0.100 C
HETATM   12  S1  UNL     1      21.095  17.954  16.804  1.00  0.00    -0.165 SA
HETATM   13  C6  UNL     1      22.511  16.963  17.401  1.00  0.00     0.093 C
HETATM   14  C7  UNL     1      21.998  16.144  18.564  1.00  0.00     0.124 C
HETATM   15  N3  UNL     1      20.952  15.252  18.244  1.00  0.00    -0.414 N
ATOM     16  H3  UNL     1      21.047  14.247  18.393  1.00  0.00     0.153 HD
ENDBRANCH   1  10
TORSDOF 4
ENDMDL