MODEL 5
REMARK VINA RESULT: -5.833766487      2.486      4.934
REMARK  4 active torsions:
REMARK  status: ('A' for Active; 'I' for Inactive)
REMARK    1  A    between atoms: C1_2  and  C2_4
REMARK    2  A    between atoms: C2_4  and  N2_5
REMARK    3  A    between atoms: C2_4  and  C3_9
REMARK    4  A    between atoms: C3_9  and  C4_10
ROOT
HETATM    1  C3  UNL     1      20.007  14.946  18.557  1.00  0.00     0.082 C
ENDROOT
BRANCH   1   2
HETATM    2  C2  UNL     1      20.264  15.943  17.460  1.00  0.00     0.276 C
BRANCH   2   3
HETATM    3  C1  UNL     1      21.645  16.431  17.661  1.00  0.00     0.262 C
HETATM    4  N1  UNL     1      22.549  15.678  18.456  1.00  0.00    -0.060 NA
HETATM    5  O1  UNL     1      22.012  17.494  17.134  1.00  0.00    -0.275 OA
ENDBRANCH   2   3
BRANCH   2   6
HETATM    6  N2  UNL     1      19.380  17.079  17.657  1.00  0.00    -0.067 N
ATOM      7  H23 UNL     1      19.869  17.919  17.965  1.00  0.00     0.275 HD
ATOM      8  H22 UNL     1      19.010  17.456  16.784  1.00  0.00     0.275 HD
ATOM      9  H21 UNL     1      18.650  16.780  18.305  1.00  0.00     0.275 HD
ENDBRANCH   2   6
ENDBRANCH   1   2
BRANCH   1  10
HETATM   10  C4  UNL     1      18.768  14.186  18.431  1.00  0.00    -0.029 A
HETATM   11  C5  UNL     1      18.135  13.919  17.240  1.00  0.00     0.026 A
HETATM   12  C6  UNL     1      16.971  13.209  17.119  1.00  0.00     0.088 A
HETATM   13  N3  UNL     1      16.408  12.743  18.270  1.00  0.00    -0.373 N
HETATM   14  C7  UNL     1      16.994  12.983  19.452  1.00  0.00     0.114 A
ATOM     15  H3  UNL     1      15.539  12.210  18.233  1.00  0.00     0.164 HD
HETATM   16  C8  UNL     1      18.177  13.700  19.584  1.00  0.00     0.068 A
HETATM   17  N4  UNL     1      18.755  13.911  20.865  1.00  0.00    -0.100 NA
ENDBRANCH   1  10
TORSDOF 4
ENDMDL