MODEL 3
REMARK VINA RESULT: -5.359661756      2.140      4.350
REMARK  7 active torsions:
REMARK  status: ('A' for Active; 'I' for Inactive)
REMARK    1  A    between atoms: C2_2  and  C3_3
REMARK    2  A    between atoms: C3_3  and  N1_4
REMARK    3  A    between atoms: C3_3  and  C4_8
REMARK    4  A    between atoms: C4_8  and  C5_10
REMARK    5  A    between atoms: C5_10  and  C6_11
REMARK    6  A    between atoms: C6_11  and  N2_12
REMARK    7  A    between atoms: C6_11  and  N3_16
ROOT
HETATM    1  C5  UNL     1      18.751  14.521  18.697  1.00  0.00     0.076 C
HETATM    2  C7  UNL     1      19.623  13.891  19.754  1.00  0.00     0.021 C
HETATM    3  C8  UNL     1      18.397  13.971  20.679  1.00  0.00     0.002 C
HETATM    4  C9  UNL     1      18.031  15.228  19.875  1.00  0.00     0.021 C
ENDROOT
BRANCH   1   5
HETATM    5  C4  UNL     1      17.902  13.529  18.027  1.00  0.00     0.173 C
HETATM    6  O1  UNL     1      18.480  12.486  17.668  1.00  0.00    -0.294 OA
BRANCH   5   7
HETATM    7  C3  UNL     1      16.490  13.637  17.749  1.00  0.00     0.275 C
BRANCH   7   8
HETATM    8  C2  UNL     1      15.624  12.537  18.259  1.00  0.00     0.003 C
HETATM    9  C1  UNL     1      15.861  11.812  19.325  1.00  0.00     0.009 C
ENDBRANCH   7   8
BRANCH   7  10
HETATM   10  N1  UNL     1      15.950  14.883  18.354  1.00  0.00    -0.065 N
ATOM     11  H13 UNL     1      16.102  15.715  17.784  1.00  0.00     0.275 HD
ATOM     12  H12 UNL     1      14.931  14.926  18.363  1.00  0.00     0.275 HD
ATOM     13  H11 UNL     1      16.369  14.941  19.282  1.00  0.00     0.275 HD
ENDBRANCH   7  10
ENDBRANCH   5   7
ENDBRANCH   1   5
BRANCH   1  14
HETATM   14  C6  UNL     1      19.486  15.519  17.837  1.00  0.00     0.393 C
BRANCH  14  15
HETATM   15  N2  UNL     1      20.844  15.711  18.209  1.00  0.00    -0.049 N
ATOM     16  H23 UNL     1      20.914  16.372  18.983  1.00  0.00     0.276 HD
ATOM     17  H22 UNL     1      21.214  14.875  18.662  1.00  0.00     0.276 HD
ATOM     18  H21 UNL     1      21.449  15.997  17.438  1.00  0.00     0.276 HD
ENDBRANCH  14  15
BRANCH  14  19
HETATM   19  N3  UNL     1      18.785  16.795  18.002  1.00  0.00    -0.049 N
ATOM     20  H33 UNL     1      18.072  16.775  18.731  1.00  0.00     0.276 HD
ATOM     21  H32 UNL     1      19.365  17.526  18.414  1.00  0.00     0.276 HD
ATOM     22  H31 UNL     1      18.418  17.039  17.082  1.00  0.00     0.276 HD
ENDBRANCH  14  19
ENDBRANCH   1  14
TORSDOF 7
ENDMDL