MODEL 2
REMARK VINA RESULT: -6.503477624      1.961      2.096
REMARK  5 active torsions:
REMARK  status: ('A' for Active; 'I' for Inactive)
REMARK    1  A    between atoms: N1_1  and  C1_5
REMARK    2  A    between atoms: C1_5  and  C2_6
REMARK       I    between atoms: C2_6  and  N2_8
REMARK    3  A    between atoms: N2_8  and  N3_10
REMARK    4  A    between atoms: C3_12  and  C4_13
REMARK    5  A    between atoms: C7_18  and  C8_19
ROOT
HETATM    1  N3  UNL     1      20.346  15.672  18.362  1.00  0.00    -0.307 N
ATOM      2  H3  UNL     1      20.505  15.151  19.224  1.00  0.00     0.186 HD
HETATM    3  C3  UNL     1      19.298  15.467  17.690  1.00  0.00     0.137 C
ENDROOT
BRANCH   1   4
HETATM    4  N2  UNL     1      21.284  16.602  17.934  1.00  0.00    -0.269 N
HETATM    5  C2  UNL     1      22.656  16.303  18.030  1.00  0.00     0.261 C
HETATM    6  O1  UNL     1      23.039  15.216  18.494  1.00  0.00    -0.270 OA
ATOM      7  H2  UNL     1      20.980  17.497  17.553  1.00  0.00     0.190 HD
BRANCH   5   8
HETATM    8  C1  UNL     1      23.662  17.277  17.582  1.00  0.00     0.333 C
BRANCH   8   9
HETATM    9  N1  UNL     1      23.407  17.623  16.224  1.00  0.00    -0.071 N
ATOM     10  H13 UNL     1      22.412  17.731  16.032  1.00  0.00     0.274 HD
ATOM     11  H12 UNL     1      23.701  18.575  16.004  1.00  0.00     0.274 HD
ATOM     12  H11 UNL     1      23.845  16.932  15.614  1.00  0.00     0.274 HD
ENDBRANCH   8   9
ENDBRANCH   5   8
ENDBRANCH   1   4
BRANCH   3  13
HETATM   13  C4  UNL     1      18.245  14.507  18.056  1.00  0.00     0.062 A
HETATM   14  N4  UNL     1      18.325  13.166  17.963  1.00  0.00    -0.364 N
HETATM   15  C5  UNL     1      17.202  12.578  18.375  1.00  0.00     0.089 A
ATOM     16  H4  UNL     1      19.143  12.663  17.620  1.00  0.00     0.165 HD
HETATM   17  C6  UNL     1      16.364  13.588  18.749  1.00  0.00     0.034 A
HETATM   18  C7  UNL     1      17.005  14.823  18.556  1.00  0.00     0.031 A
BRANCH  18  19
HETATM   19  C8  UNL     1      16.412  16.131  18.848  1.00  0.00     0.272 C
HETATM   20  O2  UNL     1      15.148  16.201  18.851  1.00  0.00    -0.301 OA
ENDBRANCH  18  19
ENDBRANCH   3  13
TORSDOF 5
ENDMDL