MODEL 5
REMARK VINA RESULT: -7.437815694      2.060      3.278
REMARK  3 active torsions:
REMARK  status: ('A' for Active; 'I' for Inactive)
REMARK    1  A    between atoms: C2_2  and  C4_4
REMARK    2  A    between atoms: C4_4  and  N1_5
REMARK       I    between atoms: N1_5  and  C5_7
REMARK       I    between atoms: C5_7  and  N2_9
REMARK    3  A    between atoms: N2_9  and  C6_11
ROOT
HETATM    1  C6  UNL     1       2.502  17.078  40.425  1.00  0.00     0.037 C
HETATM    2  C7  UNL     1       1.503  18.113  40.029  1.00  0.00     0.035 C
HETATM    3  C8  UNL     1       0.068  17.666  40.100  1.00  0.00    -0.010 C
HETATM    4  C9  UNL     1      -0.419  17.095  38.797  1.00  0.00     0.005 C
HETATM    5  C10 UNL     1       0.395  16.041  38.198  1.00  0.00     0.005 C
HETATM    6  C11 UNL     1       1.333  15.303  39.090  1.00  0.00    -0.010 C
HETATM    7  C12 UNL     1       0.705  14.767  40.338  1.00  0.00     0.030 C
HETATM    8  C13 UNL     1       0.763  15.705  41.493  1.00  0.00     0.040 C
HETATM    9 CL1  UNL     1       0.304  14.832  42.971  1.00  0.00    -0.119 Cl
HETATM   10  C14 UNL     1      -0.254  16.797  41.278  1.00  0.00     0.030 C
HETATM   11  C15 UNL     1       2.092  16.344  41.695  1.00  0.00     0.056 C
HETATM   12  C16 UNL     1       2.621  16.060  39.346  1.00  0.00     0.035 C
ENDROOT
BRANCH   1  13
HETATM   13  N2  UNL     1       3.785  17.707  40.627  1.00  0.00    -0.334 N
HETATM   14  C5  UNL     1       4.102  18.662  41.611  1.00  0.00     0.316 C
HETATM   15  N1  UNL     1       5.389  19.236  41.745  1.00  0.00    -0.343 N
HETATM   16  O1  UNL     1       3.224  19.042  42.421  1.00  0.00    -0.247 OA
ATOM     17  H1  UNL     1       6.128  18.950  41.103  1.00  0.00     0.164 HD
ATOM     18  H2  UNL     1       4.536  17.432  39.994  1.00  0.00     0.165 HD
BRANCH  15  19
HETATM   19  C4  UNL     1       5.688  20.217  42.768  1.00  0.00     0.128 C
BRANCH  19  20
HETATM   20  C2  UNL     1       6.916  21.009  42.463  1.00  0.00    -0.005 C
HETATM   21  C1  UNL     1       8.024  20.550  43.387  1.00  0.00     0.011 C
HETATM   22  C3  UNL     1       7.274  20.755  41.005  1.00  0.00     0.011 C
ENDBRANCH  19  20
ENDBRANCH  15  19
ENDBRANCH   1  13
TORSDOF 3
ENDMDL