MODEL 1
REMARK VINA RESULT: -7.882807721      0.000      0.000
REMARK  4 active torsions:
REMARK  status: ('A' for Active; 'I' for Inactive)
REMARK       I    between atoms: C1_2  and  N2_3
REMARK       I    between atoms: N3_5  and  C2_7
REMARK       I    between atoms: C2_7  and  N4_9
REMARK    1  A    between atoms: N4_9  and  C3_11
REMARK    2  A    between atoms: N5_17  and  C9_19
REMARK    3  A    between atoms: C9_19  and  C10_20
REMARK    4  A    between atoms: C11_21  and  C12_22
ROOT
HETATM    1  N1  UNL     1       2.438  16.923  44.927  1.00  0.00    -0.062 NA
HETATM    2  C1  UNL     1       2.970  17.049  43.638  1.00  0.00     0.203 C
HETATM    3  N2  UNL     1       4.170  17.763  43.438  1.00  0.00    -0.270 N
ATOM      4  H2  UNL     1       5.053  17.274  43.295  1.00  0.00     0.189 HD
HETATM    5  N3  UNL     1       4.120  19.021  43.442  1.00  0.00    -0.249 N
ATOM      6  H3  UNL     1       3.208  19.451  43.591  1.00  0.00     0.192 HD
HETATM    7  C2  UNL     1       5.215  19.885  43.259  1.00  0.00     0.335 C
HETATM    8  O1  UNL     1       6.339  19.568  43.680  1.00  0.00    -0.246 OA
HETATM    9  N4  UNL     1       5.021  21.109  42.595  1.00  0.00    -0.337 N
ATOM     10  H4  UNL     1       4.083  21.336  42.264  1.00  0.00     0.164 HD
HETATM   11  N5  UNL     1       2.378  16.521  42.636  1.00  0.00    -0.360 N
ATOM     12  H5  UNL     1       2.779  16.623  41.704  1.00  0.00     0.162 HD
ENDROOT
BRANCH   9  13
HETATM   13  C3  UNL     1       6.091  22.074  42.355  1.00  0.00     0.086 C
HETATM   14  C4  UNL     1       6.813  21.689  41.116  1.00  0.00     0.025 C
HETATM   15  C5  UNL     1       7.425  22.792  40.339  1.00  0.00     0.002 C
HETATM   16  C6  UNL     1       7.541  24.057  41.200  1.00  0.00     0.000 C
HETATM   17  C7  UNL     1       6.074  24.428  41.456  1.00  0.00     0.002 C
HETATM   18  C8  UNL     1       5.524  23.436  42.411  1.00  0.00     0.025 C
ENDBRANCH   9  13
BRANCH  11  19
HETATM   19  C9  UNL     1       1.122  15.767  42.810  1.00  0.00     0.149 C
BRANCH  19  20
HETATM   20  C10 UNL     1       0.693  15.333  41.476  1.00  0.00    -0.010 C
HETATM   21  C11 UNL     1       0.026  16.081  40.660  1.00  0.00    -0.014 C
BRANCH  21  22
HETATM   22  C12 UNL     1      -0.411  17.460  40.908  1.00  0.00     0.141 C
HETATM   23 CL1  UNL     1      -0.037  18.516  39.499  1.00  0.00    -0.126 Cl
ENDBRANCH  21  22
ENDBRANCH  19  20
ENDBRANCH  11  19
TORSDOF 4
ENDMDL