MODEL 2
REMARK VINA RESULT: -7.713517754      3.205      5.361
REMARK  4 active torsions:
REMARK  status: ('A' for Active; 'I' for Inactive)
REMARK    1  A    between atoms: C4_9  and  C5_10
REMARK    2  A    between atoms: C5_10  and  C6_11
REMARK    3  A    between atoms: C12_18  and  C13_19
REMARK    4  A    between atoms: C13_19  and  C14_20
ROOT
HETATM    1  C1  UNL     1       2.754  13.310  43.661  1.00  0.00     0.032 C
HETATM    2  C2  UNL     1       2.853  14.721  44.110  1.00  0.00     0.085 C
HETATM    3  N1  UNL     1       2.238  15.007  45.385  1.00  0.00    -0.363 N
ATOM      4  H1  UNL     1       2.771  15.280  46.210  1.00  0.00     0.162 HD
HETATM    5  C3  UNL     1       0.809  14.872  45.385  1.00  0.00     0.168 C
HETATM    6  S1  UNL     1      -0.072  14.836  46.765  1.00  0.00    -0.041 SA
HETATM    7  N2  UNL     1       0.204  14.769  44.106  1.00  0.00    -0.362 N
ATOM      8  H2  UNL     1      -0.613  14.174  43.966  1.00  0.00     0.162 HD
HETATM    9  C4  UNL     1       0.762  15.521  43.005  1.00  0.00     0.093 C
HETATM   10  C12 UNL     1       2.257  15.721  43.082  1.00  0.00     0.031 C
ENDROOT
BRANCH   9  11
HETATM   11  C5  UNL     1       0.351  14.851  41.703  1.00  0.00     0.053 C
BRANCH  11  12
HETATM   12  C6  UNL     1       1.299  15.229  40.624  1.00  0.00    -0.019 C
HETATM   13  C7  UNL     1       1.128  16.275  39.837  1.00  0.00    -0.050 C
HETATM   14  C8  UNL     1       2.031  16.736  38.721  1.00  0.00     0.037 C
HETATM   15  C11 UNL     1       0.019  17.257  39.841  1.00  0.00     0.199 C
HETATM   16  C9  UNL     1       1.042  17.086  37.647  1.00  0.00     0.007 C
HETATM   17  C10 UNL     1      -0.228  17.495  38.361  1.00  0.00     0.042 C
HETATM   18  F1  UNL     1       0.522  18.447  40.354  1.00  0.00    -0.245 F
ENDBRANCH  11  12
ENDBRANCH   9  11
BRANCH  10  19
HETATM   19  C13 UNL     1       2.588  17.052  43.644  1.00  0.00     0.013 C
BRANCH  19  20
HETATM   20  C14 UNL     1       2.885  18.187  42.770  1.00  0.00    -0.014 A
HETATM   21  C15 UNL     1       4.261  18.855  43.116  1.00  0.00     0.005 A
HETATM   22  C16 UNL     1       3.879  18.377  41.739  1.00  0.00     0.005 A
ENDBRANCH  19  20
ENDBRANCH  10  19
TORSDOF 4
ENDMDL