MODEL 4
REMARK VINA RESULT: -7.012362975      2.348      6.796
REMARK  4 active torsions:
REMARK  status: ('A' for Active; 'I' for Inactive)
REMARK    1  A    between atoms: C2_2  and  C4_4
REMARK    2  A    between atoms: C4_4  and  C5_5
REMARK    3  A    between atoms: C5_5  and  N1_7
REMARK       I    between atoms: N1_7  and  C6_9
REMARK       I    between atoms: C6_9  and  N2_11
REMARK    4  A    between atoms: N2_11  and  C7_13
ROOT
HETATM    1  N1  UNL     1       3.350  18.418  43.302  1.00  0.00    -0.329 N
ATOM      2  H1  UNL     1       2.977  18.863  44.141  1.00  0.00     0.165 HD
HETATM    3  C6  UNL     1       4.267  19.139  42.501  1.00  0.00     0.317 C
HETATM    4  O1  UNL     1       4.735  18.609  41.474  1.00  0.00    -0.247 OA
HETATM    5  N2  UNL     1       4.657  20.445  42.853  1.00  0.00    -0.339 N
ATOM      6  H2  UNL     1       4.256  20.856  43.697  1.00  0.00     0.164 HD
ENDROOT
BRANCH   1   7
HETATM    7  C5  UNL     1       2.916  17.070  42.976  1.00  0.00     0.159 C
HETATM    8 BR1  UNL     1       2.844  16.085  44.678  1.00  0.00    -0.069 Br
BRANCH   7   9
HETATM    9  C4  UNL     1       1.541  16.984  42.404  1.00  0.00     0.040 C
BRANCH   9  10
HETATM   10  C2  UNL     1       1.310  17.678  41.111  1.00  0.00    -0.020 C
HETATM   11  C1  UNL     1       2.009  16.875  40.002  1.00  0.00     0.009 C
HETATM   12  C3  UNL     1      -0.133  17.775  40.684  1.00  0.00     0.009 C
ENDBRANCH   9  10
ENDBRANCH   7   9
ENDBRANCH   1   7
BRANCH   5  13
HETATM   13  C7  UNL     1       5.597  21.240  42.083  1.00  0.00     0.086 C
HETATM   14  C8  UNL     1       6.994  21.065  42.589  1.00  0.00     0.025 C
HETATM   15  C9  UNL     1       7.615  22.332  43.076  1.00  0.00     0.002 C
HETATM   16  C10 UNL     1       7.567  23.423  42.029  1.00  0.00     0.000 C
HETATM   17  C11 UNL     1       6.153  23.516  41.466  1.00  0.00     0.002 C
HETATM   18  C12 UNL     1       5.212  22.705  42.315  1.00  0.00     0.025 C
ENDBRANCH   5  13
TORSDOF 4
ENDMDL