MODEL 3
REMARK VINA RESULT: -8.443250836      4.750      7.732
REMARK  4 active torsions:
REMARK  status: ('A' for Active; 'I' for Inactive)
REMARK       I    between atoms: C1_2  and  N1_3
REMARK       I    between atoms: C1_2  and  N2_11
REMARK    1  A    between atoms: N1_3  and  C2_5
REMARK    2  A    between atoms: C2_5  and  C3_6
REMARK    3  A    between atoms: N2_11  and  C8_13
REMARK    4  A    between atoms: C8_13  and  C9_14
ROOT
HETATM    1  O1  UNL     1      -0.040  18.348  39.260  1.00  0.00    -0.247 OA
HETATM    2  C1  UNL     1       0.979  17.747  38.850  1.00  0.00     0.316 C
HETATM    3  N1  UNL     1       1.014  17.327  37.497  1.00  0.00    -0.343 N
ATOM      4  H1  UNL     1       1.827  16.835  37.128  1.00  0.00     0.164 HD
HETATM    5  N2  UNL     1       2.069  17.485  39.688  1.00  0.00    -0.343 N
ATOM      6  H2  UNL     1       2.883  17.006  39.303  1.00  0.00     0.164 HD
ENDROOT
BRANCH   5   7
HETATM    7  C8  UNL     1       2.079  17.873  41.078  1.00  0.00     0.129 C
BRANCH   7   8
HETATM    8  C9  UNL     1       2.661  16.791  41.906  1.00  0.00     0.012 C
HETATM    9  C10 UNL     1       2.350  15.405  41.406  1.00  0.00    -0.008 C
HETATM   10  C11 UNL     1       3.000  14.433  42.384  1.00  0.00     0.010 C
HETATM   11  C17 UNL     1       0.892  15.262  41.832  1.00  0.00     0.010 C
HETATM   12  C12 UNL     1       2.140  14.472  43.641  1.00  0.00    -0.010 C
HETATM   13  C13 UNL     1       2.926  15.113  44.762  1.00  0.00     0.005 C
HETATM   14  C16 UNL     1       1.134  15.550  43.320  1.00  0.00    -0.006 C
HETATM   15  C14 UNL     1       3.033  16.542  44.340  1.00  0.00     0.006 C
HETATM   16  C15 UNL     1       1.963  16.777  43.277  1.00  0.00    -0.004 C
ENDBRANCH   7   8
ENDBRANCH   5   7
BRANCH   3  17
HETATM   17  C2  UNL     1      -0.120  17.606  36.647  1.00  0.00     0.129 C
BRANCH  17  18
HETATM   18  C3  UNL     1      -1.114  16.464  36.787  1.00  0.00     0.003 C
HETATM   19  C4  UNL     1      -2.204  16.582  35.751  1.00  0.00     0.006 C
HETATM   20  C5  UNL     1      -2.671  15.130  35.638  1.00  0.00     0.000 C
HETATM   21  C6  UNL     1      -1.359  14.389  35.598  1.00  0.00     0.000 C
HETATM   22  C7  UNL     1      -0.372  15.194  36.407  1.00  0.00     0.006 C
ENDBRANCH  17  18
ENDBRANCH   3  17
TORSDOF 4
ENDMDL