MODEL 4
REMARK VINA RESULT: -7.374236545      2.280      3.207
REMARK  4 active torsions:
REMARK  status: ('A' for Active; 'I' for Inactive)
REMARK    1  A    between atoms: C2_2  and  C4_4
REMARK    2  A    between atoms: C4_4  and  C5_5
REMARK    3  A    between atoms: C5_5  and  N1_6
REMARK       I    between atoms: N1_6  and  C6_8
REMARK       I    between atoms: C6_8  and  N2_10
REMARK    4  A    between atoms: N2_10  and  C7_12
ROOT
HETATM    1  C7  UNL     1       2.312  17.429  41.900  1.00  0.00     0.037 C
HETATM    2  C8  UNL     1       2.984  16.119  42.096  1.00  0.00     0.035 C
HETATM    3  C9  UNL     1       2.255  15.051  41.307  1.00  0.00    -0.010 C
HETATM    4  C10 UNL     1       0.828  14.997  41.808  1.00  0.00     0.009 C
HETATM    5  C11 UNL     1       0.149  16.311  41.504  1.00  0.00    -0.010 C
HETATM    6  C12 UNL     1       0.205  16.673  40.042  1.00  0.00     0.030 C
HETATM    7  C13 UNL     1       1.653  16.692  39.602  1.00  0.00     0.040 C
HETATM    8 CL1  UNL     1       1.691  17.136  37.896  1.00  0.00    -0.119 Cl
HETATM    9  C14 UNL     1       2.227  15.311  39.839  1.00  0.00     0.030 C
HETATM   10  C15 UNL     1       2.356  17.744  40.408  1.00  0.00     0.056 C
HETATM   11  C16 UNL     1       0.850  17.377  42.305  1.00  0.00     0.035 C
ENDROOT
BRANCH   1  12
HETATM   12  N2  UNL     1       3.013  18.457  42.603  1.00  0.00    -0.334 N
HETATM   13  C6  UNL     1       4.295  18.974  42.262  1.00  0.00     0.316 C
HETATM   14  N1  UNL     1       4.848  19.999  43.063  1.00  0.00    -0.343 N
HETATM   15  O1  UNL     1       4.847  18.476  41.261  1.00  0.00    -0.247 OA
ATOM     16  H1  UNL     1       4.328  20.342  43.871  1.00  0.00     0.164 HD
ATOM     17  H2  UNL     1       2.554  18.855  43.422  1.00  0.00     0.165 HD
BRANCH  14  18
HETATM   18  C5  UNL     1       6.128  20.562  42.757  1.00  0.00     0.125 C
BRANCH  18  19
HETATM   19  C4  UNL     1       5.985  21.911  42.152  1.00  0.00     0.023 C
BRANCH  19  20
HETATM   20  C2  UNL     1       6.759  22.000  40.832  1.00  0.00    -0.021 C
HETATM   21  C1  UNL     1       7.609  20.755  40.747  1.00  0.00     0.009 C
HETATM   22  C3  UNL     1       7.632  23.238  40.839  1.00  0.00     0.009 C
ENDBRANCH  19  20
ENDBRANCH  18  19
ENDBRANCH  14  18
ENDBRANCH   1  12
TORSDOF 4
ENDMDL