MODEL 1
REMARK VINA RESULT: -8.562864961      0.000      0.000
REMARK  4 active torsions:
REMARK  status: ('A' for Active; 'I' for Inactive)
REMARK    1  A    between atoms: C2_2  and  C5_5
REMARK    2  A    between atoms: C5_5  and  N1_6
REMARK       I    between atoms: N1_6  and  C6_8
REMARK       I    between atoms: C6_8  and  N2_10
REMARK    3  A    between atoms: N2_10  and  C7_12
REMARK    4  A    between atoms: C7_12  and  C8_13
ROOT
HETATM    1  N1  UNL     1       5.397  21.290  42.312  1.00  0.00    -0.322 N
ATOM      2  H1  UNL     1       4.601  21.650  41.785  1.00  0.00     0.169 HD
HETATM    3  C6  UNL     1       5.207  20.035  42.852  1.00  0.00     0.319 C
HETATM    4  O1  UNL     1       6.001  19.326  43.519  1.00  0.00    -0.247 OA
HETATM    5  N2  UNL     1       3.912  19.390  42.647  1.00  0.00    -0.342 N
ATOM      6  H2  UNL     1       3.193  19.882  42.116  1.00  0.00     0.164 HD
ENDROOT
BRANCH   5   7
HETATM    7  C7  UNL     1       3.616  18.078  43.173  1.00  0.00     0.133 C
BRANCH   7   8
HETATM    8  C8  UNL     1       2.758  17.350  42.176  1.00  0.00    -0.023 C
HETATM    9  C9  UNL     1       3.298  17.652  40.795  1.00  0.00     0.015 C
HETATM   10  C10 UNL     1       2.442  17.008  39.731  1.00  0.00    -0.013 C
HETATM   11  C11 UNL     1       1.026  17.513  39.872  1.00  0.00     0.009 C
HETATM   12  C15 UNL     1       2.443  15.522  39.914  1.00  0.00     0.009 C
HETATM   13  C12 UNL     1       0.495  17.128  41.216  1.00  0.00    -0.013 C
HETATM   14  C13 UNL     1       0.589  15.658  41.493  1.00  0.00     0.009 C
HETATM   15  C17 UNL     1       1.347  17.841  42.273  1.00  0.00     0.015 C
HETATM   16  C14 UNL     1       2.020  15.172  41.319  1.00  0.00    -0.013 C
HETATM   17  C16 UNL     1       2.853  15.845  42.362  1.00  0.00     0.015 C
ENDBRANCH   7   8
ENDBRANCH   5   7
BRANCH   1  18
HETATM   18  C5  UNL     1       6.502  22.156  42.365  1.00  0.00     0.074 C
BRANCH  18  19
HETATM   19  C2  UNL     1       6.334  23.452  41.657  1.00  0.00    -0.019 C
HETATM   20  C1  UNL     1       7.295  23.462  40.475  1.00  0.00     0.020 C
HETATM   21  C3  UNL     1       6.920  24.499  42.698  1.00  0.00     0.020 C
HETATM   22  C4  UNL     1       4.958  23.847  41.336  1.00  0.00     0.020 C
ENDBRANCH  18  19
ENDBRANCH   1  18
TORSDOF 4
ENDMDL