MODEL 2
REMARK VINA RESULT: -7.492125639      5.840      8.541
REMARK  4 active torsions:
REMARK  status: ('A' for Active; 'I' for Inactive)
REMARK    1  A    between atoms: C2_2  and  C3_4
REMARK    2  A    between atoms: C3_4  and  C4_5
REMARK    3  A    between atoms: C4_5  and  N1_6
REMARK       I    between atoms: N1_6  and  C5_8
REMARK    4  A    between atoms: C5_8  and  C6_10
ROOT
HETATM    1  C6  UNL     1       0.989  16.376  39.673  1.00  0.00     0.044 C
HETATM    2  C7  UNL     1      -0.023  17.218  40.419  1.00  0.00     0.024 C
HETATM    3  C8  UNL     1       0.327  17.172  41.877  1.00  0.00    -0.011 C
HETATM    4  C9  UNL     1       0.393  15.799  42.450  1.00  0.00     0.029 C
HETATM    5  C10 UNL     1       1.130  14.811  41.605  1.00  0.00     0.078 C
HETATM    6  C11 UNL     1       0.804  14.955  40.159  1.00  0.00     0.044 C
HETATM    7  N2  UNL     1       2.546  14.814  41.773  1.00  0.00    -0.416 N
ATOM      8  H2  UNL     1       3.116  13.984  41.608  1.00  0.00     0.153 HD
HETATM    9  C12 UNL     1       3.111  16.053  42.189  1.00  0.00     0.123 C
HETATM   10  C13 UNL     1       2.698  17.231  41.330  1.00  0.00    -0.027 C
HETATM   11  C14 UNL     1       3.914  18.170  41.304  1.00  0.00     0.017 C
HETATM   12  C15 UNL     1       1.604  17.958  42.059  1.00  0.00     0.015 C
HETATM   13  C16 UNL     1       2.391  16.877  39.924  1.00  0.00     0.030 C
ENDROOT
BRANCH   1  14
HETATM   14  C5  UNL     1       0.785  16.407  38.219  1.00  0.00     0.226 C
HETATM   15  N1  UNL     1      -0.400  16.964  37.697  1.00  0.00    -0.360 N
ATOM     16  H1  UNL     1      -1.088  17.332  38.353  1.00  0.00     0.162 HD
HETATM   17  O1  UNL     1       1.647  15.949  37.454  1.00  0.00    -0.273 OA
BRANCH  15  18
HETATM   18  C4  UNL     1      -0.692  17.042  36.294  1.00  0.00     0.128 C
BRANCH  18  19
HETATM   19  C3  UNL     1      -2.048  16.505  35.912  1.00  0.00     0.070 C
BRANCH  19  20
HETATM   20  C2  UNL     1      -1.838  15.257  35.153  1.00  0.00     0.004 C
HETATM   21  C1  UNL     1      -1.362  14.188  35.741  1.00  0.00     0.032 C
HETATM   22 CL1  UNL     1      -2.228  15.203  33.456  1.00  0.00    -0.090 Cl
ENDBRANCH  19  20
ENDBRANCH  18  19
ENDBRANCH  15  18
ENDBRANCH   1  14
TORSDOF 4
ENDMDL