MODEL 4
REMARK VINA RESULT: -6.672476056      2.747      4.558
REMARK  4 active torsions:
REMARK  status: ('A' for Active; 'I' for Inactive)
REMARK    1  A    between atoms: C2_2  and  N1_3
REMARK       I    between atoms: N1_3  and  C3_5
REMARK       I    between atoms: C3_5  and  N2_7
REMARK    2  A    between atoms: N2_7  and  C4_9
REMARK    3  A    between atoms: C13_18  and  C14_19
REMARK    4  A    between atoms: C14_19  and  C15_20
ROOT
HETATM    1  C4  UNL     1       2.494  16.929  43.231  1.00  0.00     0.039 C
HETATM    2  C5  UNL     1       2.017  16.547  44.658  1.00  0.00     0.036 C
HETATM    3  C6  UNL     1       1.454  15.168  44.747  1.00  0.00    -0.011 C
HETATM    4  C7  UNL     1       2.605  14.215  44.487  1.00  0.00     0.009 C
HETATM    5  C8  UNL     1       3.139  14.557  43.108  1.00  0.00    -0.011 C
HETATM    6  C9  UNL     1       2.040  14.257  42.142  1.00  0.00     0.014 C
HETATM    7  C10 UNL     1       0.893  15.268  42.365  1.00  0.00    -0.037 C
HETATM    8  C11 UNL     1      -0.178  14.956  41.366  1.00  0.00     0.015 C
HETATM    9  C12 UNL     1       0.349  15.080  43.742  1.00  0.00     0.014 C
HETATM   10  C13 UNL     1       1.523  16.628  42.174  1.00  0.00     0.023 C
HETATM   11  C16 UNL     1       3.669  15.956  42.998  1.00  0.00     0.036 C
ENDROOT
BRANCH   1  12
HETATM   12  N2  UNL     1       2.899  18.289  43.414  1.00  0.00    -0.333 N
HETATM   13  C3  UNL     1       3.923  18.984  42.716  1.00  0.00     0.316 C
HETATM   14  N1  UNL     1       4.190  20.369  43.038  1.00  0.00    -0.343 N
HETATM   15  O1  UNL     1       4.650  18.513  41.817  1.00  0.00    -0.247 OA
ATOM     16  H1  UNL     1       3.643  20.835  43.762  1.00  0.00     0.164 HD
ATOM     17  H2  UNL     1       2.396  18.819  44.126  1.00  0.00     0.165 HD
BRANCH  14  18
HETATM   18  C2  UNL     1       5.219  21.091  42.345  1.00  0.00     0.120 C
HETATM   19  C1  UNL     1       4.965  22.568  42.356  1.00  0.00     0.026 C
ENDBRANCH  14  18
ENDBRANCH   1  12
BRANCH  10  20
HETATM   20  C14 UNL     1       0.727  17.624  41.449  1.00  0.00     0.023 C
BRANCH  20  21
HETATM   21  C15 UNL     1       1.068  17.924  40.022  1.00  0.00     0.115 C
HETATM   22 CL1  UNL     1       2.567  17.030  39.542  1.00  0.00    -0.130 Cl
ENDBRANCH  20  21
ENDBRANCH  10  20
TORSDOF 4
ENDMDL