MODEL 1
REMARK VINA RESULT: -7.438958859      0.000      0.000
REMARK  7 active torsions:
REMARK  status: ('A' for Active; 'I' for Inactive)
REMARK    1  A    between atoms: C2_2  and  C3_3
REMARK    2  A    between atoms: C5_6  and  C6_7
REMARK    3  A    between atoms: C6_7  and  C7_8
REMARK    4  A    between atoms: C7_8  and  N1_9
REMARK    5  A    between atoms: N1_9  and  C8_11
REMARK    6  A    between atoms: C8_11  and  N2_13
REMARK    7  A    between atoms: N2_13  and  C9_15
ROOT
HETATM    1  N1  UNL     1       4.141  18.718  43.602  1.00  0.00    -0.367 N
ATOM      2  H1  UNL     1       4.737  18.550  44.412  1.00  0.00     0.161 HD
ENDROOT
BRANCH   1   3
HETATM    3  C7  UNL     1       4.444  19.866  42.790  1.00  0.00     0.122 C
BRANCH   3   4
HETATM    4  C6  UNL     1       5.918  20.039  42.615  1.00  0.00     0.026 C
BRANCH   4   5
HETATM    5  C5  UNL     1       6.314  20.862  41.422  1.00  0.00     0.012 A
HETATM    6  C3  UNL     1       7.024  22.136  41.499  1.00  0.00     0.041 A
HETATM    7 CL1  UNL     1       7.691  22.807  42.986  1.00  0.00    -0.119 Cl
HETATM    8  C4  UNL     1       7.762  20.880  41.034  1.00  0.00     0.032 A
BRANCH   6   9
HETATM    9  C2  UNL     1       6.802  23.153  40.376  1.00  0.00     0.021 C
HETATM   10  C1  UNL     1       7.452  24.463  40.798  1.00  0.00     0.007 C
ENDBRANCH   6   9
ENDBRANCH   4   5
ENDBRANCH   3   4
ENDBRANCH   1   3
BRANCH   1  11
HETATM   11  C8  UNL     1       3.100  17.814  43.373  1.00  0.00     0.167 C
HETATM   12  S1  UNL     1       2.984  16.486  44.351  1.00  0.00    -0.041 SA
BRANCH  11  13
HETATM   13  N2  UNL     1       2.175  18.002  42.321  1.00  0.00    -0.363 N
ATOM     14  H2  UNL     1       1.757  18.925  42.215  1.00  0.00     0.162 HD
BRANCH  13  15
HETATM   15  C9  UNL     1       1.782  16.969  41.381  1.00  0.00     0.083 C
HETATM   16  C10 UNL     1       0.290  17.106  41.203  1.00  0.00     0.025 C
HETATM   17  C11 UNL     1      -0.073  18.170  40.194  1.00  0.00     0.002 C
HETATM   18  C12 UNL     1       0.419  17.681  38.882  1.00  0.00     0.000 C
HETATM   19  C13 UNL     1       1.882  17.445  38.871  1.00  0.00     0.002 C
HETATM   20  C14 UNL     1       2.556  17.077  40.116  1.00  0.00     0.025 C
ENDBRANCH  13  15
ENDBRANCH  11  13
ENDBRANCH   1  11
TORSDOF 7
ENDMDL