MODEL 3
REMARK VINA RESULT: -2.913656346     12.138     13.136
REMARK  2 active torsions:
REMARK  status: ('A' for Active; 'I' for Inactive)
REMARK    1  A    between atoms: C2_2  and  C3_3
REMARK    2  A    between atoms: C5_5  and  N1_6
ROOT
HETATM    1  C3  UNL     1     -40.359 -26.126 -46.544  1.00  0.00     0.040 A
HETATM    2  C4  UNL     1     -39.402 -26.154 -45.392  1.00  0.00     0.044 A
HETATM    3  C5  UNL     1     -38.971 -25.515 -46.646  1.00  0.00     0.191 A
ENDROOT
BRANCH   3   4
HETATM    4  N1  UNL     1     -38.046 -26.222 -47.516  1.00  0.00    -0.074 N
ATOM      5  H13 UNL     1     -38.365 -26.169 -48.484  1.00  0.00     0.274 HD
ATOM      6  H12 UNL     1     -37.169 -25.707 -47.588  1.00  0.00     0.274 HD
ATOM      7  H11 UNL     1     -37.863 -27.191 -47.260  1.00  0.00     0.274 HD
ENDBRANCH   3   4
BRANCH   1   8
HETATM    8  C2  UNL     1     -41.515 -25.193 -46.425  1.00  0.00    -0.030 C
HETATM    9  C1  UNL     1     -42.544 -25.312 -47.232  1.00  0.00     0.007 C
ENDBRANCH   1   8
TORSDOF 2
ENDMDL