MODEL 3
REMARK VINA RESULT: -3.108417469      6.721      7.351
REMARK  1 active torsions:
REMARK  status: ('A' for Active; 'I' for Inactive)
REMARK    1  A    between atoms: N2_3  and  C2_5
ROOT
HETATM    1  N1  UNL     1     -31.084 -31.002 -48.287  1.00  0.00    -0.097 NA
HETATM    2  C1  UNL     1     -30.562 -29.692 -48.484  1.00  0.00     0.185 C
HETATM    3  N2  UNL     1     -29.596 -29.441 -49.265  1.00  0.00    -0.383 N
ATOM      4  H2  UNL     1     -29.168 -30.212 -49.778  1.00  0.00     0.160 HD
ENDROOT
BRANCH   3   5
HETATM    5  C2  UNL     1     -29.080 -28.124 -49.456  1.00  0.00     0.082 A
HETATM    6  C3  UNL     1     -28.695 -27.627 -50.793  1.00  0.00     0.027 A
HETATM    7  C4  UNL     1     -29.984 -27.147 -50.121  1.00  0.00     0.027 A
ENDBRANCH   3   5
TORSDOF 1
ENDMDL