MODEL 1
REMARK VINA RESULT: -3.634112300      0.000      0.000
REMARK  2 active torsions:
REMARK  status: ('A' for Active; 'I' for Inactive)
REMARK    1  A    between atoms: C2_2  and  C3_3
REMARK    2  A    between atoms: C3_3  and  C4_4
ROOT
HETATM    1  C4  UNL     1     -38.377 -25.498 -46.661  1.00  0.00     0.103 A
HETATM    2  C5  UNL     1     -37.120 -24.829 -46.250  1.00  0.00     0.145 A
HETATM    3  N1  UNL     1     -36.179 -25.175 -47.269  1.00  0.00    -0.384 N
ATOM      4  H1  UNL     1     -35.219 -24.833 -47.277  1.00  0.00     0.160 HD
HETATM    5  C6  UNL     1     -36.645 -25.941 -48.158  1.00  0.00     0.171 A
HETATM    6  N2  UNL     1     -38.002 -26.223 -47.847  1.00  0.00    -0.380 N
ATOM      7  H2  UNL     1     -38.613 -26.842 -48.380  1.00  0.00     0.160 HD
ENDROOT
BRANCH   1   8
HETATM    8  C3  UNL     1     -38.983 -26.400 -45.623  1.00  0.00     0.053 C
BRANCH   8   9
HETATM    9  C2  UNL     1     -40.445 -26.348 -45.574  1.00  0.00    -0.035 C
HETATM   10  C1  UNL     1     -41.121 -25.443 -46.264  1.00  0.00     0.007 C
ENDBRANCH   8   9
ENDBRANCH   1   8
TORSDOF 2
ENDMDL