MODEL 4
REMARK VINA RESULT: -3.281567692      1.966      2.865
REMARK  1 active torsions:
REMARK  status: ('A' for Active; 'I' for Inactive)
REMARK    1  A    between atoms: C2_2  and  C3_3
ROOT
HETATM    1  C3  UNL     1     -40.741 -25.713 -46.273  1.00  0.00     0.047 A
HETATM    2  C4  UNL     1     -40.445 -26.814 -45.496  1.00  0.00     0.118 A
HETATM    3  N1  UNL     1     -39.117 -26.979 -45.562  1.00  0.00    -0.360 N
ATOM      4  H1  UNL     1     -38.605 -27.721 -45.083  1.00  0.00     0.166 HD
HETATM    5  C5  UNL     1     -38.552 -26.051 -46.332  1.00  0.00     0.180 A
HETATM    6  N2  UNL     1     -39.569 -25.274 -46.766  1.00  0.00    -0.351 N
ATOM      7  H2  UNL     1     -39.462 -24.468 -47.381  1.00  0.00     0.166 HD
ENDROOT
BRANCH   1   8
HETATM    8  C2  UNL     1     -42.065 -25.147 -46.507  1.00  0.00     0.021 C
HETATM    9  C1  UNL     1     -42.696 -25.401 -47.642  1.00  0.00     0.013 C
ENDBRANCH   1   8
TORSDOF 1
ENDMDL