MODEL 4
REMARK VINA RESULT: -3.380188028      3.029      3.502
REMARK  1 active torsions:
REMARK  status: ('A' for Active; 'I' for Inactive)
REMARK    1  A    between atoms: C2_2  and  C3_3
ROOT
HETATM    1  C3  UNL     1     -40.820 -25.837 -46.183  1.00  0.00     0.048 A
HETATM    2  C4  UNL     1     -40.553 -26.494 -44.991  1.00  0.00     0.049 A
HETATM    3  C5  UNL     1     -39.277 -27.012 -45.022  1.00  0.00     0.109 A
HETATM    4  N1  UNL     1     -38.788 -26.665 -46.226  1.00  0.00    -0.311 N
ATOM      5  H1  UNL     1     -37.857 -26.898 -46.570  1.00  0.00     0.186 HD
HETATM    6  N2  UNL     1     -39.701 -25.975 -46.901  1.00  0.00    -0.301 N
ATOM      7  H2  UNL     1     -39.567 -25.601 -47.840  1.00  0.00     0.187 HD
ENDROOT
BRANCH   1   8
HETATM    8  C2  UNL     1     -42.073 -25.171 -46.495  1.00  0.00     0.021 C
HETATM    9  C1  UNL     1     -42.693 -25.398 -47.641  1.00  0.00     0.013 C
ENDBRANCH   1   8
TORSDOF 1
ENDMDL