MODEL 1
REMARK VINA RESULT: -3.449178659      0.000      0.000
REMARK  1 active torsions:
REMARK  status: ('A' for Active; 'I' for Inactive)
REMARK    1  A    between atoms: C2_2  and  C3_3
ROOT
HETATM    1  C3  UNL     1     -38.380 -25.734 -46.724  1.00  0.00     0.047 A
HETATM    2  C4  UNL     1     -37.297 -25.001 -46.299  1.00  0.00     0.118 A
HETATM    3  N1  UNL     1     -36.290 -25.087 -47.170  1.00  0.00    -0.360 N
ATOM      4  H1  UNL     1     -35.376 -24.640 -47.097  1.00  0.00     0.166 HD
HETATM    5  C5  UNL     1     -36.719 -25.875 -48.158  1.00  0.00     0.180 A
HETATM    6  N2  UNL     1     -37.999 -26.277 -47.895  1.00  0.00    -0.351 N
ATOM      7  H2  UNL     1     -38.567 -26.884 -48.485  1.00  0.00     0.166 HD
ENDROOT
BRANCH   1   8
HETATM    8  C2  UNL     1     -39.652 -25.871 -46.030  1.00  0.00     0.021 C
HETATM    9  C1  UNL     1     -40.781 -25.744 -46.702  1.00  0.00     0.013 C
ENDBRANCH   1   8
TORSDOF 1
ENDMDL