MODEL 1
REMARK VINA RESULT: -3.457126906      0.000      0.000
REMARK  1 active torsions:
REMARK  status: ('A' for Active; 'I' for Inactive)
REMARK    1  A    between atoms: C4_4  and  C5_5
ROOT
HETATM    1  C1  UNL     1     -32.445 -27.557 -35.909  1.00  0.00     0.017 C
HETATM    2  C2  UNL     1     -31.763 -27.260 -36.862  1.00  0.00    -0.089 C
HETATM    3  C3  UNL     1     -30.944 -26.886 -37.984  1.00  0.00     0.065 C
HETATM    4  C4  UNL     1     -29.911 -26.081 -37.890  1.00  0.00     0.025 C
ENDROOT
BRANCH   4   5
HETATM    5  C5  UNL     1     -29.145 -25.759 -39.071  1.00  0.00     0.081 C
HETATM    6  N1  UNL     1     -28.695 -26.673 -39.859  1.00  0.00    -0.408 N
ATOM      7  H12 UNL     1     -28.894 -27.646 -39.628  1.00  0.00     0.155 HD
ATOM      8  H11 UNL     1     -28.153 -26.446 -40.693  1.00  0.00     0.155 HD
ENDBRANCH   4   5
TORSDOF 1
ENDMDL