MODEL 5
REMARK VINA RESULT: -3.245250890      1.548      3.384
REMARK  1 active torsions:
REMARK  status: ('A' for Active; 'I' for Inactive)
REMARK    1  A    between atoms: C2_2  and  C3_3
ROOT
HETATM    1  C3  UNL     1     -38.834 -25.883 -46.482  1.00  0.00     0.103 A
HETATM    2  N1  UNL     1     -39.075 -26.920 -45.650  1.00  0.00    -0.351 N
ATOM      3  H1  UNL     1     -38.369 -27.565 -45.296  1.00  0.00     0.166 HD
HETATM    4  C4  UNL     1     -40.385 -26.973 -45.360  1.00  0.00     0.106 A
HETATM    5  C5  UNL     1     -40.979 -25.930 -46.038  1.00  0.00     0.106 A
HETATM    6  N2  UNL     1     -40.031 -25.268 -46.721  1.00  0.00    -0.351 N
ATOM      7  H2  UNL     1     -40.179 -24.451 -47.313  1.00  0.00     0.166 HD
ENDROOT
BRANCH   1   8
HETATM    8  C2  UNL     1     -37.576 -25.454 -47.049  1.00  0.00     0.038 C
HETATM    9  C1  UNL     1     -37.175 -25.957 -48.186  1.00  0.00     0.015 C
ENDBRANCH   1   8
TORSDOF 1
ENDMDL