MODEL 4
REMARK VINA RESULT: -3.547782620     10.538     11.229
REMARK  1 active torsions:
REMARK  status: ('A' for Active; 'I' for Inactive)
REMARK    1  A    between atoms: C2_2  and  C3_3
ROOT
HETATM    1  C3  UNL     1     -30.224 -24.942 -39.218  1.00  0.00    -0.003 A
HETATM    2  C4  UNL     1     -29.115 -25.193 -39.997  1.00  0.00     0.119 A
HETATM    3  N1  UNL     1     -28.730 -26.456 -39.736  1.00  0.00    -0.311 N
ATOM      4  H1  UNL     1     -27.930 -26.911 -40.175  1.00  0.00     0.186 HD
HETATM    5  N2  UNL     1     -29.508 -27.028 -38.850  1.00  0.00    -0.311 N
ATOM      6  H2  UNL     1     -29.425 -27.978 -38.487  1.00  0.00     0.186 HD
HETATM    7  C5  UNL     1     -30.450 -26.104 -38.510  1.00  0.00     0.119 A
ENDROOT
BRANCH   1   8
HETATM    8  C2  UNL     1     -30.990 -23.702 -39.162  1.00  0.00     0.004 C
HETATM    9  C1  UNL     1     -31.253 -23.018 -40.264  1.00  0.00     0.012 C
ENDBRANCH   1   8
TORSDOF 1
ENDMDL