MODEL 2
REMARK VINA RESULT: -3.382979104     11.534     11.924
REMARK  2 active torsions:
REMARK  status: ('A' for Active; 'I' for Inactive)
REMARK    1  A    between atoms: C2_2  and  C3_3
REMARK    2  A    between atoms: C5_5  and  C6_6
ROOT
HETATM    1  C3  UNL     1     -30.354 -26.557 -37.893  1.00  0.00     0.017 A
HETATM    2  C4  UNL     1     -30.009 -25.168 -37.391  1.00  0.00     0.019 A
HETATM    3  C5  UNL     1     -30.138 -25.504 -38.913  1.00  0.00     0.032 A
ENDROOT
BRANCH   3   4
HETATM    4  C6  UNL     1     -28.847 -25.565 -39.654  1.00  0.00     0.058 C
HETATM    5  N1  UNL     1     -28.695 -25.014 -40.788  1.00  0.00    -0.411 N
ATOM      6  H12 UNL     1     -29.491 -24.519 -41.190  1.00  0.00     0.155 HD
ATOM      7  H11 UNL     1     -27.811 -25.056 -41.295  1.00  0.00     0.155 HD
ENDBRANCH   3   4
BRANCH   1   8
HETATM    8  C2  UNL     1     -31.722 -27.009 -37.519  1.00  0.00    -0.032 C
HETATM    9  C1  UNL     1     -32.047 -27.388 -36.298  1.00  0.00     0.007 C
ENDBRANCH   1   8
TORSDOF 2
ENDMDL