MODEL 4
REMARK VINA RESULT: -7.991172057      1.728      5.052
REMARK  9 active torsions:
REMARK  status: ('A' for Active; 'I' for Inactive)
REMARK    1  A    between atoms: C2_2  and  C4_4
REMARK    2  A    between atoms: C5_6  and  O2_7
REMARK    3  A    between atoms: C6_9  and  C7_10
REMARK    4  A    between atoms: C7_10  and  C8_11
REMARK    5  A    between atoms: C12_15  and  C13_16
REMARK    6  A    between atoms: C13_16  and  C14_17
REMARK    7  A    between atoms: C15_19  and  C16_20
REMARK    8  A    between atoms: C16_20  and  O4_23
REMARK    9  A    between atoms: C23_29  and  O5_30
ROOT
HETATM    1  C7  UNL     1       6.692  29.219   3.973  1.00  0.00    -0.022 C
HETATM    2  C12 UNL     1       5.462  29.476   4.422  1.00  0.00    -0.011 C
ENDROOT
BRANCH   1   3
HETATM    3  C6  UNL     1       7.565  28.567   4.950  1.00  0.00     0.068 A
HETATM    4  C5  UNL     1       8.624  29.129   5.614  1.00  0.00     0.198 A
HETATM    5  O1  UNL     1       9.236  28.196   6.239  1.00  0.00    -0.284 OA
HETATM    6  C4  UNL     1       8.683  27.007   6.064  1.00  0.00     0.117 A
HETATM    7  C23 UNL     1       7.591  27.216   5.224  1.00  0.00     0.116 A
BRANCH   4   8
HETATM    8  O2  UNL     1       8.964  30.490   5.599  1.00  0.00    -0.340 OA
ATOM      9  H2  UNL     1       8.586  31.175   6.138  1.00  0.00     0.220 HD
ENDBRANCH   4   8
BRANCH   6  10
HETATM   10  C2  UNL     1       9.183  25.796   6.663  1.00  0.00    -0.035 C
HETATM   11  C1  UNL     1       9.601  24.744   6.037  1.00  0.00     0.021 C
HETATM   12  C3  UNL     1       9.258  25.768   8.173  1.00  0.00     0.050 C
ENDBRANCH   6  10
BRANCH   7  13
HETATM   13  O5  UNL     1       6.736  26.246   4.762  1.00  0.00    -0.357 OA
ATOM     14  H5  UNL     1       5.914  26.399   4.313  1.00  0.00     0.217 HD
ENDBRANCH   7  13
ENDBRANCH   1   3
BRANCH   1  15
HETATM   15  C8  UNL     1       7.139  29.550   2.663  1.00  0.00     0.014 C
HETATM   16  C9  UNL     1       7.491  28.902   1.604  1.00  0.00    -0.087 C
HETATM   17  C10 UNL     1       7.565  27.468   1.312  1.00  0.00     0.043 C
HETATM   18  C11 UNL     1       7.923  29.762   0.400  1.00  0.00     0.043 C
ENDBRANCH   1  15
BRANCH   2  19
HETATM   19  C13 UNL     1       4.356  30.105   3.720  1.00  0.00     0.064 C
BRANCH  19  20
HETATM   20  C14 UNL     1       3.536  31.017   4.567  1.00  0.00     0.153 C
HETATM   21  O3  UNL     1       4.148  31.246   5.783  1.00  0.00    -0.373 OA
HETATM   22  C15 UNL     1       3.508  32.127   6.611  1.00  0.00     0.156 C
HETATM   23  C19 UNL     1       2.233  32.742   6.201  1.00  0.00     0.039 C
HETATM   24  C20 UNL     1       1.976  32.903   4.723  1.00  0.00     0.038 C
HETATM   25  C21 UNL     1       3.170  32.323   4.049  1.00  0.00    -0.060 C
HETATM   26  C22 UNL     1       3.797  32.978   3.132  1.00  0.00     0.017 C
BRANCH  22  27
HETATM   27  C16 UNL     1       3.407  31.420   7.974  1.00  0.00     0.076 C
HETATM   28  C17 UNL     1       1.980  31.245   8.395  1.00  0.00     0.048 C
HETATM   29  C18 UNL     1       4.085  30.097   7.976  1.00  0.00     0.048 C
BRANCH  27  30
HETATM   30  O4  UNL     1       4.027  32.211   8.966  1.00  0.00    -0.388 OA
ATOM     31  H4  UNL     1       3.403  32.840   9.310  1.00  0.00     0.210 HD
ENDBRANCH  27  30
ENDBRANCH  22  27
ENDBRANCH  19  20
ENDBRANCH   2  19
TORSDOF 9
ENDMDL