MODEL 4
REMARK VINA RESULT: -8.110886100      2.873      6.768
REMARK  10 active torsions:
REMARK  status: ('A' for Active; 'I' for Inactive)
REMARK    1  A    between atoms: C2_2  and  C3_3
REMARK    2  A    between atoms: C2_2  and  C20_23
REMARK    3  A    between atoms: C3_3  and  C4_4
REMARK    4  A    between atoms: C4_4  and  C5_5
REMARK    5  A    between atoms: C12_12  and  C14_14
REMARK    6  A    between atoms: C15_16  and  O2_17
REMARK    7  A    between atoms: C20_23  and  C21_24
REMARK    8  A    between atoms: C21_24  and  C22_25
REMARK    9  A    between atoms: C22_25  and  N1_27
REMARK   10  A    between atoms: C22_25  and  O3_31
ROOT
HETATM    1  C5  UNL     1       5.953  28.857   6.938  1.00  0.00    -0.069 C
HETATM    2  C6  UNL     1       4.920  29.484   7.559  1.00  0.00    -0.081 C
HETATM    3  C7  UNL     1       4.513  29.129   8.943  1.00  0.00     0.043 C
HETATM    4  C8  UNL     1       4.100  30.547   6.923  1.00  0.00     0.034 C
HETATM    5  C9  UNL     1       4.156  30.253   5.400  1.00  0.00     0.010 C
HETATM    6  C10 UNL     1       5.619  30.344   5.059  1.00  0.00    -0.001 C
HETATM    7  C11 UNL     1       5.898  30.682   3.641  1.00  0.00     0.024 C
HETATM    8  C12 UNL     1       5.546  29.772   2.558  1.00  0.00     0.035 C
HETATM    9  C13 UNL     1       6.691  29.608   1.533  1.00  0.00     0.025 C
HETATM   10  C15 UNL     1       5.030  28.407   2.875  1.00  0.00     0.133 C
HETATM   11  C16 UNL     1       5.810  27.569   3.811  1.00  0.00     0.034 C
HETATM   12  C17 UNL     1       6.836  28.210   4.637  1.00  0.00     0.016 C
HETATM   13  C18 UNL     1       6.458  29.229   5.616  1.00  0.00    -0.017 C
HETATM   14  C19 UNL     1       7.829  29.917   5.966  1.00  0.00     0.020 C
ENDROOT
BRANCH   1  15
HETATM   15  C4  UNL     1       6.579  27.811   7.819  1.00  0.00     0.039 C
BRANCH  15  16
HETATM   16  C3  UNL     1       7.799  28.278   8.543  1.00  0.00     0.037 C
BRANCH  16  17
HETATM   17  C2  UNL     1       8.489  27.157   9.238  1.00  0.00    -0.089 C
HETATM   18  C1  UNL     1       8.669  27.186  10.531  1.00  0.00     0.014 C
BRANCH  17  19
HETATM   19  C20 UNL     1       8.978  25.992   8.460  1.00  0.00     0.038 C
BRANCH  19  20
HETATM   20  C21 UNL     1       9.435  26.506   7.109  1.00  0.00     0.072 C
BRANCH  20  21
HETATM   21  C22 UNL     1       9.187  25.488   6.016  1.00  0.00     0.218 C
HETATM   22  C23 UNL     1       9.723  26.069   4.728  1.00  0.00     0.078 C
BRANCH  21  23
HETATM   23  N1  UNL     1       7.764  25.265   5.820  1.00  0.00    -0.048 N
ATOM     24  H13 UNL     1       7.447  24.421   6.298  1.00  0.00     0.278 HD
ATOM     25  H12 UNL     1       7.204  25.951   6.326  1.00  0.00     0.278 HD
ATOM     26  H11 UNL     1       7.528  25.246   4.829  1.00  0.00     0.278 HD
ENDBRANCH  21  23
BRANCH  21  27
HETATM   27  O3  UNL     1       9.826  24.289   6.243  1.00  0.00    -0.365 OA
ATOM     28  H3  UNL     1      10.233  23.931   5.462  1.00  0.00     0.212 HD
ENDBRANCH  21  27
ENDBRANCH  20  21
ENDBRANCH  19  20
ENDBRANCH  17  19
ENDBRANCH  16  17
ENDBRANCH  15  16
ENDBRANCH   1  15
BRANCH   8  29
HETATM   29  C14 UNL     1       4.452  30.427   1.774  1.00  0.00     0.243 C
HETATM   30  O1  UNL     1       4.117  31.572   1.964  1.00  0.00    -0.306 OA
ENDBRANCH   8  29
BRANCH  10  31
HETATM   31  O2  UNL     1       4.989  27.754   1.608  1.00  0.00    -0.394 OA
ATOM     32  H2  UNL     1       4.642  28.417   1.021  1.00  0.00     0.210 HD
ENDBRANCH  10  31
TORSDOF 10
ENDMDL