MODEL 4
REMARK VINA RESULT: -8.276659090      2.584      3.529
REMARK  9 active torsions:
REMARK  status: ('A' for Active; 'I' for Inactive)
REMARK    1  A    between atoms: C4_4  and  O1_5
REMARK    2  A    between atoms: O1_5  and  O2_6
REMARK    3  A    between atoms: C5_8  and  O3_9
REMARK    4  A    between atoms: C9_14  and  C10_15
REMARK    5  A    between atoms: C11_16  and  C12_17
REMARK    6  A    between atoms: C13_18  and  C14_19
REMARK    7  A    between atoms: C14_19  and  C15_20
REMARK    8  A    between atoms: C16_21  and  C17_22
REMARK    9  A    between atoms: C21_26  and  O4_27
ROOT
HETATM    1  C1  UNL     1       8.674  29.141   6.855  1.00  0.00     0.043 C
HETATM    2  C2  UNL     1       8.299  29.137   5.418  1.00  0.00    -0.084 C
HETATM    3  C3  UNL     1       8.850  28.132   4.768  1.00  0.00     0.013 C
HETATM    4  C4  UNL     1       8.898  27.566   3.410  1.00  0.00     0.212 C
HETATM    5  C5  UNL     1       8.641  28.479   2.286  1.00  0.00     0.154 C
HETATM    6  C6  UNL     1       7.508  29.371   2.211  1.00  0.00     0.039 C
HETATM    7  C7  UNL     1       6.249  29.130   2.963  1.00  0.00    -0.008 C
HETATM    8  C8  UNL     1       5.904  27.628   2.868  1.00  0.00     0.011 C
HETATM    9  C9  UNL     1       6.161  29.645   4.332  1.00  0.00     0.016 C
HETATM   10  C22 UNL     1       7.399  30.220   4.956  1.00  0.00     0.042 C
ENDROOT
BRANCH   9  11
HETATM   11  C10 UNL     1       5.056  30.580   4.650  1.00  0.00    -0.021 C
HETATM   12  C11 UNL     1       4.191  30.471   5.634  1.00  0.00    -0.004 C
BRANCH  12  13
HETATM   13  C12 UNL     1       3.156  31.473   5.824  1.00  0.00    -0.004 C
HETATM   14  C13 UNL     1       3.164  32.571   5.104  1.00  0.00    -0.023 C
BRANCH  14  15
HETATM   15  C14 UNL     1       2.104  33.614   5.289  1.00  0.00     0.054 C
BRANCH  15  16
HETATM   16  C15 UNL     1       1.000  33.437   4.360  1.00  0.00    -0.020 C
HETATM   17  C16 UNL     1       1.054  33.331   3.069  1.00  0.00     0.033 C
BRANCH  17  18
HETATM   18  C17 UNL     1       2.240  33.367   2.278  1.00  0.00     0.078 A
HETATM   19  C18 UNL     1       2.842  32.210   1.754  1.00  0.00     0.049 A
HETATM   20  C19 UNL     1       3.943  32.641   1.063  1.00  0.00    -0.001 A
HETATM   21  C20 UNL     1       4.942  31.830   0.309  1.00  0.00     0.053 C
HETATM   22  C21 UNL     1       3.983  34.013   1.180  1.00  0.00     0.189 A
HETATM   23  O5  UNL     1       2.965  34.371   1.899  1.00  0.00    -0.288 OA
BRANCH  22  24
HETATM   24  O4  UNL     1       4.926  34.870   0.638  1.00  0.00    -0.340 OA
ATOM     25  H4  UNL     1       4.763  35.622   0.080  1.00  0.00     0.220 HD
ENDBRANCH  22  24
ENDBRANCH  17  18
ENDBRANCH  15  16
ENDBRANCH  14  15
ENDBRANCH  12  13
ENDBRANCH   9  11
BRANCH   5  26
HETATM   26  O3  UNL     1       9.821  29.265   2.135  1.00  0.00    -0.393 OA
ATOM     27  H3  UNL     1      10.215  28.995   1.314  1.00  0.00     0.210 HD
ENDBRANCH   5  26
BRANCH   4  28
HETATM   28  O1  UNL     1      10.249  27.144   3.253  1.00  0.00    -0.231 OA
BRANCH  28  29
HETATM   29  O2  UNL     1      11.037  27.621   4.161  1.00  0.00    -0.250 OA
ATOM     30  H2  UNL     1      10.597  28.210   4.763  1.00  0.00     0.253 HD
ENDBRANCH  28  29
ENDBRANCH   4  28
TORSDOF 9
ENDMDL