MODEL 3
REMARK VINA RESULT: -8.138726541      2.365      8.790
REMARK  8 active torsions:
REMARK  status: ('A' for Active; 'I' for Inactive)
REMARK    1  A    between atoms: C2_2  and  C3_3
REMARK    2  A    between atoms: C3_3  and  C4_4
REMARK    3  A    between atoms: C3_3  and  N1_10
REMARK    4  A    between atoms: C4_4  and  C5_5
REMARK    5  A    between atoms: N1_10  and  C10_12
REMARK    6  A    between atoms: C13_15  and  N2_16
REMARK    7  A    between atoms: C14_17  and  O1_18
REMARK    8  A    between atoms: C17_22  and  O2_23
ROOT
HETATM    1  C10 UNL     1       5.262  29.117   5.619  1.00  0.00     0.077 C
HETATM    2  C11 UNL     1       5.746  29.440   4.247  1.00  0.00     0.027 C
HETATM    3  C12 UNL     1       7.209  29.715   4.121  1.00  0.00     0.028 C
HETATM    4  C13 UNL     1       8.051  28.611   4.637  1.00  0.00     0.094 C
HETATM    5  C22 UNL     1       7.158  27.535   5.219  1.00  0.00     0.028 C
HETATM    6  C23 UNL     1       6.323  28.224   6.281  1.00  0.00     0.027 C
ENDROOT
BRANCH   4   7
HETATM    7  N2  UNL     1       8.977  28.046   3.682  1.00  0.00    -0.303 N
HETATM    8  C14 UNL     1      10.309  27.971   3.800  1.00  0.00     0.151 A
HETATM    9  C15 UNL     1      10.851  27.366   2.683  1.00  0.00     0.004 A
HETATM   10  C16 UNL     1       9.777  27.072   1.871  1.00  0.00     0.004 A
HETATM   11  C21 UNL     1      12.199  26.985   2.190  1.00  0.00     0.044 C
HETATM   12  C17 UNL     1       8.612  27.503   2.507  1.00  0.00     0.151 A
HETATM   13  C18 UNL     1      10.032  26.408   0.569  1.00  0.00     0.044 C
HETATM   14  C19 UNL     1      11.031  25.312   0.704  1.00  0.00     0.005 C
HETATM   15  C20 UNL     1      12.063  25.525   1.752  1.00  0.00     0.005 C
BRANCH   8  16
HETATM   16  O1  UNL     1      11.123  28.405   4.845  1.00  0.00    -0.345 OA
ATOM     17  H1  UNL     1      11.024  28.262   5.779  1.00  0.00     0.219 HD
ENDBRANCH   8  16
BRANCH  12  18
HETATM   18  O2  UNL     1       7.335  27.365   1.969  1.00  0.00    -0.345 OA
ATOM     19  H2  UNL     1       7.012  26.708   1.365  1.00  0.00     0.219 HD
ENDBRANCH  12  18
ENDBRANCH   4   7
BRANCH   1  20
HETATM   20  N1  UNL     1       5.040  30.216   6.471  1.00  0.00    -0.413 N
ATOM     21  H1  UNL     1       5.832  30.744   6.838  1.00  0.00     0.154 HD
BRANCH  20  22
HETATM   22  C3  UNL     1       3.733  30.585   6.816  1.00  0.00     0.077 C
BRANCH  22  23
HETATM   23  C2  UNL     1       3.576  31.558   7.940  1.00  0.00     0.020 C
HETATM   24  C1  UNL     1       3.914  30.952   9.288  1.00  0.00     0.007 C
ENDBRANCH  22  23
BRANCH  22  25
HETATM   25  C4  UNL     1       3.049  31.056   5.546  1.00  0.00     0.029 C
BRANCH  25  26
HETATM   26  C5  UNL     1       3.314  32.509   5.244  1.00  0.00    -0.013 C
HETATM   27  C6  UNL     1       3.948  32.749   3.904  1.00  0.00     0.005 C
HETATM   28  C7  UNL     1       2.780  32.540   2.954  1.00  0.00     0.000 C
HETATM   29  C8  UNL     1       1.658  33.247   3.653  1.00  0.00     0.000 C
HETATM   30  C9  UNL     1       1.997  33.248   5.114  1.00  0.00     0.005 C
ENDBRANCH  25  26
ENDBRANCH  22  25
ENDBRANCH  20  22
ENDBRANCH   1  20
TORSDOF 8
ENDMDL