MODEL 3
REMARK VINA RESULT: -5.384123258      2.413      5.993
REMARK  9 active torsions:
REMARK  status: ('A' for Active; 'I' for Inactive)
REMARK    1  A    between atoms: C2_2  and  C4_4
REMARK    2  A    between atoms: C11_12  and  O2_13
REMARK    3  A    between atoms: C12_16  and  C13_17
REMARK    4  A    between atoms: C13_17  and  O3_18
REMARK    5  A    between atoms: C14_20  and  O4_21
REMARK    6  A    between atoms: C15_23  and  C17_25
REMARK    7  A    between atoms: C17_25  and  C18_26
REMARK    8  A    between atoms: C18_26  and  C19_27
REMARK    9  A    between atoms: C19_27  and  C20_28
ROOT
HETATM    1  C4  UNL     1       6.202  28.062   3.988  1.00  0.00     0.022 C
HETATM    2  C5  UNL     1       5.521  27.226   2.983  1.00  0.00     0.011 C
HETATM    3  C6  UNL     1       5.444  28.134   1.821  1.00  0.00     0.018 C
HETATM    4  C7  UNL     1       6.716  29.052   1.854  1.00  0.00     0.028 C
HETATM    5  C8  UNL     1       6.378  30.180   0.939  1.00  0.00     0.031 A
HETATM    6  C9  UNL     1       7.237  30.664  -0.056  1.00  0.00     0.035 A
HETATM    7  C10 UNL     1       6.638  31.693  -0.757  1.00  0.00     0.164 A
HETATM    8  O1  UNL     1       5.480  31.851  -0.245  1.00  0.00    -0.299 OA
HETATM    9  C11 UNL     1       5.274  30.986   0.756  1.00  0.00     0.191 A
HETATM   10  S1  UNL     1       8.856  30.010  -0.413  1.00  0.00    -0.118 SA
HETATM   11  C12 UNL     1       8.979  28.550   0.652  1.00  0.00     0.106 C
HETATM   12  C14 UNL     1       7.646  28.184   1.100  1.00  0.00     0.148 C
HETATM   13  C15 UNL     1       6.835  29.281   3.294  1.00  0.00    -0.022 C
HETATM   14  C16 UNL     1       5.947  30.465   3.740  1.00  0.00     0.017 C
ENDROOT
BRANCH  12  15
HETATM   15  O4  UNL     1       7.678  26.834   1.432  1.00  0.00    -0.393 OA
ATOM     16  H4  UNL     1       8.279  26.564   2.116  1.00  0.00     0.210 HD
ENDBRANCH  12  15
BRANCH  13  17
HETATM   17  C17 UNL     1       8.116  29.590   3.956  1.00  0.00     0.011 C
BRANCH  17  18
HETATM   18  C18 UNL     1       8.151  30.686   4.987  1.00  0.00     0.001 C
BRANCH  18  19
HETATM   19  C19 UNL     1       9.183  30.342   6.083  1.00  0.00    -0.000 C
BRANCH  19  20
HETATM   20  C20 UNL     1      10.003  29.145   5.748  1.00  0.00    -0.005 C
HETATM   21  C21 UNL     1      10.056  28.180   6.905  1.00  0.00     0.005 C
ENDBRANCH  19  20
ENDBRANCH  18  19
ENDBRANCH  17  18
ENDBRANCH  13  17
BRANCH   9  22
HETATM   22  O2  UNL     1       4.071  31.043   1.388  1.00  0.00    -0.340 OA
ATOM     23  H2  UNL     1       3.753  31.580   2.105  1.00  0.00     0.220 HD
ENDBRANCH   9  22
BRANCH  11  24
HETATM   24  C13 UNL     1       9.455  27.423  -0.289  1.00  0.00     0.182 C
BRANCH  24  25
HETATM   25  O3  UNL     1       8.520  27.311  -1.314  1.00  0.00    -0.400 OA
ATOM     26  H3  UNL     1       8.989  27.385  -2.137  1.00  0.00     0.209 HD
ENDBRANCH  24  25
ENDBRANCH  11  24
BRANCH   1  27
HETATM   27  C2  UNL     1       6.938  27.308   4.967  1.00  0.00    -0.088 C
HETATM   28  C1  UNL     1       7.855  26.347   4.742  1.00  0.00     0.014 C
HETATM   29  C3  UNL     1       6.675  27.466   6.455  1.00  0.00     0.043 C
ENDBRANCH   1  27
TORSDOF 9
ENDMDL