MODEL 4
REMARK VINA RESULT: -7.563216812      1.031      1.570
REMARK  9 active torsions:
REMARK  status: ('A' for Active; 'I' for Inactive)
REMARK    1  A    between atoms: C2_2  and  C4_4
REMARK    2  A    between atoms: C4_4  and  C5_5
REMARK    3  A    between atoms: C5_5  and  C6_6
REMARK    4  A    between atoms: C7_7  and  O1_8
REMARK    5  A    between atoms: C8_10  and  C9_11
REMARK    6  A    between atoms: C9_11  and  O2_13
REMARK    7  A    between atoms: C9_11  and  C11_15
REMARK    8  A    between atoms: C11_15  and  C12_16
REMARK    9  A    between atoms: C12_16  and  C13_17
ROOT
HETATM    1  C6  UNL     1       5.404  28.834   4.245  1.00  0.00    -0.013 A
HETATM    2  C7  UNL     1       5.576  28.704   2.884  1.00  0.00     0.098 A
HETATM    3  C8  UNL     1       6.711  28.030   2.443  1.00  0.00     0.078 A
HETATM    4  N1  UNL     1       7.600  27.529   3.312  1.00  0.00    -0.358 N
ATOM      5  H1  UNL     1       8.419  27.042   2.947  1.00  0.00     0.165 HD
HETATM    6  C17 UNL     1       7.458  27.641   4.640  1.00  0.00     0.021 A
HETATM    7  C18 UNL     1       6.363  28.293   5.149  1.00  0.00    -0.003 A
HETATM    8  C19 UNL     1       6.128  28.466   6.599  1.00  0.00     0.210 C
HETATM    9  O3  UNL     1       7.022  27.727   7.318  1.00  0.00    -0.376 OA
HETATM   10  C20 UNL     1       8.333  27.777   6.920  1.00  0.00     0.059 C
HETATM   11  C21 UNL     1       9.165  27.034   7.946  1.00  0.00     0.046 C
HETATM   12  C22 UNL     1       8.865  29.196   6.848  1.00  0.00     0.046 C
HETATM   13  C23 UNL     1       8.471  27.075   5.580  1.00  0.00     0.095 C
ENDROOT
BRANCH   3  14
HETATM   14  C9  UNL     1       6.940  27.891   1.004  1.00  0.00     0.099 C
HETATM   15  C10 UNL     1       7.377  29.196   0.412  1.00  0.00     0.053 C
BRANCH  14  16
HETATM   16  O2  UNL     1       5.817  27.382   0.357  1.00  0.00    -0.384 OA
ATOM     17  H2  UNL     1       5.601  27.891  -0.415  1.00  0.00     0.211 HD
ENDBRANCH  14  16
BRANCH  14  18
HETATM   18  C11 UNL     1       8.039  26.848   0.712  1.00  0.00     0.045 C
BRANCH  18  19
HETATM   19  C12 UNL     1       9.206  27.616   0.148  1.00  0.00     0.011 C
BRANCH  19  20
HETATM   20  C13 UNL     1      10.522  27.234   0.738  1.00  0.00    -0.051 C
HETATM   21  C14 UNL     1      10.895  28.034   1.954  1.00  0.00     0.014 C
HETATM   22  C15 UNL     1      10.452  25.779   1.157  1.00  0.00     0.014 C
HETATM   23  C16 UNL     1      11.654  27.329  -0.280  1.00  0.00     0.014 C
ENDBRANCH  19  20
ENDBRANCH  18  19
ENDBRANCH  14  18
ENDBRANCH   3  14
BRANCH   2  24
HETATM   24  O1  UNL     1       4.651  29.224   2.021  1.00  0.00    -0.358 OA
ATOM     25  H1  UNL     1       4.882  29.952   1.457  1.00  0.00     0.217 HD
ENDBRANCH   2  24
BRANCH   1  26
HETATM   26  C5  UNL     1       4.263  29.525   4.874  1.00  0.00     0.042 C
BRANCH  26  27
HETATM   27  C4  UNL     1       4.289  30.997   4.933  1.00  0.00     0.008 C
BRANCH  27  28
HETATM   28  C2  UNL     1       3.162  31.571   5.786  1.00  0.00    -0.023 C
HETATM   29  C1  UNL     1       3.551  31.725   7.219  1.00  0.00     0.009 C
HETATM   30  C3  UNL     1       2.842  32.941   5.218  1.00  0.00     0.009 C
ENDBRANCH  27  28
ENDBRANCH  26  27
ENDBRANCH   1  26
TORSDOF 9
ENDMDL