MODEL 1
REMARK VINA RESULT: -8.883420683      0.000      0.000
REMARK  8 active torsions:
REMARK  status: ('A' for Active; 'I' for Inactive)
REMARK    1  A    between atoms: O1_2  and  C2_3
REMARK    2  A    between atoms: C3_4  and  C4_5
REMARK    3  A    between atoms: C4_5  and  C5_6
REMARK    4  A    between atoms: C5_6  and  C6_7
REMARK    5  A    between atoms: C15_17  and  O2_18
REMARK    6  A    between atoms: C16_20  and  O3_21
REMARK    7  A    between atoms: C17_23  and  C18_24
REMARK    8  A    between atoms: C18_24  and  C19_25
ROOT
HETATM    1  C2  UNL     1       4.376  30.267   6.105  1.00  0.00     0.084 A
HETATM    2  C3  UNL     1       4.815  29.502   7.135  1.00  0.00    -0.021 A
HETATM    3  C14 UNL     1       4.425  29.866   8.413  1.00  0.00     0.049 A
HETATM    4  C15 UNL     1       3.639  30.948   8.593  1.00  0.00     0.100 A
HETATM    5  C16 UNL     1       3.163  31.773   7.545  1.00  0.00     0.108 A
HETATM    6  C17 UNL     1       3.549  31.408   6.295  1.00  0.00     0.015 A
ENDROOT
BRANCH   2   7
HETATM    7  C4  UNL     1       5.718  28.332   7.050  1.00  0.00     0.042 C
BRANCH   7   8
HETATM    8  C5  UNL     1       7.130  28.690   7.358  1.00  0.00     0.015 C
BRANCH   8   9
HETATM    9  C6  UNL     1       8.032  28.569   6.143  1.00  0.00    -0.031 C
HETATM   10  C7  UNL     1       8.157  29.917   5.487  1.00  0.00     0.016 C
HETATM   11  C8  UNL     1       7.493  27.620   5.102  1.00  0.00     0.015 C
HETATM   12  C9  UNL     1       8.571  26.916   4.331  1.00  0.00    -0.004 C
HETATM   13  C10 UNL     1       9.260  25.969   5.315  1.00  0.00     0.006 C
HETATM   14  C13 UNL     1       9.612  27.897   3.771  1.00  0.00     0.079 C
HETATM   15  C11 UNL     1       9.349  26.553   6.697  1.00  0.00     0.016 C
HETATM   16  C12 UNL     1       9.380  28.086   6.631  1.00  0.00     0.055 C
HETATM   17  S1  UNL     1      10.547  28.448   5.257  1.00  0.00    -0.163 SA
ENDBRANCH   8   9
ENDBRANCH   7   8
ENDBRANCH   2   7
BRANCH   1  18
HETATM   18  O1  UNL     1       4.729  29.941   4.817  1.00  0.00    -0.355 OA
HETATM   19  C1  UNL     1       4.153  29.007   3.963  1.00  0.00     0.210 C
ENDBRANCH   1  18
BRANCH   6  20
HETATM   20  C18 UNL     1       3.205  32.090   5.045  1.00  0.00     0.072 C
BRANCH  20  21
HETATM   21  C19 UNL     1       2.303  33.211   5.051  1.00  0.00    -0.020 C
HETATM   22  C20 UNL     1       1.578  33.644   4.040  1.00  0.00    -0.091 C
HETATM   23  C21 UNL     1       0.670  34.836   4.186  1.00  0.00     0.042 C
HETATM   24  C22 UNL     1       1.611  32.989   2.716  1.00  0.00     0.042 C
ENDBRANCH  20  21
ENDBRANCH   6  20
BRANCH   4  25
HETATM   25  O2  UNL     1       3.267  31.283   9.892  1.00  0.00    -0.358 OA
ATOM     26  H2  UNL     1       3.717  32.005  10.315  1.00  0.00     0.217 HD
ENDBRANCH   4  25
BRANCH   5  27
HETATM   27  O3  UNL     1       2.386  32.814   7.932  1.00  0.00    -0.357 OA
ATOM     28  H3  UNL     1       2.844  33.527   8.361  1.00  0.00     0.217 HD
ENDBRANCH   5  27
TORSDOF 8
ENDMDL