MODEL 2
REMARK VINA RESULT: -7.784816692      1.486      2.372
REMARK  9 active torsions:
REMARK  status: ('A' for Active; 'I' for Inactive)
REMARK    1  A    between atoms: C4_4  and  C5_5
REMARK    2  A    between atoms: C5_5  and  C6_6
REMARK    3  A    between atoms: C7_7  and  O1_8
REMARK    4  A    between atoms: C8_11  and  O3_12
REMARK    5  A    between atoms: C9_14  and  C10_15
REMARK    6  A    between atoms: C10_15  and  C11_16
REMARK    7  A    between atoms: C11_16  and  C12_17
REMARK    8  A    between atoms: C18_23  and  C20_25
REMARK    9  A    between atoms: C20_25  and  O4_27
ROOT
HETATM    1  C10 UNL     1       4.264  29.494   5.015  1.00  0.00     0.045 C
ENDROOT
BRANCH   1   2
HETATM    2  C9  UNL     1       3.935  30.321   6.192  1.00  0.00     0.012 A
HETATM    3  C6  UNL     1       4.266  30.086   7.488  1.00  0.00     0.015 A
HETATM    4  C7  UNL     1       3.750  31.156   8.211  1.00  0.00     0.192 A
HETATM    5  O2  UNL     1       3.143  31.984   7.385  1.00  0.00    -0.264 OA
HETATM    6  C8  UNL     1       3.230  31.526   6.181  1.00  0.00     0.192 A
BRANCH   3   7
HETATM    7  C5  UNL     1       4.999  28.951   8.065  1.00  0.00     0.071 C
BRANCH   7   8
HETATM    8  C4  UNL     1       6.467  29.044   7.820  1.00  0.00    -0.020 C
HETATM    9  C2  UNL     1       7.243  27.996   7.655  1.00  0.00    -0.091 C
HETATM   10  C1  UNL     1       6.675  26.627   7.707  1.00  0.00     0.042 C
HETATM   11  C3  UNL     1       8.700  28.138   7.414  1.00  0.00     0.042 C
ENDBRANCH   7   8
ENDBRANCH   3   7
BRANCH   4  12
HETATM   12  O1  UNL     1       3.805  31.410   9.569  1.00  0.00    -0.340 OA
ATOM     13  H1  UNL     1       3.519  32.176  10.053  1.00  0.00     0.220 HD
ENDBRANCH   4  12
BRANCH   6  14
HETATM   14  O3  UNL     1       2.719  32.105   5.032  1.00  0.00    -0.340 OA
ATOM     15  H3  UNL     1       2.084  31.726   4.435  1.00  0.00     0.220 HD
ENDBRANCH   6  14
ENDBRANCH   1   2
BRANCH   1  16
HETATM   16  C11 UNL     1       5.274  30.139   4.138  1.00  0.00     0.022 C
BRANCH  16  17
HETATM   17  C12 UNL     1       6.243  29.175   3.504  1.00  0.00     0.018 C
HETATM   18  C13 UNL     1       6.260  27.898   4.319  1.00  0.00     0.023 C
HETATM   19  C14 UNL     1       7.624  29.779   3.595  1.00  0.00     0.017 C
HETATM   20  C15 UNL     1       8.527  29.334   2.500  1.00  0.00     0.007 C
HETATM   21  C16 UNL     1       8.018  29.473   1.123  1.00  0.00    -0.001 C
HETATM   22  C17 UNL     1       8.655  30.650   0.371  1.00  0.00     0.011 C
HETATM   23  C18 UNL     1       6.523  29.491   0.986  1.00  0.00     0.046 C
HETATM   24  C19 UNL     1       6.075  30.943   0.959  1.00  0.00     0.026 C
HETATM   25  C22 UNL     1       5.872  28.810   2.122  1.00  0.00     0.146 C
HETATM   26  O5  UNL     1       5.022  27.943   2.006  1.00  0.00    -0.296 OA
BRANCH  23  27
HETATM   27  C20 UNL     1       6.146  28.914  -0.351  1.00  0.00     0.130 C
HETATM   28  C21 UNL     1       6.729  27.587  -0.656  1.00  0.00     0.040 C
BRANCH  27  29
HETATM   29  O4  UNL     1       4.740  28.786  -0.466  1.00  0.00    -0.395 OA
ATOM     30  H4  UNL     1       4.488  28.628  -1.368  1.00  0.00     0.210 HD
ENDBRANCH  27  29
ENDBRANCH  23  27
ENDBRANCH  16  17
ENDBRANCH   1  16
TORSDOF 9
ENDMDL