MODEL 5
REMARK VINA RESULT: -8.260555097      2.140      3.648
REMARK  9 active torsions:
REMARK  status: ('A' for Active; 'I' for Inactive)
REMARK    1  A    between atoms: C4_4  and  C5_5
REMARK    2  A    between atoms: C5_5  and  C6_6
REMARK    3  A    between atoms: C6_6  and  C7_7
REMARK    4  A    between atoms: C7_7  and  C8_8
REMARK    5  A    between atoms: C8_8  and  O1_9
REMARK    6  A    between atoms: C8_8  and  O2_11
REMARK    7  A    between atoms: O2_11  and  C9_12
REMARK    8  A    between atoms: C15_18  and  O3_19
REMARK    9  A    between atoms: O3_19  and  O4_20
ROOT
HETATM    1  C9  UNL     1       4.907  30.324   6.148  1.00  0.00     0.158 C
HETATM    2  C10 UNL     1       5.895  29.344   6.559  1.00  0.00     0.009 C
HETATM    3  C11 UNL     1       6.645  28.380   6.106  1.00  0.00    -0.071 C
HETATM    4  C12 UNL     1       7.372  27.934   7.365  1.00  0.00     0.017 C
HETATM    5  C13 UNL     1       8.690  28.628   7.519  1.00  0.00     0.015 C
HETATM    6  C14 UNL     1       7.492  26.420   7.375  1.00  0.00     0.076 C
HETATM    7  C15 UNL     1       8.551  25.933   6.496  1.00  0.00     0.081 C
HETATM    8  C16 UNL     1       8.907  26.379   5.320  1.00  0.00     0.009 C
HETATM    9  C17 UNL     1       8.329  27.509   4.551  1.00  0.00     0.040 C
HETATM   10  C18 UNL     1       6.881  27.747   4.821  1.00  0.00     0.037 C
HETATM   11  C19 UNL     1       6.287  28.428   3.582  1.00  0.00     0.012 C
HETATM   12  C20 UNL     1       5.524  27.371   2.766  1.00  0.00     0.028 C
HETATM   13  C21 UNL     1       7.377  28.905   2.613  1.00  0.00     0.028 C
HETATM   14  C22 UNL     1       5.493  29.466   4.083  1.00  0.00    -0.170 C
HETATM   15  C23 UNL     1       4.696  30.488   4.617  1.00  0.00     0.116 C
ENDROOT
BRANCH   1  16
HETATM   16  O2  UNL     1       3.675  29.941   6.662  1.00  0.00    -0.352 OA
BRANCH  16  17
HETATM   17  C8  UNL     1       3.288  30.636   7.771  1.00  0.00     0.257 C
BRANCH  17  18
HETATM   18  C7  UNL     1       3.270  32.107   7.444  1.00  0.00     0.061 C
BRANCH  18  19
HETATM   19  C6  UNL     1       2.108  32.508   6.580  1.00  0.00     0.009 C
BRANCH  19  20
HETATM   20  C5  UNL     1       2.665  33.286   5.400  1.00  0.00     0.027 C
BRANCH  20  21
HETATM   21  C4  UNL     1       1.658  33.168   4.299  1.00  0.00    -0.025 C
HETATM   22  C2  UNL     1       1.994  33.124   3.029  1.00  0.00    -0.091 C
HETATM   23  C1  UNL     1       0.957  33.007   1.988  1.00  0.00     0.042 C
HETATM   24  C3  UNL     1       3.418  33.194   2.648  1.00  0.00     0.042 C
ENDBRANCH  20  21
ENDBRANCH  19  20
ENDBRANCH  18  19
ENDBRANCH  17  18
BRANCH  17  25
HETATM   25  O1  UNL     1       3.983  30.346   8.921  1.00  0.00    -0.371 OA
ATOM     26  H1  UNL     1       3.478  30.499   9.712  1.00  0.00     0.212 HD
ENDBRANCH  17  25
ENDBRANCH  16  17
ENDBRANCH   1  16
BRANCH   7  27
HETATM   27  O3  UNL     1       9.268  24.852   6.985  1.00  0.00    -0.205 OA
BRANCH  27  28
HETATM   28  O4  UNL     1       9.689  24.892   8.266  1.00  0.00    -0.245 OA
ATOM     29  H4  UNL     1       9.079  25.188   8.931  1.00  0.00     0.254 HD
ENDBRANCH  27  28
ENDBRANCH   7  27
TORSDOF 9
ENDMDL