MODEL 1
REMARK VINA RESULT: -8.459365807      0.000      0.000
REMARK  9 active torsions:
REMARK  status: ('A' for Active; 'I' for Inactive)
REMARK    1  A    between atoms: C2_2  and  C23_32
REMARK    2  A    between atoms: C3_3  and  C4_4
REMARK    3  A    between atoms: C5_5  and  C6_6
REMARK    4  A    between atoms: C7_7  and  O1_9
REMARK    5  A    between atoms: C10_12  and  C11_13
REMARK    6  A    between atoms: C11_13  and  C12_14
REMARK    7  A    between atoms: C14_19  and  C15_20
REMARK    8  A    between atoms: N2_21  and  O2_23
REMARK    9  A    between atoms: C23_32  and  O3_33
ROOT
HETATM    1  C6  UNL     1       5.906  28.753   4.511  1.00  0.00     0.054 C
HETATM    2  C7  UNL     1       6.616  28.654   3.225  1.00  0.00     0.063 C
HETATM    3  C8  UNL     1       5.836  27.664   2.345  1.00  0.00     0.046 C
HETATM    4  C9  UNL     1       8.036  28.264   3.204  1.00  0.00     0.047 C
HETATM    5  C10 UNL     1       8.486  27.356   4.334  1.00  0.00     0.024 C
HETATM    6  C13 UNL     1       7.584  27.376   5.495  1.00  0.00    -0.054 C
HETATM    7  C14 UNL     1       8.219  26.714   6.677  1.00  0.00    -0.013 C
HETATM    8  C16 UNL     1       8.370  27.169   7.878  1.00  0.00    -0.072 C
HETATM    9  C17 UNL     1       9.039  26.315   8.871  1.00  0.00     0.044 C
HETATM   10  C18 UNL     1       7.937  28.474   8.465  1.00  0.00     0.034 C
HETATM   11  C19 UNL     1       6.537  28.838   8.222  1.00  0.00     0.005 C
HETATM   12  C20 UNL     1       5.951  28.440   6.908  1.00  0.00     0.015 C
HETATM   13  C21 UNL     1       6.848  28.636   5.734  1.00  0.00    -0.010 C
HETATM   14  C22 UNL     1       7.607  29.912   5.746  1.00  0.00     0.021 C
ENDROOT
BRANCH   1  15
HETATM   15  C5  UNL     1       5.168  30.017   4.635  1.00  0.00    -0.018 C
HETATM   16  C4  UNL     1       3.938  30.027   5.102  1.00  0.00    -0.003 C
BRANCH  16  17
HETATM   17  C3  UNL     1       3.158  31.248   5.247  1.00  0.00     0.004 C
HETATM   18  C2  UNL     1       2.894  31.713   6.446  1.00  0.00    -0.061 C
HETATM   19  C1  UNL     1       3.390  30.996   7.658  1.00  0.00     0.045 C
BRANCH  18  20
HETATM   20  C23 UNL     1       2.100  32.958   6.593  1.00  0.00     0.198 C
BRANCH  20  21
HETATM   21  O3  UNL     1       2.110  33.740   5.447  1.00  0.00    -0.397 OA
ATOM     22  H3  UNL     1       2.356  33.251   4.670  1.00  0.00     0.209 HD
ENDBRANCH  20  21
ENDBRANCH  18  20
ENDBRANCH  16  17
ENDBRANCH   1  15
BRANCH   2  23
HETATM   23  O1  UNL     1       6.510  29.887   2.531  1.00  0.00    -0.390 OA
ATOM     24  H1  UNL     1       7.084  29.874   1.774  1.00  0.00     0.210 HD
ENDBRANCH   2  23
BRANCH   5  25
HETATM   25  C11 UNL     1       9.942  27.608   4.562  1.00  0.00     0.053 C
BRANCH  25  26
HETATM   26  C12 UNL     1      10.744  27.288   3.317  1.00  0.00     0.053 C
HETATM   27  N1  UNL     1      11.636  28.091   2.891  1.00  0.00    -0.411 N
ATOM     28  H12 UNL     1      11.801  28.956   3.406  1.00  0.00     0.155 HD
ATOM     29  H11 UNL     1      12.176  27.876   2.053  1.00  0.00     0.155 HD
ENDBRANCH  25  26
ENDBRANCH   5  25
BRANCH   7  30
HETATM   30  C15 UNL     1       8.649  25.388   6.356  1.00  0.00     0.125 C
HETATM   31  N2  UNL     1       9.797  24.893   6.498  1.00  0.00    -0.280 N
ATOM     32  H2  UNL     1      10.508  25.511   6.889  1.00  0.00     0.193 HD
BRANCH  31  33
HETATM   33  O2  UNL     1      10.203  23.624   6.188  1.00  0.00    -0.290 OA
ATOM     34  H2  UNL     1       9.980  23.116   5.417  1.00  0.00     0.244 HD
ENDBRANCH  31  33
ENDBRANCH   7  30
TORSDOF 9
ENDMDL