MODEL 1
REMARK VINA RESULT: -7.836736477      0.000      0.000
REMARK  5 active torsions:
REMARK  status: ('A' for Active; 'I' for Inactive)
REMARK    1  A    between atoms: C2_5  and  S1_6
REMARK    2  A    between atoms: S1_6  and  C3_7
REMARK    3  A    between atoms: C3_7  and  C4_8
REMARK    4  A    between atoms: C4_8  and  C5_9
REMARK    5  A    between atoms: C11_18  and  N3_19
ROOT
HETATM    1  S1  UNL     1       3.660  32.281   5.397  1.00  0.00    -0.109 SA
ENDROOT
BRANCH   1   2
HETATM    2  C2  UNL     1       2.931  32.884   3.863  1.00  0.00     0.106 A
HETATM    3  N2  UNL     1       3.258  32.551   2.603  1.00  0.00    -0.336 N
HETATM    4  C1  UNL     1       2.447  33.254   1.758  1.00  0.00     0.144 A
ATOM      5  H2  UNL     1       3.984  31.890   2.327  1.00  0.00     0.168 HD
HETATM    6  N1  UNL     1       2.486  33.173   0.339  1.00  0.00    -0.081 NA
HETATM    7  C12 UNL     1       1.591  34.046   2.505  1.00  0.00     0.123 A
HETATM    8  C11 UNL     1       1.910  33.801   3.816  1.00  0.00     0.163 A
HETATM    9  N4  UNL     1       0.591  34.928   2.024  1.00  0.00    -0.096 NA
BRANCH   8  10
HETATM   10  N3  UNL     1       1.293  34.400   4.939  1.00  0.00    -0.111 N
HETATM   11  O1  UNL     1       1.707  35.480   5.407  1.00  0.00    -0.532 OA
HETATM   12  O2  UNL     1       0.217  33.826   5.571  1.00  0.00    -0.532 OA
ENDBRANCH   8  10
ENDBRANCH   1   2
BRANCH   1  13
HETATM   13  C3  UNL     1       4.939  31.102   4.945  1.00  0.00     0.085 C
BRANCH  13  14
HETATM   14  C4  UNL     1       4.749  29.783   5.604  1.00  0.00     0.053 C
BRANCH  14  15
HETATM   15  C5  UNL     1       5.794  29.340   6.507  1.00  0.00    -0.014 A
HETATM   16  C6  UNL     1       6.975  28.731   6.205  1.00  0.00     0.043 A
HETATM   17 CL1  UNL     1       7.408  28.547   4.507  1.00  0.00    -0.084 Cl
HETATM   18  C7  UNL     1       7.901  28.280   7.130  1.00  0.00     0.048 A
HETATM   19  C8  UNL     1       7.628  28.455   8.477  1.00  0.00     0.037 A
HETATM   20 CL2  UNL     1       8.730  27.913   9.724  1.00  0.00    -0.084 Cl
HETATM   21  C9  UNL     1       6.446  29.070   8.819  1.00  0.00     0.048 A
HETATM   22  C10 UNL     1       5.540  29.509   7.881  1.00  0.00     0.043 A
HETATM   23 CL3  UNL     1       4.057  30.263   8.405  1.00  0.00    -0.084 Cl
ENDBRANCH  14  15
ENDBRANCH  13  14
ENDBRANCH   1  13
TORSDOF 5
ENDMDL