MODEL 3
REMARK VINA RESULT: -7.665738827      4.617      6.086
REMARK  7 active torsions:
REMARK  status: ('A' for Active; 'I' for Inactive)
REMARK    1  A    between atoms: C2_2  and  C3_3
REMARK    2  A    between atoms: C3_3  and  N1_4
REMARK    3  A    between atoms: C4_5  and  O1_6
REMARK    4  A    between atoms: C6_9  and  N2_10
REMARK    5  A    between atoms: N2_10  and  N3_12
REMARK    6  A    between atoms: C7_14  and  C8_15
REMARK    7  A    between atoms: C15_25  and  O2_26
ROOT
HETATM    1  N2  UNL     1       9.114  28.601   4.025  1.00  0.00    -0.297 N
ATOM      2  H2  UNL     1       9.667  29.256   3.472  1.00  0.00     0.187 HD
ENDROOT
BRANCH   1   3
HETATM    3  C6  UNL     1       9.231  27.212   3.735  1.00  0.00     0.103 A
HETATM    4  C5  UNL     1       9.387  26.683   2.480  1.00  0.00     0.091 A
HETATM    5  C4  UNL     1       9.455  25.316   2.651  1.00  0.00     0.146 A
HETATM    6  N1  UNL     1       9.351  24.990   3.932  1.00  0.00    -0.303 N
HETATM    7  C15 UNL     1       9.213  26.140   4.603  1.00  0.00     0.173 A
BRANCH   5   8
HETATM    8  O1  UNL     1       9.616  24.423   1.590  1.00  0.00    -0.346 OA
ATOM      9  H1  UNL     1      10.184  24.548   0.840  1.00  0.00     0.219 HD
ENDBRANCH   5   8
BRANCH   6  10
HETATM   10  C3  UNL     1       9.380  23.661   4.494  1.00  0.00     0.160 C
BRANCH  10  11
HETATM   11  C2  UNL     1       8.117  22.960   4.175  1.00  0.00    -0.017 C
HETATM   12  C1  UNL     1       7.032  23.134   4.907  1.00  0.00     0.008 C
ENDBRANCH  10  11
ENDBRANCH   6  10
BRANCH   7  13
HETATM   13  O2  UNL     1       9.070  26.269   5.974  1.00  0.00    -0.344 OA
ATOM     14  H2  UNL     1       9.687  26.688   6.562  1.00  0.00     0.219 HD
ENDBRANCH   7  13
ENDBRANCH   1   3
BRANCH   1  15
HETATM   15  N3  UNL     1       8.299  29.112   5.009  1.00  0.00    -0.310 N
HETATM   16  C7  UNL     1       7.028  29.129   4.861  1.00  0.00     0.120 C
ATOM     17  H3  UNL     1       8.713  29.480   5.866  1.00  0.00     0.186 HD
BRANCH  16  18
HETATM   18  C8  UNL     1       6.132  29.664   5.885  1.00  0.00     0.006 A
HETATM   19  C9  UNL     1       6.204  29.176   7.173  1.00  0.00     0.039 A
HETATM   20  C10 UNL     1       5.378  29.651   8.172  1.00  0.00     0.042 A
HETATM   21 CL1  UNL     1       5.419  29.077   9.813  1.00  0.00    -0.084 Cl
HETATM   22  C11 UNL     1       4.470  30.639   7.835  1.00  0.00    -0.017 A
HETATM   23  C12 UNL     1       3.560  31.180   8.884  1.00  0.00     0.052 C
HETATM   24  C13 UNL     1       4.392  31.134   6.546  1.00  0.00     0.064 A
HETATM   25 CL2  UNL     1       3.211  32.394   6.187  1.00  0.00    -0.082 Cl
HETATM   26  C14 UNL     1       5.233  30.635   5.573  1.00  0.00     0.068 A
HETATM   27 CL3  UNL     1       5.088  31.299   3.961  1.00  0.00    -0.082 Cl
ENDBRANCH  16  18
ENDBRANCH   1  15
TORSDOF 7
ENDMDL