MODEL 5
REMARK VINA RESULT: -6.997020257      2.483      5.464
REMARK  9 active torsions:
REMARK  status: ('A' for Active; 'I' for Inactive)
REMARK    1  A    between atoms: C2_2  and  C4_4
REMARK    2  A    between atoms: C4_4  and  C5_5
REMARK    3  A    between atoms: C5_5  and  C6_6
REMARK    4  A    between atoms: C7_8  and  C8_9
REMARK    5  A    between atoms: C8_9  and  O2_10
REMARK    6  A    between atoms: C9_12  and  O3_13
REMARK    7  A    between atoms: C10_15  and  O4_16
REMARK    8  A    between atoms: O4_16  and  C11_17
REMARK    9  A    between atoms: C14_21  and  O5_22
ROOT
HETATM    1  C6  UNL     1       4.553  31.085   5.160  1.00  0.00     0.112 A
HETATM    2  O1  UNL     1       4.123  32.057   4.409  1.00  0.00    -0.307 OA
HETATM    3  C7  UNL     1       4.432  31.915   3.162  1.00  0.00     0.113 A
HETATM    4  C9  UNL     1       5.131  30.744   3.055  1.00  0.00     0.134 A
HETATM    5  C10 UNL     1       5.214  30.189   4.290  1.00  0.00     0.145 A
ENDROOT
BRANCH   5   6
HETATM    6  O4  UNL     1       5.787  29.020   4.737  1.00  0.00    -0.300 OA
BRANCH   6   7
HETATM    7  C11 UNL     1       7.100  28.653   4.613  1.00  0.00     0.138 A
HETATM    8  C12 UNL     1       7.626  27.726   3.789  1.00  0.00     0.073 A
HETATM    9 CL1  UNL     1       6.581  26.817   2.715  1.00  0.00    -0.081 Cl
HETATM   10  C13 UNL     1       9.020  27.441   3.770  1.00  0.00     0.065 A
HETATM   11  C14 UNL     1       9.886  28.116   4.613  1.00  0.00     0.092 A
HETATM   12  C15 UNL     1       9.343  29.074   5.466  1.00  0.00     0.108 A
HETATM   13 CL2  UNL     1      10.431  29.911   6.538  1.00  0.00    -0.078 Cl
HETATM   14  C16 UNL     1       7.978  29.353   5.479  1.00  0.00     0.176 A
HETATM   15  F1  UNL     1       7.516  30.291   6.338  1.00  0.00    -0.201 F
BRANCH  11  16
HETATM   16  O5  UNL     1      11.256  27.887   4.672  1.00  0.00    -0.359 OA
ATOM     17  H5  UNL     1      11.895  28.536   4.942  1.00  0.00     0.217 HD
ENDBRANCH  11  16
ENDBRANCH   6   7
ENDBRANCH   5   6
BRANCH   1  18
HETATM   18  C5  UNL     1       4.403  30.991   6.580  1.00  0.00     0.040 C
BRANCH  18  19
HETATM   19  C4  UNL     1       4.472  30.042   7.586  1.00  0.00     0.005 C
BRANCH  19  20
HETATM   20  C2  UNL     1       4.903  30.014   8.819  1.00  0.00    -0.088 C
HETATM   21  C1  UNL     1       5.739  28.920   9.386  1.00  0.00     0.043 C
HETATM   22  C3  UNL     1       4.334  31.041   9.779  1.00  0.00     0.043 C
ENDBRANCH  19  20
ENDBRANCH  18  19
ENDBRANCH   1  18
BRANCH   4  23
HETATM   23  O3  UNL     1       5.687  30.229   1.860  1.00  0.00    -0.356 OA
ATOM     24  H3  UNL     1       6.342  30.662   1.327  1.00  0.00     0.218 HD
ENDBRANCH   4  23
BRANCH   3  25
HETATM   25  C8  UNL     1       4.147  32.815   2.037  1.00  0.00     0.232 C
BRANCH  25  26
HETATM   26  O2  UNL     1       3.699  32.102   0.890  1.00  0.00    -0.394 OA
ATOM     27  H2  UNL     1       4.319  32.164   0.173  1.00  0.00     0.209 HD
ENDBRANCH  25  26
ENDBRANCH   3  25
TORSDOF 9
ENDMDL