MODEL 2
REMARK VINA RESULT: -6.815997855      1.114      1.272
REMARK  9 active torsions:
REMARK  status: ('A' for Active; 'I' for Inactive)
REMARK    1  A    between atoms: C2_2  and  C3_3
REMARK    2  A    between atoms: C3_3  and  C4_4
REMARK    3  A    between atoms: N1_5  and  C5_7
REMARK    4  A    between atoms: C7_10  and  O1_11
REMARK    5  A    between atoms: C9_15  and  O2_16
REMARK    6  A    between atoms: C10_18  and  S1_19
REMARK    7  A    between atoms: S1_19  and  C11_20
REMARK    8  A    between atoms: C11_20  and  C12_22
REMARK    9  A    between atoms: C12_22  and  O4_24
ROOT
HETATM    1  C5  UNL     1       5.470  29.695   7.166  1.00  0.00     0.076 A
HETATM    2  C6  UNL     1       4.808  30.504   8.063  1.00  0.00     0.097 A
HETATM    3 CL1  UNL     1       4.961  30.210   9.800  1.00  0.00    -0.079 Cl
HETATM    4  C7  UNL     1       4.007  31.565   7.700  1.00  0.00     0.114 A
HETATM    5  C8  UNL     1       3.891  31.790   6.345  1.00  0.00     0.103 A
HETATM    6 CL2  UNL     1       2.897  33.114   5.763  1.00  0.00    -0.078 Cl
HETATM    7  C9  UNL     1       4.532  31.010   5.404  1.00  0.00     0.109 A
HETATM    8  C10 UNL     1       5.325  29.957   5.819  1.00  0.00     0.071 A
ENDROOT
BRANCH   8   9
HETATM    9  S1  UNL     1       6.147  28.922   4.663  1.00  0.00    -0.045 SA
BRANCH   9  10
HETATM   10  C11 UNL     1       7.674  29.584   4.050  1.00  0.00     0.219 C
HETATM   11  O3  UNL     1       8.337  30.248   4.862  1.00  0.00    -0.282 OA
BRANCH  10  12
HETATM   12  C12 UNL     1       8.219  29.427   2.695  1.00  0.00     0.195 C
HETATM   13  C13 UNL     1       7.361  28.609   1.764  1.00  0.00     0.048 C
BRANCH  12  14
HETATM   14  O4  UNL     1       9.475  28.770   2.730  1.00  0.00    -0.388 OA
ATOM     15  H4  UNL     1       9.655  28.341   1.903  1.00  0.00     0.210 HD
ENDBRANCH  12  14
ENDBRANCH  10  12
ENDBRANCH   9  10
ENDBRANCH   8   9
BRANCH   1  16
HETATM   16  N1  UNL     1       6.282  28.616   7.617  1.00  0.00    -0.367 N
HETATM   17  C4  UNL     1       7.488  28.880   7.985  1.00  0.00     0.061 C
ATOM     18  H1  UNL     1       5.920  27.663   7.648  1.00  0.00     0.165 HD
BRANCH  17  19
HETATM   19  C3  UNL     1       8.402  27.803   8.471  1.00  0.00     0.044 C
BRANCH  19  20
HETATM   20  C2  UNL     1       8.513  27.853   9.976  1.00  0.00     0.001 C
HETATM   21  C1  UNL     1       9.217  26.610  10.476  1.00  0.00     0.005 C
ENDBRANCH  19  20
ENDBRANCH  17  19
ENDBRANCH   1  16
BRANCH   7  22
HETATM   22  O2  UNL     1       4.384  31.276   4.029  1.00  0.00    -0.357 OA
ATOM     23  H2  UNL     1       4.240  32.163   3.720  1.00  0.00     0.217 HD
ENDBRANCH   7  22
BRANCH   4  24
HETATM   24  O1  UNL     1       3.352  32.365   8.634  1.00  0.00    -0.357 OA
ATOM     25  H1  UNL     1       3.747  33.144   9.006  1.00  0.00     0.217 HD
ENDBRANCH   4  24
TORSDOF 9
ENDMDL