MODEL 3
REMARK VINA RESULT: -7.651752468      1.564      2.205
REMARK  7 active torsions:
REMARK  status: ('A' for Active; 'I' for Inactive)
REMARK    1  A    between atoms: C2_2  and  C3_3
REMARK    2  A    between atoms: C3_3  and  C4_4
REMARK    3  A    between atoms: C4_4  and  C5_5
REMARK    4  A    between atoms: C5_5  and  C6_6
REMARK    5  A    between atoms: C6_6  and  C7_7
REMARK    6  A    between atoms: C11_14  and  O3_15
REMARK    7  A    between atoms: C14_21  and  O4_22
ROOT
HETATM    1  C7  UNL     1       5.754  29.395   7.639  1.00  0.00    -0.014 A
HETATM    2  C8  UNL     1       4.984  29.962   8.685  1.00  0.00     0.116 A
HETATM    3 CL1  UNL     1       5.200  29.350  10.308  1.00  0.00    -0.077 Cl
HETATM    4  C9  UNL     1       4.121  30.958   8.332  1.00  0.00     0.310 A
HETATM    5  O1  UNL     1       3.433  31.462   9.281  1.00  0.00    -0.258 OA
HETATM    6  O2  UNL     1       3.979  31.394   7.114  1.00  0.00    -0.270 OA
HETATM    7  C10 UNL     1       4.692  30.870   6.137  1.00  0.00     0.128 A
HETATM    8  C11 UNL     1       4.517  31.351   4.856  1.00  0.00     0.124 A
HETATM    9  C12 UNL     1       5.228  30.844   3.791  1.00  0.00     0.094 A
HETATM   10 CL2  UNL     1       4.998  31.461   2.179  1.00  0.00    -0.079 Cl
HETATM   11  C13 UNL     1       6.134  29.831   4.010  1.00  0.00     0.092 A
HETATM   12 CL3  UNL     1       7.079  29.121   2.727  1.00  0.00    -0.079 Cl
HETATM   13  C14 UNL     1       6.335  29.323   5.283  1.00  0.00     0.102 A
HETATM   14  C15 UNL     1       5.623  29.836   6.349  1.00  0.00     0.044 A
ENDROOT
BRANCH   1  15
HETATM   15  C6  UNL     1       6.680  28.327   8.021  1.00  0.00     0.041 C
BRANCH  15  16
HETATM   16  C5  UNL     1       8.009  28.867   8.519  1.00  0.00     0.005 C
BRANCH  16  17
HETATM   17  C4  UNL     1       8.951  27.837   9.020  1.00  0.00     0.000 C
BRANCH  17  18
HETATM   18  C3  UNL     1       8.474  26.970  10.131  1.00  0.00    -0.000 C
BRANCH  18  19
HETATM   19  C2  UNL     1       9.720  26.371  10.797  1.00  0.00    -0.005 C
HETATM   20  C1  UNL     1       9.308  25.163  11.576  1.00  0.00     0.005 C
ENDBRANCH  18  19
ENDBRANCH  17  18
ENDBRANCH  16  17
ENDBRANCH  15  16
ENDBRANCH   1  15
BRANCH  13  21
HETATM   21  O4  UNL     1       7.242  28.309   5.475  1.00  0.00    -0.358 OA
ATOM     22  H4  UNL     1       8.162  28.516   5.584  1.00  0.00     0.217 HD
ENDBRANCH  13  21
BRANCH   8  23
HETATM   23  O3  UNL     1       3.620  32.370   4.575  1.00  0.00    -0.356 OA
ATOM     24  H3  UNL     1       3.066  32.350   3.803  1.00  0.00     0.218 HD
ENDBRANCH   8  23
TORSDOF 7
ENDMDL