MODEL 4
REMARK VINA RESULT: -6.170796368      3.851      7.409
REMARK  7 active torsions:
REMARK  status: ('A' for Active; 'I' for Inactive)
REMARK    1  A    between atoms: C3_3  and  C4_4
REMARK    2  A    between atoms: C4_4  and  O1_5
REMARK    3  A    between atoms: C4_4  and  C5_7
REMARK    4  A    between atoms: C5_7  and  C6_8
REMARK    5  A    between atoms: C6_8  and  N1_9
REMARK    6  A    between atoms: C8_15  and  N2_16
REMARK    7  A    between atoms: N2_16  and  C9_18
ROOT
HETATM    1  C1  UNL     1       4.128  30.661   7.400  1.00  0.00     0.052 C
HETATM    2  C2  UNL     1       4.396  30.834   5.906  1.00  0.00    -0.019 A
HETATM    3  C3  UNL     1       3.882  31.868   5.211  1.00  0.00    -0.014 A
HETATM    4  C7  UNL     1       4.197  31.958   3.877  1.00  0.00     0.062 A
HETATM    5  S1  UNL     1       5.187  30.621   3.618  1.00  0.00    -0.083 SA
HETATM    6  C8  UNL     1       5.191  29.950   5.234  1.00  0.00     0.081 A
ENDROOT
BRANCH   6   7
HETATM    7  N2  UNL     1       5.865  28.749   5.594  1.00  0.00    -0.347 N
ATOM      8  H2  UNL     1       5.271  27.930   5.720  1.00  0.00     0.167 HD
BRANCH   7   9
HETATM    9  C9  UNL     1       7.259  28.540   5.801  1.00  0.00     0.086 A
HETATM   10  C10 UNL     1       7.817  28.655   7.045  1.00  0.00     0.104 A
HETATM   11 CL1  UNL     1       6.966  29.017   8.566  1.00  0.00    -0.074 Cl
HETATM   12  S2  UNL     1       9.471  28.373   6.778  1.00  0.00    -0.062 SA
HETATM   13  C11 UNL     1       9.435  28.114   5.099  1.00  0.00     0.100 A
HETATM   14 CL2  UNL     1      10.805  27.745   4.032  1.00  0.00    -0.074 Cl
HETATM   15  C12 UNL     1       8.118  28.256   4.779  1.00  0.00     0.091 A
HETATM   16 CL3  UNL     1       7.609  28.060   3.074  1.00  0.00    -0.079 Cl
ENDBRANCH   7   9
ENDBRANCH   6   7
BRANCH   3  17
HETATM   17  C4  UNL     1       3.009  32.944   5.852  1.00  0.00     0.154 C
BRANCH  17  18
HETATM   18  O1  UNL     1       3.800  33.967   6.374  1.00  0.00    -0.391 OA
ATOM     19  H1  UNL     1       3.879  33.877   7.317  1.00  0.00     0.210 HD
ENDBRANCH  17  18
BRANCH  17  20
HETATM   20  C5  UNL     1       2.046  33.518   4.873  1.00  0.00     0.064 C
BRANCH  20  21
HETATM   21  C6  UNL     1       1.193  34.570   5.480  1.00  0.00     0.232 C
BRANCH  21  22
HETATM   22  N1  UNL     1       0.997  35.662   4.539  1.00  0.00    -0.079 N
ATOM     23  H13 UNL     1       1.797  36.295   4.518  1.00  0.00     0.274 HD
ATOM     24  H12 UNL     1       1.033  35.342   3.572  1.00  0.00     0.274 HD
ATOM     25  H11 UNL     1       0.127  36.152   4.746  1.00  0.00     0.274 HD
ENDBRANCH  21  22
ENDBRANCH  20  21
ENDBRANCH  17  20
ENDBRANCH   3  17
TORSDOF 7
ENDMDL