MODEL 2
REMARK VINA RESULT: -7.724900676      0.114      1.890
REMARK  8 active torsions:
REMARK  status: ('A' for Active; 'I' for Inactive)
REMARK    1  A    between atoms: C2_2  and  C3_3
REMARK    2  A    between atoms: C3_3  and  N1_5
REMARK    3  A    between atoms: C5_6  and  O1_7
REMARK    4  A    between atoms: C7_10  and  C8_11
REMARK    5  A    between atoms: C8_11  and  O2_12
REMARK    6  A    between atoms: C8_11  and  C9_14
REMARK    7  A    between atoms: C9_14  and  C10_15
REMARK    8  A    between atoms: C16_24  and  O3_25
ROOT
HETATM    1  N1  UNL     1       3.689  32.381   4.160  1.00  0.00    -0.280 N
HETATM    2  C5  UNL     1       3.457  32.565   5.487  1.00  0.00     0.149 A
HETATM    3  C6  UNL     1       4.059  31.529   6.159  1.00  0.00     0.070 A
HETATM    4  C7  UNL     1       4.668  30.687   5.270  1.00  0.00     0.029 A
HETATM    5  C16 UNL     1       4.428  31.237   4.053  1.00  0.00     0.158 A
ENDROOT
BRANCH   4   6
HETATM    6  C8  UNL     1       5.511  29.544   5.662  1.00  0.00     0.179 C
BRANCH   6   7
HETATM    7  O2  UNL     1       5.770  28.693   4.594  1.00  0.00    -0.387 OA
ATOM      8  H2  UNL     1       5.582  27.786   4.805  1.00  0.00     0.210 HD
ENDBRANCH   6   7
BRANCH   6   9
HETATM    9  C9  UNL     1       6.753  29.860   6.362  1.00  0.00     0.024 C
BRANCH   9  10
HETATM   10  C10 UNL     1       7.454  29.048   7.297  1.00  0.00     0.006 A
HETATM   11  C11 UNL     1       8.622  28.390   7.120  1.00  0.00     0.047 A
HETATM   12 CL1  UNL     1       9.491  28.546   5.569  1.00  0.00    -0.083 Cl
HETATM   13  C12 UNL     1       9.183  27.604   8.146  1.00  0.00     0.048 A
HETATM   14  C13 UNL     1       8.597  27.464   9.346  1.00  0.00     0.037 A
HETATM   15 CL2  UNL     1       9.277  26.510  10.663  1.00  0.00    -0.084 Cl
HETATM   16  C14 UNL     1       7.400  28.118   9.575  1.00  0.00     0.048 A
HETATM   17  C15 UNL     1       6.867  28.879   8.558  1.00  0.00     0.047 A
HETATM   18 CL3  UNL     1       5.293  29.623   8.928  1.00  0.00    -0.083 Cl
ENDBRANCH   9  10
ENDBRANCH   6   9
ENDBRANCH   4   6
BRANCH   5  19
HETATM   19  O3  UNL     1       4.838  30.764   2.795  1.00  0.00    -0.345 OA
ATOM     20  H3  UNL     1       4.505  29.941   2.456  1.00  0.00     0.219 HD
ENDBRANCH   5  19
BRANCH   2  21
HETATM   21  O1  UNL     1       2.748  33.582   6.088  1.00  0.00    -0.346 OA
ATOM     22  H1  UNL     1       2.976  34.503   6.134  1.00  0.00     0.219 HD
ENDBRANCH   2  21
BRANCH   1  23
HETATM   23  C3  UNL     1       3.179  33.152   3.053  1.00  0.00    -0.006 C
HETATM   24  C4  UNL     1       1.814  32.797   2.578  1.00  0.00     0.064 C
BRANCH  23  25
HETATM   25  C2  UNL     1       4.141  33.639   2.052  1.00  0.00     0.048 C
HETATM   26  C1  UNL     1       3.789  33.534   0.604  1.00  0.00     0.011 C
ENDBRANCH  23  25
ENDBRANCH   1  23
TORSDOF 8
ENDMDL