MODEL 4
REMARK VINA RESULT: -7.196683796      3.383      5.785
REMARK  10 active torsions:
REMARK  status: ('A' for Active; 'I' for Inactive)
REMARK    1  A    between atoms: C2_2  and  C3_3
REMARK    2  A    between atoms: C3_3  and  O1_4
REMARK    3  A    between atoms: O1_4  and  C4_5
REMARK    4  A    between atoms: C6_7  and  C7_8
REMARK    5  A    between atoms: C8_9  and  C9_10
REMARK    6  A    between atoms: C9_10  and  O2_11
REMARK    7  A    between atoms: N1_13  and  O3_15
REMARK    8  A    between atoms: C11_19  and  O4_20
REMARK    9  A    between atoms: O4_20  and  C12_21
REMARK   10  A    between atoms: N2_23  and  O5_25
ROOT
HETATM    1  C4  UNL     1       5.920  29.706   3.315  1.00  0.00     0.111 A
HETATM    2  C5  UNL     1       5.480  30.287   4.477  1.00  0.00     0.053 A
HETATM    3  C6  UNL     1       5.837  29.841   5.759  1.00  0.00    -0.009 A
HETATM    4  C10 UNL     1       6.682  28.752   5.841  1.00  0.00     0.081 A
HETATM    5 CL1  UNL     1       7.196  28.110   7.381  1.00  0.00    -0.080 Cl
HETATM    6  C11 UNL     1       7.168  28.110   4.688  1.00  0.00     0.141 A
HETATM    7  C14 UNL     1       6.791  28.583   3.477  1.00  0.00     0.185 A
HETATM    8  F1  UNL     1       7.264  27.961   2.370  1.00  0.00    -0.200 F
ENDROOT
BRANCH   3   9
HETATM    9  C7  UNL     1       5.298  30.553   6.890  1.00  0.00     0.017 C
HETATM   10  C8  UNL     1       4.350  30.276   7.720  1.00  0.00     0.058 C
BRANCH  10  11
HETATM   11  C9  UNL     1       4.056  31.270   8.795  1.00  0.00     0.159 C
HETATM   12  N1  UNL     1       4.324  31.029  10.030  1.00  0.00    -0.248 N
ATOM     13  H1  UNL     1       4.113  31.725  10.745  1.00  0.00     0.196 HD
BRANCH  11  14
HETATM   14  O2  UNL     1       3.481  32.496   8.504  1.00  0.00    -0.345 OA
ATOM     15  H2  UNL     1       3.222  33.096   9.193  1.00  0.00     0.219 HD
ENDBRANCH  11  14
BRANCH  12  16
HETATM   16  O3  UNL     1       4.892  29.837  10.381  1.00  0.00    -0.288 OA
ATOM     17  H3  UNL     1       5.836  29.766  10.446  1.00  0.00     0.244 HD
ENDBRANCH  12  16
ENDBRANCH  10  11
ENDBRANCH   3   9
BRANCH   1  18
HETATM   18  O1  UNL     1       5.624  30.069   2.082  1.00  0.00    -0.348 OA
BRANCH  18  19
HETATM   19  C3  UNL     1       5.864  30.726   0.981  1.00  0.00     0.175 C
BRANCH  19  20
HETATM   20  C2  UNL     1       6.918  30.313  -0.002  1.00  0.00     0.022 C
HETATM   21  C1  UNL     1       8.309  30.527   0.458  1.00  0.00     0.007 C
ENDBRANCH  19  20
ENDBRANCH  18  19
ENDBRANCH   1  18
BRANCH   6  22
HETATM   22  O4  UNL     1       8.017  27.017   4.853  1.00  0.00    -0.291 OA
BRANCH  22  23
HETATM   23  C12 UNL     1       9.362  27.076   4.474  1.00  0.00     0.140 C
HETATM   24  C13 UNL     1       9.833  26.098   3.484  1.00  0.00     0.099 C
HETATM   25  N2  UNL     1      10.079  27.984   5.024  1.00  0.00    -0.251 N
ATOM     26  H2  UNL     1       9.675  28.627   5.705  1.00  0.00     0.196 HD
BRANCH  25  27
HETATM   27  O5  UNL     1      11.402  28.071   4.676  1.00  0.00    -0.288 OA
ATOM     28  H5  UNL     1      11.976  28.612   5.206  1.00  0.00     0.244 HD
ENDBRANCH  25  27
ENDBRANCH  22  23
ENDBRANCH   6  22
TORSDOF 10
ENDMDL