MODEL 4
REMARK VINA RESULT: -7.193785338      4.857      8.211
REMARK  8 active torsions:
REMARK  status: ('A' for Active; 'I' for Inactive)
REMARK    1  A    between atoms: C2_2  and  C3_3
REMARK    2  A    between atoms: C3_3  and  C4_4
REMARK    3  A    between atoms: C4_4  and  N1_5
REMARK    4  A    between atoms: C5_6  and  O1_7
REMARK    5  A    between atoms: C6_9  and  O2_10
REMARK    6  A    between atoms: C7_12  and  O3_13
REMARK    7  A    between atoms: C8_15  and  C9_16
REMARK    8  A    between atoms: N2_17  and  C10_19
ROOT
HETATM    1  N1  UNL     1       8.436  26.943   5.505  1.00  0.00    -0.322 N
HETATM    2  C5  UNL     1       8.869  25.837   4.874  1.00  0.00     0.180 A
HETATM    3  C6  UNL     1       8.400  25.796   3.564  1.00  0.00     0.153 A
HETATM    4  C7  UNL     1       7.652  26.935   3.414  1.00  0.00     0.132 A
HETATM    5  C8  UNL     1       7.676  27.628   4.596  1.00  0.00     0.088 A
ENDROOT
BRANCH   5   6
HETATM    6  C9  UNL     1       7.022  28.898   4.907  1.00  0.00     0.121 C
HETATM    7  N2  UNL     1       5.722  28.934   4.804  1.00  0.00    -0.364 N
ATOM      8  H2  UNL     1       5.216  28.096   4.518  1.00  0.00     0.165 HD
BRANCH   7   9
HETATM    9  C10 UNL     1       5.001  30.126   5.086  1.00  0.00     0.035 A
HETATM   10  C11 UNL     1       4.594  30.992   4.076  1.00  0.00     0.053 A
HETATM   11  C12 UNL     1       3.898  32.147   4.313  1.00  0.00     0.037 A
HETATM   12 CL1  UNL     1       3.389  33.235   3.030  1.00  0.00    -0.084 Cl
HETATM   13  C13 UNL     1       3.591  32.455   5.626  1.00  0.00     0.048 A
HETATM   14  C14 UNL     1       3.978  31.618   6.666  1.00  0.00     0.037 A
HETATM   15 CL2  UNL     1       3.576  32.035   8.308  1.00  0.00    -0.084 Cl
HETATM   16  C15 UNL     1       4.676  30.470   6.377  1.00  0.00     0.053 A
ENDBRANCH   7   9
ENDBRANCH   5   6
BRANCH   1  17
HETATM   17  C4  UNL     1       8.718  27.347   6.867  1.00  0.00     0.131 C
BRANCH  17  18
HETATM   18  C3  UNL     1       7.729  26.889   7.883  1.00  0.00     0.020 C
BRANCH  18  19
HETATM   19  C2  UNL     1       7.723  27.784   9.071  1.00  0.00    -0.003 C
HETATM   20  C1  UNL     1       6.533  28.752   9.047  1.00  0.00     0.005 C
ENDBRANCH  18  19
ENDBRANCH  17  18
ENDBRANCH   1  17
BRANCH   4  21
HETATM   21  O3  UNL     1       6.988  27.316   2.267  1.00  0.00    -0.356 OA
ATOM     22  H3  UNL     1       6.045  27.367   2.164  1.00  0.00     0.218 HD
ENDBRANCH   4  21
BRANCH   2  23
HETATM   23  O1  UNL     1       9.674  24.824   5.382  1.00  0.00    -0.344 OA
ATOM     24  H1  UNL     1       9.439  23.919   5.546  1.00  0.00     0.219 HD
ENDBRANCH   2  23
BRANCH   3  25
HETATM   25  O2  UNL     1       8.636  24.810   2.601  1.00  0.00    -0.354 OA
ATOM     26  H2  UNL     1       9.404  24.258   2.509  1.00  0.00     0.218 HD
ENDBRANCH   3  25
TORSDOF 8
ENDMDL