MODEL 4
REMARK VINA RESULT: -7.395833403      1.760      3.652
REMARK  8 active torsions:
REMARK  status: ('A' for Active; 'I' for Inactive)
REMARK    1  A    between atoms: O1_2  and  C2_3
REMARK    2  A    between atoms: C4_5  and  C5_6
REMARK    3  A    between atoms: C5_6  and  O2_7
REMARK    4  A    between atoms: O2_7  and  C6_8
REMARK    5  A    between atoms: C6_8  and  C7_9
REMARK    6  A    between atoms: C8_10  and  O3_11
REMARK    7  A    between atoms: C9_13  and  O4_14
REMARK    8  A    between atoms: C11_17  and  O5_18
ROOT
HETATM    1  C7  UNL     1       7.859  28.415   3.074  1.00  0.00     0.026 A
HETATM    2  C8  UNL     1       8.018  27.235   2.347  1.00  0.00     0.109 A
HETATM    3  C9  UNL     1       9.091  26.399   2.504  1.00  0.00     0.102 A
HETATM    4  C10 UNL     1      10.069  26.738   3.433  1.00  0.00     0.077 A
HETATM    5  C11 UNL     1       9.956  27.894   4.176  1.00  0.00     0.090 A
HETATM    6  C12 UNL     1       8.844  28.705   3.972  1.00  0.00     0.078 A
HETATM    7 CL1  UNL     1       8.692  30.174   4.910  1.00  0.00    -0.081 Cl
ENDROOT
BRANCH   1   8
HETATM    8  C6  UNL     1       6.660  29.195   2.788  1.00  0.00     0.211 C
BRANCH   8   9
HETATM    9  O2  UNL     1       5.550  28.900   3.574  1.00  0.00    -0.382 OA
BRANCH   9  10
HETATM   10  C5  UNL     1       5.072  30.100   4.030  1.00  0.00     0.208 C
BRANCH  10  11
HETATM   11  C4  UNL     1       4.938  30.256   5.471  1.00  0.00    -0.010 A
HETATM   12  C3  UNL     1       5.474  29.467   6.444  1.00  0.00     0.049 A
HETATM   13  C2  UNL     1       5.266  29.730   7.802  1.00  0.00     0.090 A
HETATM   14  C15 UNL     1       4.503  30.807   8.202  1.00  0.00     0.069 A
HETATM   15  C14 UNL     1       3.957  31.607   7.231  1.00  0.00     0.051 A
HETATM   16 CL3  UNL     1       4.217  31.170   9.884  1.00  0.00    -0.081 Cl
HETATM   17  C13 UNL     1       4.163  31.348   5.890  1.00  0.00     0.044 A
HETATM   18 CL2  UNL     1       3.429  32.424   4.708  1.00  0.00    -0.084 Cl
BRANCH  13  19
HETATM   19  O1  UNL     1       5.832  28.901   8.743  1.00  0.00    -0.354 OA
HETATM   20  C1  UNL     1       7.100  28.316   8.623  1.00  0.00     0.210 C
ENDBRANCH  13  19
ENDBRANCH  10  11
ENDBRANCH   9  10
ENDBRANCH   8   9
ENDBRANCH   1   8
BRANCH   2  21
HETATM   21  O3  UNL     1       7.051  26.876   1.412  1.00  0.00    -0.357 OA
ATOM     22  H3  UNL     1       6.629  26.029   1.484  1.00  0.00     0.217 HD
ENDBRANCH   2  21
BRANCH   3  23
HETATM   23  O4  UNL     1       9.231  25.223   1.766  1.00  0.00    -0.358 OA
ATOM     24  H4  UNL     1       8.689  24.459   1.924  1.00  0.00     0.217 HD
ENDBRANCH   3  23
BRANCH   5  25
HETATM   25  O5  UNL     1      10.903  28.278   5.114  1.00  0.00    -0.359 OA
ATOM     26  H5  UNL     1      11.838  28.209   4.958  1.00  0.00     0.217 HD
ENDBRANCH   5  25
TORSDOF 8
ENDMDL