MODEL 5
REMARK VINA RESULT: -6.778191207      0.816      1.117
REMARK  9 active torsions:
REMARK  status: ('A' for Active; 'I' for Inactive)
REMARK    1  A    between atoms: O1_1  and  C1_3
REMARK    2  A    between atoms: C3_9  and  S3_10
REMARK    3  A    between atoms: S3_10  and  C4_11
REMARK    4  A    between atoms: C4_11  and  C5_12
REMARK    5  A    between atoms: C5_12  and  C6_13
REMARK    6  A    between atoms: C6_13  and  C7_14
REMARK    7  A    between atoms: C7_14  and  N2_15
REMARK    8  A    between atoms: C12_20  and  O2_21
REMARK    9  A    between atoms: C12_20  and  C13_23
ROOT
HETATM    1  C6  UNL     1       5.331  28.999   9.501  1.00  0.00     0.031 C
ENDROOT
BRANCH   1   2
HETATM    2  C5  UNL     1       4.501  30.276   9.369  1.00  0.00     0.012 C
BRANCH   2   3
HETATM    3  C4  UNL     1       4.275  30.639   7.940  1.00  0.00     0.080 C
BRANCH   3   4
HETATM    4  S3  UNL     1       3.430  32.196   7.675  1.00  0.00    -0.118 SA
BRANCH   4   5
HETATM    5  C3  UNL     1       3.414  32.464   5.882  1.00  0.00     0.095 A
HETATM    6  C1  UNL     1       2.539  33.223   5.153  1.00  0.00     0.166 A
HETATM    7  N1  UNL     1       2.715  33.255   3.848  1.00  0.00    -0.321 N
HETATM    8  C2  UNL     1       3.717  32.558   3.326  1.00  0.00     0.146 A
ATOM      9  H1  UNL     1       2.095  33.804   3.252  1.00  0.00     0.169 HD
HETATM   10  S1  UNL     1       4.140  32.439   1.727  1.00  0.00    -0.052 SA
HETATM   11  S2  UNL     1       4.443  31.835   4.682  1.00  0.00    -0.049 SA
BRANCH   6  12
HETATM   12  O1  UNL     1       1.489  33.939   5.816  1.00  0.00    -0.345 OA
ATOM     13  H1  UNL     1       0.628  34.065   5.433  1.00  0.00     0.219 HD
ENDBRANCH   6  12
ENDBRANCH   4   5
ENDBRANCH   3   4
ENDBRANCH   2   3
ENDBRANCH   1   2
BRANCH   1  14
HETATM   14  C7  UNL     1       5.984  28.768   8.163  1.00  0.00     0.277 C
BRANCH  14  15
HETATM   15  N2  UNL     1       7.396  28.587   8.180  1.00  0.00     0.133 N
HETATM   16  C8  UNL     1       7.939  29.259   7.007  1.00  0.00     0.277 C
HETATM   17  C9  UNL     1       7.453  28.623   5.735  1.00  0.00     0.030 C
HETATM   18  C10 UNL     1       8.029  27.223   5.694  1.00  0.00     0.007 C
HETATM   19  C11 UNL     1       8.723  26.886   6.988  1.00  0.00     0.082 C
HETATM   20  C12 UNL     1       7.849  27.227   8.207  1.00  0.00     0.356 C
BRANCH  20  21
HETATM   21  O2  UNL     1       6.834  26.302   8.206  1.00  0.00    -0.356 OA
ATOM     22  H2  UNL     1       7.128  25.408   8.080  1.00  0.00     0.213 HD
ENDBRANCH  20  21
BRANCH  20  23
HETATM   23  C13 UNL     1       8.767  26.994   9.410  1.00  0.00     0.448 C
HETATM   24  F1  UNL     1       8.574  25.733   9.946  1.00  0.00    -0.166 F
HETATM   25  F2  UNL     1      10.094  27.098   9.073  1.00  0.00    -0.166 F
HETATM   26  F3  UNL     1       8.418  27.903  10.403  1.00  0.00    -0.166 F
ENDBRANCH  20  23
ENDBRANCH  14  15
ENDBRANCH   1  14
TORSDOF 9
ENDMDL