MODEL 2
REMARK VINA RESULT: -6.393623150      0.068      1.119
REMARK  8 active torsions:
REMARK  status: ('A' for Active; 'I' for Inactive)
REMARK    1  A    between atoms: C2_2  and  C4_4
REMARK    2  A    between atoms: C4_4  and  N1_5
REMARK    3  A    between atoms: N1_5  and  C5_7
REMARK    4  A    between atoms: C5_7  and  C6_8
REMARK    5  A    between atoms: C6_8  and  N2_9
REMARK    6  A    between atoms: N2_9  and  C7_11
REMARK    7  A    between atoms: C8_12  and  O1_13
REMARK    8  A    between atoms: C10_19  and  C11_20
ROOT
HETATM    1  C7  UNL     1       5.470  30.327   2.500  1.00  0.00     0.089 A
HETATM    2  C8  UNL     1       5.444  30.263   1.127  1.00  0.00     0.137 A
HETATM    3  S1  UNL     1       6.889  29.385   0.772  1.00  0.00    -0.044 SA
HETATM    4  C9  UNL     1       7.457  29.139   2.365  1.00  0.00     0.097 A
HETATM    5  N3  UNL     1       8.480  28.547   2.948  1.00  0.00    -0.343 N
ATOM      6  H3  UNL     1       9.193  28.090   2.381  1.00  0.00     0.167 HD
HETATM    7  C10 UNL     1       8.581  28.544   4.242  1.00  0.00     0.107 A
HETATM    8  S2  UNL     1       7.160  29.424   4.685  1.00  0.00    -0.067 SA
HETATM    9  C12 UNL     1       6.525  29.735   3.106  1.00  0.00     0.070 A
ENDROOT
BRANCH   1  10
HETATM   10  N2  UNL     1       4.388  30.951   3.189  1.00  0.00    -0.385 N
ATOM     11  H2  UNL     1       3.466  30.525   3.096  1.00  0.00     0.159 HD
BRANCH  10  12
HETATM   12  C6  UNL     1       4.489  32.139   4.010  1.00  0.00     0.139 C
BRANCH  12  13
HETATM   13  C5  UNL     1       3.392  32.091   5.080  1.00  0.00     0.138 C
BRANCH  13  14
HETATM   14  N1  UNL     1       3.878  31.761   6.340  1.00  0.00    -0.400 N
ATOM     15  H1  UNL     1       3.955  32.495   7.044  1.00  0.00     0.158 HD
BRANCH  14  16
HETATM   16  C4  UNL     1       4.265  30.462   6.679  1.00  0.00     0.059 C
BRANCH  16  17
HETATM   17  C2  UNL     1       4.186  30.103   8.153  1.00  0.00     0.015 C
HETATM   18  C1  UNL     1       3.851  31.316   9.000  1.00  0.00     0.015 C
HETATM   19  C3  UNL     1       5.381  29.349   8.602  1.00  0.00     0.015 C
ENDBRANCH  16  17
ENDBRANCH  14  16
ENDBRANCH  13  14
ENDBRANCH  12  13
ENDBRANCH  10  12
ENDBRANCH   1  10
BRANCH   2  20
HETATM   20  O1  UNL     1       4.535  30.751   0.196  1.00  0.00    -0.352 OA
ATOM     21  H1  UNL     1       3.981  30.309  -0.436  1.00  0.00     0.218 HD
ENDBRANCH   2  20
BRANCH   7  22
HETATM   22  C11 UNL     1       9.630  27.949   5.152  1.00  0.00     0.237 C
HETATM   23 CL1  UNL     1      10.386  29.301   6.038  1.00  0.00    -0.076 Cl
HETATM   24 CL2  UNL     1      10.805  27.138   4.093  1.00  0.00    -0.076 Cl
HETATM   25 CL3  UNL     1       8.811  26.813   6.219  1.00  0.00    -0.076 Cl
ENDBRANCH   7  22
TORSDOF 8
ENDMDL