MODEL 3
REMARK VINA RESULT: -6.943739562      2.873      4.713
REMARK  8 active torsions:
REMARK  status: ('A' for Active; 'I' for Inactive)
REMARK    1  A    between atoms: O1_2  and  C2_3
REMARK    2  A    between atoms: C3_4  and  O2_5
REMARK    3  A    between atoms: C3_4  and  C10_18
REMARK    4  A    between atoms: O2_5  and  C4_6
REMARK    5  A    between atoms: C4_6  and  O3_7
REMARK    6  A    between atoms: C4_6  and  C6_9
REMARK    7  A    between atoms: C11_20  and  O4_21
REMARK    8  A    between atoms: C14_25  and  O5_26
ROOT
HETATM    1  C2  UNL     1       4.322  30.054   7.822  1.00  0.00     0.172 C
HETATM    2  C3  UNL     1       4.819  30.515   6.707  1.00  0.00     0.114 C
ENDROOT
BRANCH   2   3
HETATM    3  O2  UNL     1       6.142  30.175   6.408  1.00  0.00    -0.312 OA
BRANCH   3   4
HETATM    4  C4  UNL     1       6.513  28.893   5.953  1.00  0.00     0.306 C
BRANCH   4   5
HETATM    5  O3  UNL     1       6.808  28.896   4.607  1.00  0.00    -0.361 OA
HETATM    6  C5  UNL     1       6.044  27.974   3.897  1.00  0.00     0.205 C
ENDBRANCH   4   5
BRANCH   4   7
HETATM    7  C6  UNL     1       7.739  28.505   6.702  1.00  0.00     0.077 A
HETATM    8  C7  UNL     1       8.975  29.116   6.679  1.00  0.00     0.119 A
HETATM    9 CL1  UNL     1       9.354  30.532   5.714  1.00  0.00    -0.064 Cl
HETATM   10  N1  UNL     1       9.803  28.459   7.492  1.00  0.00    -0.334 N
HETATM   11  C8  UNL     1       9.167  27.436   8.055  1.00  0.00     0.144 A
ATOM     12  H1  UNL     1      10.779  28.706   7.658  1.00  0.00     0.168 HD
HETATM   13 CL2  UNL     1       9.835  26.303   9.182  1.00  0.00    -0.061 Cl
HETATM   14  C9  UNL     1       7.876  27.446   7.577  1.00  0.00     0.169 A
HETATM   15  F1  UNL     1       6.900  26.573   7.899  1.00  0.00    -0.202 F
ENDBRANCH   4   7
ENDBRANCH   3   4
ENDBRANCH   2   3
BRANCH   2  16
HETATM   16  C10 UNL     1       4.058  31.355   5.779  1.00  0.00     0.076 A
HETATM   17  S1  UNL     1       4.124  31.228   4.045  1.00  0.00    -0.059 SA
HETATM   18  C11 UNL     1       3.030  32.461   3.641  1.00  0.00     0.116 A
HETATM   19  C12 UNL     1       2.640  32.941   4.855  1.00  0.00     0.013 A
HETATM   20  C13 UNL     1       1.638  34.086   4.936  1.00  0.00     0.055 C
HETATM   21  C14 UNL     1       3.170  32.370   5.958  1.00  0.00     0.095 A
BRANCH  18  22
HETATM   22  O4  UNL     1       2.605  32.908   2.362  1.00  0.00    -0.353 OA
ATOM     23  H4  UNL     1       2.096  33.675   2.128  1.00  0.00     0.218 HD
ENDBRANCH  18  22
BRANCH  21  24
HETATM   24  O5  UNL     1       2.845  32.780   7.296  1.00  0.00    -0.359 OA
ATOM     25  H5  UNL     1       3.211  33.591   7.630  1.00  0.00     0.217 HD
ENDBRANCH  21  24
ENDBRANCH   2  16
BRANCH   1  26
HETATM   26  O1  UNL     1       5.104  29.248   8.678  1.00  0.00    -0.365 OA
HETATM   27  C1  UNL     1       4.920  29.311  10.085  1.00  0.00     0.209 C
ENDBRANCH   1  26
TORSDOF 8
ENDMDL