MODEL 4
REMARK VINA RESULT: -6.867960549      6.509     10.168
REMARK  9 active torsions:
REMARK  status: ('A' for Active; 'I' for Inactive)
REMARK    1  A    between atoms: C2_2  and  O1_3
REMARK    2  A    between atoms: O1_3  and  C3_4
REMARK       I    between atoms: C3_4  and  N1_6
REMARK    3  A    between atoms: N1_6  and  C4_8
REMARK    4  A    between atoms: C5_9  and  O3_10
REMARK    5  A    between atoms: C6_13  and  C7_14
REMARK    6  A    between atoms: C8_15  and  C9_16
REMARK    7  A    between atoms: C10_17  and  N2_19
REMARK    8  A    between atoms: C12_21  and  C14_23
REMARK    9  A    between atoms: C15_26  and  O5_27
ROOT
HETATM    1  C4  UNL     1      11.744  27.314   1.885  1.00  0.00     0.132 A
HETATM    2  C5  UNL     1      10.997  27.698   0.824  1.00  0.00     0.214 A
HETATM    3  O4  UNL     1       9.857  28.124   1.242  1.00  0.00    -0.283 OA
HETATM    4  C6  UNL     1       9.739  28.064   2.574  1.00  0.00     0.114 A
HETATM    5  C15 UNL     1      10.921  27.552   3.030  1.00  0.00     0.131 A
ENDROOT
BRANCH   4   6
HETATM    6  C7  UNL     1       8.560  28.478   3.306  1.00  0.00     0.040 C
HETATM    7  C8  UNL     1       8.017  27.968   4.359  1.00  0.00     0.005 C
BRANCH   7   8
HETATM    8  C9  UNL     1       6.801  28.585   4.921  1.00  0.00     0.024 C
HETATM    9  C10 UNL     1       6.930  29.445   5.901  1.00  0.00     0.005 C
HETATM   10  C11 UNL     1       8.273  29.781   6.424  1.00  0.00     0.068 C
BRANCH   9  11
HETATM   11  N2  UNL     1       5.776  30.060   6.468  1.00  0.00    -0.365 N
HETATM   12  C12 UNL     1       5.313  29.712   7.603  1.00  0.00     0.016 C
HETATM   13  C13 UNL     1       5.987  28.633   8.370  1.00  0.00     0.066 C
ATOM     14  H2  UNL     1       5.306  30.802   5.949  1.00  0.00     0.165 HD
BRANCH  12  15
HETATM   15  C14 UNL     1       4.118  30.369   8.161  1.00  0.00     0.223 C
HETATM   16 CL1  UNL     1       4.362  30.827   9.871  1.00  0.00    -0.102 Cl
HETATM   17 CL2  UNL     1       3.751  31.892   7.282  1.00  0.00    -0.102 Cl
ENDBRANCH  12  15
ENDBRANCH   9  11
ENDBRANCH   7   8
ENDBRANCH   4   6
BRANCH   5  18
HETATM   18  O5  UNL     1      11.358  27.276   4.281  1.00  0.00    -0.356 OA
ATOM     19  H5  UNL     1      11.410  26.383   4.602  1.00  0.00     0.218 HD
ENDBRANCH   5  18
BRANCH   2  20
HETATM   20  O3  UNL     1      11.472  27.614  -0.493  1.00  0.00    -0.339 OA
ATOM     21  H3  UNL     1      11.897  28.346  -0.926  1.00  0.00     0.220 HD
ENDBRANCH   2  20
BRANCH   1  22
HETATM   22  N1  UNL     1      13.052  26.783   1.954  1.00  0.00    -0.296 N
HETATM   23  C3  UNL     1      13.240  25.388   1.975  1.00  0.00     0.365 C
HETATM   24  O2  UNL     1      12.272  24.575   1.935  1.00  0.00    -0.238 OA
ATOM     25  H1  UNL     1      13.857  27.408   1.989  1.00  0.00     0.171 HD
BRANCH  23  26
HETATM   26  O1  UNL     1      14.522  24.844   2.044  1.00  0.00    -0.304 OA
BRANCH  26  27
HETATM   27  C2  UNL     1      15.412  25.269   3.057  1.00  0.00     0.176 C
HETATM   28  C1  UNL     1      14.882  24.871   4.431  1.00  0.00     0.034 C
ENDBRANCH  26  27
ENDBRANCH  23  26
ENDBRANCH   1  22
TORSDOF 9
ENDMDL