MODEL 2
REMARK VINA RESULT: -7.784891065      1.721      2.317
REMARK  9 active torsions:
REMARK  status: ('A' for Active; 'I' for Inactive)
REMARK    1  A    between atoms: C3_4  and  N2_5
REMARK    2  A    between atoms: N2_5  and  C4_7
REMARK    3  A    between atoms: C4_7  and  C5_8
REMARK    4  A    between atoms: C4_7  and  C17_22
REMARK    5  A    between atoms: C5_8  and  C6_9
REMARK    6  A    between atoms: C6_9  and  C7_10
REMARK    7  A    between atoms: C17_22  and  O1_23
REMARK    8  A    between atoms: C17_22  and  N3_25
REMARK    9  A    between atoms: N3_25  and  O2_27
ROOT
HETATM    1  C4  UNL     1       3.714  32.319   4.829  1.00  0.00     0.158 C
ENDROOT
BRANCH   1   2
HETATM    2  N2  UNL     1       2.894  32.376   3.650  1.00  0.00    -0.376 N
ATOM      3  H2  UNL     1       1.919  32.087   3.722  1.00  0.00     0.160 HD
BRANCH   2   4
HETATM    4  C3  UNL     1       3.377  32.812   2.394  1.00  0.00     0.063 A
HETATM    5  C2  UNL     1       4.505  32.490   1.689  1.00  0.00     0.140 A
HETATM    6  N1  UNL     1       4.535  33.179   0.524  1.00  0.00    -0.306 N
HETATM    7  C1  UNL     1       5.579  33.097  -0.482  1.00  0.00     0.177 C
HETATM    8  N4  UNL     1       3.457  33.930   0.475  1.00  0.00    -0.308 N
HETATM    9  C18 UNL     1       2.727  33.743   1.580  1.00  0.00     0.138 A
ATOM     10  H4  UNL     1       3.214  34.560  -0.291  1.00  0.00     0.186 HD
ENDBRANCH   2   4
ENDBRANCH   1   2
BRANCH   1  11
HETATM   11  C5  UNL     1       4.169  30.866   5.084  1.00  0.00     0.034 C
BRANCH  11  12
HETATM   12  C6  UNL     1       5.587  30.769   4.685  1.00  0.00     0.013 C
BRANCH  12  13
HETATM   13  C7  UNL     1       6.435  29.800   5.490  1.00  0.00     0.058 C
HETATM   14  C8  UNL     1       5.483  29.086   6.424  1.00  0.00     0.010 C
HETATM   15  C9  UNL     1       5.665  29.541   7.875  1.00  0.00     0.001 C
HETATM   16  C10 UNL     1       5.983  28.344   8.694  1.00  0.00     0.000 C
HETATM   17  C11 UNL     1       7.370  28.106   9.101  1.00  0.00     0.000 C
HETATM   18  C12 UNL     1       8.491  28.807   8.464  1.00  0.00     0.000 C
HETATM   19  C13 UNL     1       8.968  28.421   7.118  1.00  0.00     0.000 C
HETATM   20  C14 UNL     1       8.286  27.343   6.393  1.00  0.00     0.006 C
HETATM   21  C15 UNL     1       7.636  27.584   5.120  1.00  0.00     0.079 C
HETATM   22  C16 UNL     1       7.255  28.929   4.637  1.00  0.00     0.247 C
HETATM   23  F1  UNL     1       8.342  29.610   4.121  1.00  0.00    -0.206 F
HETATM   24  F2  UNL     1       6.473  28.672   3.486  1.00  0.00    -0.206 F
ENDBRANCH  12  13
ENDBRANCH  11  12
ENDBRANCH   1  11
BRANCH   1  25
HETATM   25  C17 UNL     1       3.049  32.826   6.052  1.00  0.00     0.158 C
BRANCH  25  26
HETATM   26  O1  UNL     1       3.610  32.669   7.304  1.00  0.00    -0.347 OA
ATOM     27  H1  UNL     1       3.182  32.991   8.088  1.00  0.00     0.219 HD
ENDBRANCH  25  26
BRANCH  25  28
HETATM   28  N3  UNL     1       1.923  33.427   5.949  1.00  0.00    -0.249 N
ATOM     29  H3  UNL     1       1.074  32.927   6.214  1.00  0.00     0.196 HD
BRANCH  28  30
HETATM   30  O2  UNL     1       1.816  34.701   5.502  1.00  0.00    -0.288 OA
ATOM     31  H2  UNL     1       1.900  34.928   4.583  1.00  0.00     0.244 HD
ENDBRANCH  28  30
ENDBRANCH  25  28
ENDBRANCH   1  25
TORSDOF 9
ENDMDL