MODEL 2
REMARK VINA RESULT: -7.473690486      1.221      1.539
REMARK  10 active torsions:
REMARK  status: ('A' for Active; 'I' for Inactive)
REMARK    1  A    between atoms: O1_1  and  C1_3
REMARK    2  A    between atoms: C6_10  and  C7_11
REMARK    3  A    between atoms: C7_11  and  N1_12
REMARK    4  A    between atoms: N1_12  and  N2_14
REMARK    5  A    between atoms: N2_14  and  C8_16
REMARK    6  A    between atoms: C10_19  and  O3_20
REMARK    7  A    between atoms: N3_22  and  C11_23
REMARK    8  A    between atoms: C11_23  and  C12_24
REMARK    9  A    between atoms: C12_24  and  C13_25
REMARK   10  A    between atoms: C13_25  and  C14_26
ROOT
HETATM    1  N2  UNL     1       7.650  29.032   8.863  1.00  0.00    -0.265 N
ATOM      2  H2  UNL     1       8.039  29.934   8.590  1.00  0.00     0.190 HD
ENDROOT
BRANCH   1   3
HETATM    3  N1  UNL     1       6.394  28.976   9.476  1.00  0.00    -0.308 N
ATOM      4  H1  UNL     1       6.338  29.103  10.487  1.00  0.00     0.186 HD
BRANCH   3   5
HETATM    5  C7  UNL     1       5.303  28.769   8.819  1.00  0.00     0.121 C
BRANCH   5   6
HETATM    6  C6  UNL     1       4.741  29.885   8.066  1.00  0.00     0.016 A
HETATM    7  C1  UNL     1       4.187  30.982   8.685  1.00  0.00     0.079 A
HETATM    8  C2  UNL     1       3.654  32.041   7.950  1.00  0.00     0.063 A
HETATM    9  C3  UNL     1       3.697  31.959   6.595  1.00  0.00     0.058 A
HETATM   10 CL1  UNL     1       3.038  33.267   5.640  1.00  0.00    -0.082 Cl
HETATM   11  C4  UNL     1       4.238  30.887   5.917  1.00  0.00     0.056 A
HETATM   12 CL2  UNL     1       4.262  30.842   4.160  1.00  0.00    -0.083 Cl
HETATM   13  C5  UNL     1       4.749  29.871   6.679  1.00  0.00     0.041 A
BRANCH   7  14
HETATM   14  O1  UNL     1       4.147  31.060  10.046  1.00  0.00    -0.360 OA
ATOM     15  H1  UNL     1       4.724  30.493  10.544  1.00  0.00     0.217 HD
ENDBRANCH   7  14
ENDBRANCH   5   6
ENDBRANCH   3   5
ENDBRANCH   1   3
BRANCH   1  16
HETATM   16  C8  UNL     1       8.319  27.952   8.640  1.00  0.00     0.247 A
HETATM   17  O2  UNL     1       8.989  27.248   9.513  1.00  0.00    -0.286 OA
HETATM   18  C9  UNL     1       9.550  26.209   8.938  1.00  0.00     0.202 A
HETATM   19  C10 UNL     1       9.233  26.224   7.595  1.00  0.00     0.168 A
HETATM   20  N3  UNL     1       8.461  27.329   7.436  1.00  0.00    -0.291 N
BRANCH  19  21
HETATM   21  O3  UNL     1       9.630  25.295   6.624  1.00  0.00    -0.344 OA
ATOM     22  H3  UNL     1       9.314  25.231   5.730  1.00  0.00     0.219 HD
ENDBRANCH  19  21
BRANCH  20  23
HETATM   23  C11 UNL     1       7.875  27.766   6.213  1.00  0.00     0.135 C
BRANCH  23  24
HETATM   24  C12 UNL     1       8.731  28.810   5.538  1.00  0.00     0.021 C
BRANCH  24  25
HETATM   25  C13 UNL     1       7.968  29.829   4.763  1.00  0.00     0.013 C
BRANCH  25  26
HETATM   26  C14 UNL     1       7.382  29.249   3.479  1.00  0.00     0.086 C
HETATM   27  S1  UNL     1       8.698  28.765   2.334  1.00  0.00    -0.098 SA
ENDBRANCH  25  26
ENDBRANCH  24  25
ENDBRANCH  23  24
ENDBRANCH  20  23
ENDBRANCH   1  16
TORSDOF 10
ENDMDL