MODEL 2
REMARK VINA RESULT: -8.107302590      2.036      2.446
REMARK  8 active torsions:
REMARK  status: ('A' for Active; 'I' for Inactive)
REMARK    1  A    between atoms: O1_2  and  C2_3
REMARK    2  A    between atoms: C4_5  and  C5_6
REMARK    3  A    between atoms: C6_12  and  N3_13
REMARK    4  A    between atoms: C7_16  and  C8_17
REMARK    5  A    between atoms: C9_18  and  C10_19
REMARK    6  A    between atoms: C10_19  and  C11_20
REMARK    7  A    between atoms: C11_20  and  C12_21
REMARK    8  A    between atoms: C15_27  and  O3_28
ROOT
HETATM    1  C2  UNL     1       3.814  31.736   6.531  1.00  0.00     0.103 A
HETATM    2  C3  UNL     1       4.416  31.111   5.477  1.00  0.00     0.054 A
HETATM    3  C4  UNL     1       5.201  29.982   5.734  1.00  0.00     0.011 A
HETATM    4  C7  UNL     1       5.388  29.477   7.032  1.00  0.00     0.001 A
HETATM    5  C14 UNL     1       4.748  30.160   8.040  1.00  0.00     0.081 A
HETATM    6 CL3  UNL     1       4.908  29.636   9.695  1.00  0.00    -0.080 Cl
HETATM    7  C15 UNL     1       3.952  31.296   7.818  1.00  0.00     0.121 A
ENDROOT
BRANCH   3   8
HETATM    8  C5  UNL     1       5.788  29.336   4.570  1.00  0.00     0.113 A
HETATM    9  N1  UNL     1       5.235  28.431   3.755  1.00  0.00    -0.237 N
HETATM   10  O2  UNL     1       6.106  28.101   2.844  1.00  0.00    -0.155 OA
ATOM     11  H1  UNL     1       4.288  28.061   3.835  1.00  0.00     0.197 HD
HETATM   12  N2  UNL     1       7.210  28.739   3.010  1.00  0.00    -0.224 N
HETATM   13  C6  UNL     1       7.085  29.535   4.075  1.00  0.00     0.151 A
ATOM     14  H2  UNL     1       8.042  28.652   2.426  1.00  0.00     0.198 HD
BRANCH  13  15
HETATM   15  N3  UNL     1       7.925  30.359   4.627  1.00  0.00    -0.382 N
ATOM     16  H32 UNL     1       7.973  31.377   4.609  1.00  0.00     0.157 HD
ATOM     17  H31 UNL     1       8.712  30.043   5.194  1.00  0.00     0.157 HD
ENDBRANCH  13  15
ENDBRANCH   3   8
BRANCH   4  18
HETATM   18  C8  UNL     1       6.253  28.340   7.196  1.00  0.00     0.010 C
HETATM   19  C9  UNL     1       7.498  28.234   7.558  1.00  0.00    -0.025 C
BRANCH  19  20
HETATM   20  C10 UNL     1       8.122  26.861   7.629  1.00  0.00     0.031 C
BRANCH  20  21
HETATM   21  C11 UNL     1       9.473  26.837   8.244  1.00  0.00     0.033 C
BRANCH  21  22
HETATM   22  C12 UNL     1       9.582  25.818   9.333  1.00  0.00     0.010 C
HETATM   23  C13 UNL     1       9.241  26.085  10.573  1.00  0.00     0.099 C
HETATM   24 CL1  UNL     1       9.376  24.879  11.825  1.00  0.00    -0.071 Cl
HETATM   25 CL2  UNL     1       8.636  27.672  11.001  1.00  0.00    -0.071 Cl
ENDBRANCH  21  22
ENDBRANCH  20  21
ENDBRANCH  19  20
ENDBRANCH   4  18
BRANCH   1  26
HETATM   26  O1  UNL     1       3.030  32.852   6.325  1.00  0.00    -0.353 OA
HETATM   27  C1  UNL     1       2.335  33.052   5.126  1.00  0.00     0.210 C
ENDBRANCH   1  26
BRANCH   7  28
HETATM   28  O3  UNL     1       3.332  31.945   8.859  1.00  0.00    -0.356 OA
ATOM     29  H3  UNL     1       3.766  32.651   9.324  1.00  0.00     0.218 HD
ENDBRANCH   7  28
TORSDOF 8
ENDMDL