MODEL 2
REMARK VINA RESULT: -8.169063474      2.522      3.309
REMARK  10 active torsions:
REMARK  status: ('A' for Active; 'I' for Inactive)
REMARK    1  A    between atoms: C1_4  and  N2_5
REMARK    2  A    between atoms: C1_4  and  C9_24
REMARK    3  A    between atoms: N3_7  and  C2_9
REMARK    4  A    between atoms: C3_10  and  O1_11
REMARK    5  A    between atoms: C4_14  and  C5_15
REMARK    6  A    between atoms: C5_15  and  O4_17
REMARK    7  A    between atoms: O4_17  and  C6_18
REMARK    8  A    between atoms: C6_18  and  C7_19
REMARK    9  A    between atoms: C7_19  and  O5_20
REMARK   10  A    between atoms: C12_27  and  C13_28
ROOT
HETATM    1  N2  UNL     1       3.320  31.840   6.216  1.00  0.00    -0.288 N
ATOM      2  H2  UNL     1       3.143  31.275   5.385  1.00  0.00     0.188 HD
HETATM    3  N3  UNL     1       2.934  33.049   6.222  1.00  0.00    -0.293 N
ATOM      4  H3  UNL     1       3.095  33.643   7.036  1.00  0.00     0.187 HD
ENDROOT
BRANCH   3   5
HETATM    5  C2  UNL     1       2.282  33.550   5.082  1.00  0.00     0.131 A
HETATM    6  C3  UNL     1       1.258  34.452   4.939  1.00  0.00     0.214 A
HETATM    7  O2  UNL     1       0.985  34.604   3.662  1.00  0.00    -0.278 OA
HETATM    8  C4  UNL     1       1.767  33.855   2.936  1.00  0.00     0.177 A
HETATM    9  C8  UNL     1       2.606  33.166   3.777  1.00  0.00     0.107 A
HETATM   10 CL1  UNL     1       3.829  32.040   3.294  1.00  0.00    -0.078 Cl
BRANCH   6  11
HETATM   11  O1  UNL     1       0.629  35.088   5.995  1.00  0.00    -0.339 OA
ATOM     12  H1  UNL     1       0.417  36.013   6.010  1.00  0.00     0.220 HD
ENDBRANCH   6  11
BRANCH   8  13
HETATM   13  C5  UNL     1       1.774  33.745   1.490  1.00  0.00     0.319 C
HETATM   14  O3  UNL     1       0.810  33.233   0.843  1.00  0.00    -0.257 OA
BRANCH  13  15
HETATM   15  O4  UNL     1       2.841  34.196   0.731  1.00  0.00    -0.314 OA
BRANCH  15  16
HETATM   16  C6  UNL     1       3.595  33.355  -0.109  1.00  0.00     0.205 C
BRANCH  16  17
HETATM   17  C7  UNL     1       5.068  33.654   0.175  1.00  0.00     0.191 C
BRANCH  17  18
HETATM   18  O5  UNL     1       5.215  34.750   1.005  1.00  0.00    -0.399 OA
ATOM     19  H5  UNL     1       6.079  35.137   0.925  1.00  0.00     0.209 HD
ENDBRANCH  17  18
ENDBRANCH  16  17
ENDBRANCH  15  16
ENDBRANCH  13  15
ENDBRANCH   8  13
ENDBRANCH   3   5
BRANCH   1  20
HETATM   20  C1  UNL     1       3.987  31.242   7.319  1.00  0.00     0.093 C
HETATM   21  N1  UNL     1       4.280  31.999   8.322  1.00  0.00    -0.388 N
ATOM     22  H12 UNL     1       4.032  32.988   8.298  1.00  0.00     0.157 HD
ATOM     23  H11 UNL     1       4.759  31.570   9.113  1.00  0.00     0.157 HD
BRANCH  20  24
HETATM   24  C9  UNL     1       4.349  29.801   7.353  1.00  0.00     0.054 C
HETATM   25  C10 UNL     1       5.415  29.562   8.362  1.00  0.00     0.013 C
HETATM   26  C11 UNL     1       6.521  28.658   7.880  1.00  0.00     0.011 C
HETATM   27  C12 UNL     1       7.097  29.061   6.569  1.00  0.00     0.051 C
HETATM   28  C14 UNL     1       6.185  29.954   5.763  1.00  0.00     0.011 C
HETATM   29  C15 UNL     1       4.776  29.424   5.945  1.00  0.00     0.013 C
BRANCH  27  30
HETATM   30  C13 UNL     1       8.463  29.718   6.740  1.00  0.00     0.357 C
HETATM   31  F1  UNL     1       9.446  28.754   6.853  1.00  0.00    -0.214 F
HETATM   32  F2  UNL     1       8.708  30.409   5.552  1.00  0.00    -0.214 F
ENDBRANCH  27  30
ENDBRANCH  20  24
ENDBRANCH   1  20
TORSDOF 10
ENDMDL