MODEL 5
REMARK VINA RESULT: -8.510770830      1.579      2.012
REMARK  8 active torsions:
REMARK  status: ('A' for Active; 'I' for Inactive)
REMARK    1  A    between atoms: C2_3  and  C3_4
REMARK    2  A    between atoms: C2_3  and  C10_20
REMARK    3  A    between atoms: C3_4  and  C4_5
REMARK    4  A    between atoms: C4_5  and  N2_6
REMARK    5  A    between atoms: C6_8  and  O1_9
REMARK    6  A    between atoms: C7_11  and  C8_12
REMARK    7  A    between atoms: N3_13  and  O2_15
REMARK    8  A    between atoms: C9_17  and  O3_18
ROOT
HETATM    1  N1  UNL     1       8.803  30.703   4.963  1.00  0.00    -0.197 NA
HETATM    2  C1  UNL     1       7.822  30.109   4.844  1.00  0.00     0.068 C
HETATM    3  C2  UNL     1       6.571  29.359   4.674  1.00  0.00     0.127 C
ENDROOT
BRANCH   3   4
HETATM    4  C3  UNL     1       6.496  28.273   5.722  1.00  0.00     0.044 C
BRANCH   4   5
HETATM    5  C4  UNL     1       7.658  27.326   5.656  1.00  0.00     0.132 C
BRANCH   5   6
HETATM    6  N2  UNL     1       8.180  27.193   7.011  1.00  0.00    -0.334 N
HETATM    7  C5  UNL     1       7.894  27.943   8.077  1.00  0.00     0.130 A
HETATM    8  C6  UNL     1       8.578  27.522   9.192  1.00  0.00     0.097 A
HETATM    9  C7  UNL     1       9.330  26.444   8.779  1.00  0.00     0.067 A
HETATM   10  C9  UNL     1       9.068  26.262   7.437  1.00  0.00     0.157 A
BRANCH   8  11
HETATM   11  O1  UNL     1       8.548  28.047  10.496  1.00  0.00    -0.358 OA
ATOM     12  H1  UNL     1       8.931  27.693  11.290  1.00  0.00     0.217 HD
ENDBRANCH   8  11
BRANCH   9  13
HETATM   13  C8  UNL     1      10.229  25.648   9.603  1.00  0.00     0.132 C
HETATM   14  N3  UNL     1      10.840  26.158  10.613  1.00  0.00    -0.279 N
ATOM     15  H3  UNL     1      10.681  27.141  10.831  1.00  0.00     0.193 HD
BRANCH  14  16
HETATM   16  O2  UNL     1      11.683  25.451  11.401  1.00  0.00    -0.290 OA
ATOM     17  H2  UNL     1      11.435  25.109  12.251  1.00  0.00     0.244 HD
ENDBRANCH  14  16
ENDBRANCH   9  13
BRANCH  10  18
HETATM   18  O3  UNL     1       9.598  25.291   6.586  1.00  0.00    -0.345 OA
ATOM     19  H3  UNL     1      10.417  25.415   6.121  1.00  0.00     0.219 HD
ENDBRANCH  10  18
ENDBRANCH   5   6
ENDBRANCH   4   5
ENDBRANCH   3   4
BRANCH   3  20
HETATM   20  C10 UNL     1       5.466  30.331   4.933  1.00  0.00    -0.037 A
HETATM   21  C11 UNL     1       5.012  30.515   6.212  1.00  0.00     0.034 A
HETATM   22  C12 UNL     1       3.990  31.418   6.421  1.00  0.00     0.058 A
HETATM   23 CL1  UNL     1       3.431  31.628   8.087  1.00  0.00    -0.082 Cl
HETATM   24  C13 UNL     1       3.406  32.144   5.405  1.00  0.00     0.077 A
HETATM   25 CL2  UNL     1       2.115  33.272   5.748  1.00  0.00    -0.081 Cl
HETATM   26  C14 UNL     1       3.905  31.917   4.136  1.00  0.00     0.058 A
HETATM   27 CL3  UNL     1       3.174  32.834   2.825  1.00  0.00    -0.082 Cl
HETATM   28  C15 UNL     1       4.919  31.026   3.897  1.00  0.00     0.034 A
ENDBRANCH   3  20
TORSDOF 8
ENDMDL