MODEL 2
REMARK VINA RESULT: -7.785869850      1.678      2.075
REMARK  10 active torsions:
REMARK  status: ('A' for Active; 'I' for Inactive)
REMARK    1  A    between atoms: C1_2  and  O2_3
REMARK    2  A    between atoms: C1_2  and  C10_16
REMARK    3  A    between atoms: O2_3  and  C2_4
REMARK    4  A    between atoms: C2_4  and  C3_5
REMARK    5  A    between atoms: C3_5  and  C4_6
REMARK    6  A    between atoms: C4_6  and  C5_7
REMARK    7  A    between atoms: C5_7  and  C6_8
REMARK    8  A    between atoms: C9_13  and  O4_14
REMARK    9  A    between atoms: C11_17  and  O5_18
REMARK   10  A    between atoms: C13_21  and  O6_22
ROOT
HETATM    1  O1  UNL     1       5.248  28.294   4.066  1.00  0.00    -0.259 OA
HETATM    2  C1  UNL     1       5.633  29.425   4.434  1.00  0.00     0.297 C
ENDROOT
BRANCH   2   3
HETATM    3  O2  UNL     1       6.761  29.896   3.748  1.00  0.00    -0.317 OA
BRANCH   3   4
HETATM    4  C2  UNL     1       8.069  29.504   4.137  1.00  0.00     0.179 C
BRANCH   4   5
HETATM    5  C3  UNL     1       8.621  30.389   5.215  1.00  0.00     0.027 C
BRANCH   5   6
HETATM    6  C4  UNL     1       9.115  29.564   6.383  1.00  0.00     0.007 C
BRANCH   6   7
HETATM    7  C5  UNL     1       9.194  28.100   6.074  1.00  0.00     0.044 C
BRANCH   7   8
HETATM    8  C6  UNL     1       9.256  27.361   7.374  1.00  0.00     0.004 A
HETATM    9  C7  UNL     1       9.137  27.844   8.658  1.00  0.00     0.062 A
HETATM   10  C8  UNL     1       9.265  26.760   9.516  1.00  0.00     0.148 A
HETATM   11 CL1  UNL     1       9.195  26.805  11.265  1.00  0.00    -0.056 Cl
HETATM   12  O3  UNL     1       9.449  25.698   8.774  1.00  0.00    -0.275 OA
HETATM   13  C9  UNL     1       9.451  26.000   7.501  1.00  0.00     0.191 A
BRANCH  13  14
HETATM   14  O4  UNL     1       9.618  25.142   6.411  1.00  0.00    -0.340 OA
ATOM     15  H4  UNL     1      10.356  24.550   6.319  1.00  0.00     0.220 HD
ENDBRANCH  13  14
ENDBRANCH   7   8
ENDBRANCH   6   7
ENDBRANCH   5   6
ENDBRANCH   4   5
ENDBRANCH   3   4
ENDBRANCH   2   3
BRANCH   2  16
HETATM   16  C10 UNL     1       4.986  30.187   5.468  1.00  0.00     0.096 A
HETATM   17  C11 UNL     1       5.134  29.839   6.784  1.00  0.00     0.086 A
HETATM   18  C12 UNL     1       4.477  30.623   7.759  1.00  0.00     0.076 A
HETATM   19  C13 UNL     1       3.705  31.709   7.424  1.00  0.00     0.091 A
HETATM   20  C14 UNL     1       3.568  32.040   6.102  1.00  0.00     0.090 A
HETATM   21 CL2  UNL     1       2.580  33.426   5.701  1.00  0.00    -0.080 Cl
HETATM   22  C15 UNL     1       4.208  31.278   5.150  1.00  0.00     0.077 A
HETATM   23 CL3  UNL     1       4.017  31.724   3.451  1.00  0.00    -0.081 Cl
BRANCH  17  24
HETATM   24  O5  UNL     1       5.859  28.800   7.282  1.00  0.00    -0.359 OA
ATOM     25  H5  UNL     1       6.726  28.839   7.668  1.00  0.00     0.217 HD
ENDBRANCH  17  24
BRANCH  19  26
HETATM   26  O6  UNL     1       3.073  32.454   8.438  1.00  0.00    -0.359 OA
ATOM     27  H6  UNL     1       3.104  33.403   8.414  1.00  0.00     0.217 HD
ENDBRANCH  19  26
ENDBRANCH   2  16
TORSDOF 10
ENDMDL