MODEL 1
REMARK VINA RESULT: -9.238670032      0.000      0.000
REMARK  17 active torsions:
REMARK  status: ('A' for Active; 'I' for Inactive)
REMARK    1  A    between atoms: C4_9  and  C5_10
REMARK       I    between atoms: C5_10  and  N3_12
REMARK    2  A    between atoms: N3_12  and  C6_14
REMARK    3  A    between atoms: C6_14  and  C7_15
REMARK    4  A    between atoms: C6_14  and  C8_18
REMARK    5  A    between atoms: C8_18  and  C9_19
REMARK    6  A    between atoms: C8_18  and  S2_35
REMARK    7  A    between atoms: C9_19  and  S1_20
REMARK    8  A    between atoms: S1_20  and  C10_21
REMARK    9  A    between atoms: C11_23  and  O7_24
REMARK   10  A    between atoms: C11_23  and  C12_26
REMARK   11  A    between atoms: C12_26  and  O8_27
REMARK   12  A    between atoms: C13_29  and  O9_30
REMARK   13  A    between atoms: C14_32  and  O10_33
REMARK   14  A    between atoms: S2_35  and  N4_36
REMARK   15  A    between atoms: C17_45  and  N5_46
REMARK   16  A    between atoms: N5_46  and  C18_48
REMARK   17  A    between atoms: C18_48  and  O15_49
ROOT
HETATM    1  C6  UNL     1      85.777   3.293 120.396  1.00  0.00     0.207 C
ENDROOT
BRANCH   1   2
HETATM    2  N3  UNL     1      84.466   2.723 120.107  1.00  0.00    -0.340 N
HETATM    3  C5  UNL     1      84.332   1.942 118.935  1.00  0.00     0.275 C
HETATM    4  O3  UNL     1      85.302   1.729 118.153  1.00  0.00    -0.266 OA
ATOM      5  H3  UNL     1      83.673   2.882 120.728  1.00  0.00     0.163 HD
BRANCH   3   6
HETATM    6  C4  UNL     1      83.016   1.371 118.637  1.00  0.00     0.177 A
HETATM    7  N2  UNL     1      82.181   1.959 117.748  1.00  0.00    -0.340 N
HETATM    8  C3  UNL     1      80.998   1.354 117.546  1.00  0.00     0.146 A
ATOM      9  H2  UNL     1      82.437   2.816 117.257  1.00  0.00     0.167 HD
HETATM   10  C2  UNL     1      80.054   1.853 116.661  1.00  0.00     0.319 A
HETATM   11  C16 UNL     1      80.639   0.179 118.213  1.00  0.00     0.142 A
HETATM   12  O1  UNL     1      78.897   1.260 116.464  1.00  0.00    -0.256 OA
HETATM   13  O2  UNL     1      80.283   2.905 116.013  1.00  0.00    -0.257 OA
HETATM   14  C1  UNL     1      78.535   0.166 117.071  1.00  0.00     0.190 A
HETATM   15  N1  UNL     1      77.286  -0.476 116.859  1.00  0.00    -0.072 NA
HETATM   16  C17 UNL     1      79.405  -0.413 117.973  1.00  0.00     0.115 A
HETATM   17  O14 UNL     1      81.486  -0.338 119.056  1.00  0.00    -0.269 OA
HETATM   18  C15 UNL     1      82.651   0.206 119.293  1.00  0.00     0.321 A
HETATM   19  O13 UNL     1      83.428  -0.339 120.119  1.00  0.00    -0.257 OA
BRANCH  16  20
HETATM   20  N5  UNL     1      79.046  -1.598 118.649  1.00  0.00    -0.363 N
ATOM     21  H5  UNL     1      78.992  -2.479 118.137  1.00  0.00     0.162 HD
BRANCH  20  22
HETATM   22  C18 UNL     1      78.756  -1.572 120.057  1.00  0.00     0.287 C
BRANCH  22  23
HETATM   23  O15 UNL     1      79.570  -2.447 120.783  1.00  0.00    -0.382 OA
ATOM     24  H15 UNL     1      79.159  -2.736 121.589  1.00  0.00     0.211 HD
ENDBRANCH  22  23
ENDBRANCH  20  22
ENDBRANCH  16  20
ENDBRANCH   3   6
ENDBRANCH   1   2
BRANCH   1  25
HETATM   25  C7  UNL     1      85.390   4.753 120.612  1.00  0.00     0.198 C
HETATM   26  O4  UNL     1      86.332   5.553 120.913  1.00  0.00    -0.646 OA
HETATM   27  O5  UNL     1      84.095   5.154 120.473  1.00  0.00    -0.646 OA
ENDBRANCH   1  25
BRANCH   1  28
HETATM   28  C8  UNL     1      86.323   2.835 121.769  1.00  0.00     0.171 C
BRANCH  28  29
HETATM   29  C9  UNL     1      85.196   2.666 122.712  1.00  0.00     0.101 C
BRANCH  29  30
HETATM   30  S1  UNL     1      85.144   3.669 124.137  1.00  0.00    -0.133 SA
BRANCH  30  31
HETATM   31  C10 UNL     1      83.617   4.201 124.835  1.00  0.00     0.218 C
HETATM   32  O6  UNL     1      83.843   4.996 125.974  1.00  0.00    -0.332 OA
HETATM   33  C11 UNL     1      84.036   6.289 125.614  1.00  0.00     0.213 C
HETATM   34  C13 UNL     1      83.727   6.439 124.163  1.00  0.00     0.214 C
HETATM   35  C14 UNL     1      82.982   5.189 123.839  1.00  0.00     0.191 C
BRANCH  33  36
HETATM   36  O7  UNL     1      85.379   6.688 125.812  1.00  0.00    -0.362 OA
ATOM     37  H7  UNL     1      85.773   6.998 125.005  1.00  0.00     0.213 HD
ENDBRANCH  33  36
BRANCH  33  38
HETATM   38  C12 UNL     1      83.209   7.259 126.469  1.00  0.00     0.235 C
BRANCH  38  39
HETATM   39  O8  UNL     1      81.898   6.842 126.579  1.00  0.00    -0.395 OA
ATOM     40  H8  UNL     1      81.846   5.933 126.853  1.00  0.00     0.209 HD
ENDBRANCH  38  39
ENDBRANCH  33  38
BRANCH  34  41
HETATM   41  O9  UNL     1      84.936   6.400 123.433  1.00  0.00    -0.387 OA
ATOM     42  H9  UNL     1      84.771   6.713 122.551  1.00  0.00     0.210 HD
ENDBRANCH  34  41
BRANCH  35  43
HETATM   43  O10 UNL     1      81.630   5.237 124.084  1.00  0.00    -0.389 OA
ATOM     44  H10 UNL     1      81.317   4.348 124.198  1.00  0.00     0.210 HD
ENDBRANCH  35  43
ENDBRANCH  30  31
ENDBRANCH  29  30
ENDBRANCH  28  29
BRANCH  28  45
HETATM   45  S2  UNL     1      87.024   1.221 121.388  1.00  0.00     0.231 S
HETATM   46  O11 UNL     1      86.128   0.107 121.645  1.00  0.00    -0.206 OA
HETATM   47  O12 UNL     1      88.264   1.068 122.308  1.00  0.00    -0.206 OA
BRANCH  45  48
HETATM   48  N4  UNL     1      87.786   1.244 119.814  1.00  0.00    -0.328 N
ATOM     49  H42 UNL     1      87.273   1.243 118.932  1.00  0.00     0.168 HD
ATOM     50  H41 UNL     1      88.801   1.260 119.912  1.00  0.00     0.168 HD
ENDBRANCH  45  48
ENDBRANCH  28  45
ENDBRANCH   1  28
TORSDOF 17
ENDMDL