MODEL 5
REMARK VINA RESULT: -8.705223690      1.742      3.408
REMARK  21 active torsions:
REMARK  status: ('A' for Active; 'I' for Inactive)
REMARK    1  A    between atoms: N1_1  and  C1_4
REMARK    2  A    between atoms: C4_7  and  C5_8
REMARK    3  A    between atoms: C5_8  and  N2_9
REMARK    4  A    between atoms: N2_9  and  C6_12
REMARK    5  A    between atoms: C6_12  and  C7_13
REMARK    6  A    between atoms: N3_15  and  C9_16
REMARK    7  A    between atoms: C9_16  and  C10_17
REMARK    8  A    between atoms: C10_17  and  O1_18
REMARK    9  A    between atoms: C10_17  and  C11_20
REMARK   10  A    between atoms: C11_20  and  O2_21
REMARK   11  A    between atoms: C11_20  and  C12_23
REMARK   12  A    between atoms: C12_23  and  O3_24
REMARK   13  A    between atoms: C13_26  and  C14_27
REMARK   14  A    between atoms: C14_27  and  O4_28
REMARK   15  A    between atoms: C15_31  and  N4_32
REMARK   16  A    between atoms: C16_33  and  O6_34
REMARK   17  A    between atoms: C18_38  and  N5_39
REMARK       I    between atoms: N5_39  and  C19_41
REMARK   18  A    between atoms: C19_41  and  C20_43
REMARK   19  A    between atoms: C20_43  and  N6_44
REMARK   20  A    between atoms: C20_43  and  N7_48
REMARK   21  A    between atoms: C21_52  and  O8_53
ROOT
HETATM    1  C12 UNL     1      83.936   5.853 122.638  1.00  0.00     0.144 C
HETATM    2  C13 UNL     1      83.465   7.109 123.154  1.00  0.00     0.187 C
HETATM    3  O5  UNL     1      84.073   7.118 124.445  1.00  0.00    -0.353 OA
HETATM    4  C15 UNL     1      84.285   5.839 124.855  1.00  0.00     0.264 C
HETATM    5  C21 UNL     1      83.696   4.919 123.827  1.00  0.00     0.207 C
ENDROOT
BRANCH   1   6
HETATM    6  C11 UNL     1      83.948   5.338 121.306  1.00  0.00     0.191 C
BRANCH   6   7
HETATM    7  C10 UNL     1      84.906   4.450 120.669  1.00  0.00     0.190 C
BRANCH   7   8
HETATM    8  C9  UNL     1      84.831   2.964 120.903  1.00  0.00     0.124 C
BRANCH   8   9
HETATM    9  N3  UNL     1      85.682   2.417 121.869  1.00  0.00    -0.264 N
HETATM   10  C8  UNL     1      86.215   1.154 121.875  1.00  0.00     0.145 A
HETATM   11  C7  UNL     1      87.013   1.018 122.967  1.00  0.00     0.070 A
HETATM   12  N9  UNL     1      86.968   2.192 123.628  1.00  0.00    -0.287 N
HETATM   13  N8  UNL     1      86.179   2.973 122.950  1.00  0.00    -0.237 N
ATOM     14  H9  UNL     1      87.458   2.423 124.493  1.00  0.00     0.188 HD
ATOM     15  H8  UNL     1      85.967   3.930 123.232  1.00  0.00     0.209 HD
BRANCH  11  16
HETATM   16  C6  UNL     1      87.857  -0.138 123.420  1.00  0.00     0.292 C
BRANCH  16  17
HETATM   17  N2  UNL     1      87.409  -0.693 124.685  1.00  0.00    -0.066 N
ATOM     18  H22 UNL     1      86.499  -0.334 124.976  1.00  0.00     0.277 HD
ATOM     19  H21 UNL     1      87.949  -0.353 125.481  1.00  0.00     0.277 HD
BRANCH  17  20
HETATM   20  C5  UNL     1      87.432  -2.144 124.566  1.00  0.00     0.272 C
BRANCH  20  21
HETATM   21  C4  UNL     1      87.093  -2.698 125.910  1.00  0.00    -0.017 A
HETATM   22  C3  UNL     1      86.626  -3.945 126.190  1.00  0.00     0.014 A
HETATM   23  C2  UNL     1      86.215  -4.266 127.479  1.00  0.00     0.048 A
HETATM   24  C1  UNL     1      86.301  -3.282 128.460  1.00  0.00     0.098 A
HETATM   25  N10 UNL     1      86.764  -2.064 128.191  1.00  0.00    -0.352 N
HETATM   26  C22 UNL     1      87.157  -1.765 126.962  1.00  0.00     0.098 A
ATOM     27  H10 UNL     1      86.817  -1.363 128.930  1.00  0.00     0.166 HD
BRANCH  24  28
HETATM   28  N1  UNL     1      85.928  -3.610 129.624  1.00  0.00    -0.385 N
ATOM     29  H12 UNL     1      86.599  -3.860 130.351  1.00  0.00     0.157 HD
ATOM     30  H11 UNL     1      84.922  -3.622 129.795  1.00  0.00     0.157 HD
ENDBRANCH  24  28
ENDBRANCH  20  21
ENDBRANCH  17  20
ENDBRANCH  16  17
ENDBRANCH  11  16
ENDBRANCH   8   9
ENDBRANCH   7   8
BRANCH   7  31
HETATM   31  O1  UNL     1      86.243   4.800 120.802  1.00  0.00    -0.388 OA
ATOM     32  H1  UNL     1      86.326   5.227 121.646  1.00  0.00     0.210 HD
ENDBRANCH   7  31
ENDBRANCH   6   7
BRANCH   6  33
HETATM   33  O2  UNL     1      82.654   4.774 121.084  1.00  0.00    -0.389 OA
ATOM     34  H2  UNL     1      82.713   3.854 121.315  1.00  0.00     0.210 HD
ENDBRANCH   6  33
ENDBRANCH   1   6
BRANCH   1  35
HETATM   35  O3  UNL     1      85.388   6.007 122.848  1.00  0.00    -0.382 OA
ATOM     36  H3  UNL     1      85.414   5.954 123.796  1.00  0.00     0.211 HD
ENDBRANCH   1  35
BRANCH   2  37
HETATM   37  C14 UNL     1      82.054   7.442 123.414  1.00  0.00     0.199 C
BRANCH  37  38
HETATM   38  O4  UNL     1      81.336   6.971 122.277  1.00  0.00    -0.398 OA
ATOM     39  H4  UNL     1      80.465   6.766 122.594  1.00  0.00     0.209 HD
ENDBRANCH  37  38
ENDBRANCH   2  37
BRANCH   5  40
HETATM   40  O8  UNL     1      82.401   4.612 124.029  1.00  0.00    -0.388 OA
ATOM     41  H8  UNL     1      82.078   4.849 124.890  1.00  0.00     0.210 HD
ENDBRANCH   5  40
BRANCH   4  42
HETATM   42  N4  UNL     1      83.883   5.561 126.232  1.00  0.00    -0.277 N
HETATM   43  C16 UNL     1      83.166   6.408 126.943  1.00  0.00     0.153 A
HETATM   44  C17 UNL     1      82.816   6.065 128.205  1.00  0.00     0.109 A
HETATM   45  S1  UNL     1      83.521   4.528 128.372  1.00  0.00    -0.061 SA
HETATM   46  C18 UNL     1      84.235   4.399 126.798  1.00  0.00     0.157 A
BRANCH  43  47
HETATM   47  O6  UNL     1      82.727   7.702 126.468  1.00  0.00    -0.345 OA
ATOM     48  H6  UNL     1      82.163   8.288 126.959  1.00  0.00     0.219 HD
ENDBRANCH  43  47
BRANCH  46  49
HETATM   49  N5  UNL     1      84.956   3.453 126.297  1.00  0.00    -0.304 N
HETATM   50  C19 UNL     1      84.394   2.195 126.025  1.00  0.00     0.281 C
HETATM   51  O7  UNL     1      83.910   2.010 124.834  1.00  0.00    -0.269 OA
ATOM     52  H5  UNL     1      85.942   3.620 126.096  1.00  0.00     0.171 HD
BRANCH  50  53
HETATM   53  C20 UNL     1      84.310   1.063 126.957  1.00  0.00     0.468 C
BRANCH  53  54
HETATM   54  N6  UNL     1      84.334  -0.170 126.149  1.00  0.00    -0.042 N
ATOM     55  H63 UNL     1      83.858  -0.951 126.597  1.00  0.00     0.277 HD
ATOM     56  H62 UNL     1      83.744  -0.115 125.319  1.00  0.00     0.277 HD
ATOM     57  H61 UNL     1      85.312  -0.369 125.932  1.00  0.00     0.277 HD
ENDBRANCH  53  54
BRANCH  53  58
HETATM   58  N7  UNL     1      85.231   1.080 128.027  1.00  0.00    -0.042 N
ATOM     59  H73 UNL     1      85.190   1.979 128.507  1.00  0.00     0.277 HD
ATOM     60  H72 UNL     1      84.911   0.461 128.772  1.00  0.00     0.277 HD
ATOM     61  H71 UNL     1      86.197   0.860 127.783  1.00  0.00     0.277 HD
ENDBRANCH  53  58
ENDBRANCH  50  53
ENDBRANCH  46  49
ENDBRANCH   4  42
TORSDOF 21
ENDMDL