MODEL 1
REMARK VINA RESULT: -9.009369833      0.000      0.000
REMARK  22 active torsions:
REMARK  status: ('A' for Active; 'I' for Inactive)
REMARK    1  A    between atoms: N1_1  and  N2_4
REMARK    2  A    between atoms: N2_4  and  C1_6
REMARK    3  A    between atoms: C1_6  and  C18_45
REMARK    4  A    between atoms: C2_7  and  O1_8
REMARK    5  A    between atoms: C2_7  and  N3_10
REMARK    6  A    between atoms: N3_10  and  C3_12
REMARK    7  A    between atoms: C3_12  and  O2_13
REMARK    8  A    between atoms: C3_12  and  N4_15
REMARK    9  A    between atoms: C7_21  and  O4_22
REMARK   10  A    between atoms: O4_22  and  C8_23
REMARK   11  A    between atoms: C8_23  and  C9_25
REMARK   12  A    between atoms: C9_25  and  N5_26
REMARK   13  A    between atoms: C9_25  and  C10_30
REMARK   14  A    between atoms: C15_38  and  O8_39
REMARK   15  A    between atoms: C18_45  and  O11_46
REMARK   16  A    between atoms: C18_45  and  C19_48
REMARK   17  A    between atoms: C19_48  and  O12_49
REMARK   18  A    between atoms: C19_48  and  C20_51
REMARK   19  A    between atoms: C20_51  and  O13_52
REMARK   20  A    between atoms: C20_51  and  C21_54
REMARK   21  A    between atoms: C21_54  and  N6_55
REMARK   22  A    between atoms: C21_54  and  N7_59
ROOT
HETATM    1  C3  UNL     1      83.344  -1.495 121.550  1.00  0.00     0.329 C
ENDROOT
BRANCH   1   2
HETATM    2  N3  UNL     1      83.369  -0.265 120.740  1.00  0.00    -0.326 N
ATOM      3  H3  UNL     1      82.521   0.292 120.634  1.00  0.00     0.166 HD
BRANCH   2   4
HETATM    4  C2  UNL     1      84.555   0.143 120.115  1.00  0.00     0.170 C
HETATM    5  C1  UNL     1      85.039   1.451 119.845  1.00  0.00     0.130 C
BRANCH   5   6
HETATM    6  N2  UNL     1      86.241   1.501 119.255  1.00  0.00    -0.301 N
ATOM      7  H2  UNL     1      86.263   1.657 118.247  1.00  0.00     0.186 HD
BRANCH   6   8
HETATM    8  N1  UNL     1      87.427   1.362 119.892  1.00  0.00    -0.344 N
ATOM      9  H12 UNL     1      87.641   0.433 120.254  1.00  0.00     0.176 HD
ATOM     10  H11 UNL     1      88.108   2.109 120.033  1.00  0.00     0.176 HD
ENDBRANCH   6   8
ENDBRANCH   5   6
BRANCH   5  11
HETATM   11  C18 UNL     1      84.425   2.706 120.142  1.00  0.00     0.107 C
BRANCH  11  12
HETATM   12  O11 UNL     1      83.242   2.846 119.541  1.00  0.00    -0.360 OA
ATOM     13  H11 UNL     1      82.637   3.370 120.053  1.00  0.00     0.217 HD
ENDBRANCH  11  12
BRANCH  11  14
HETATM   14  C19 UNL     1      84.877   3.806 120.967  1.00  0.00     0.209 C
BRANCH  14  15
HETATM   15  O12 UNL     1      86.214   4.178 120.519  1.00  0.00    -0.386 OA
ATOM     16  H12 UNL     1      86.188   4.267 119.574  1.00  0.00     0.210 HD
ENDBRANCH  14  15
BRANCH  14  17
HETATM   17  C20 UNL     1      84.044   5.085 120.802  1.00  0.00     0.211 C
BRANCH  17  18
HETATM   18  O13 UNL     1      84.877   6.021 120.202  1.00  0.00    -0.389 OA
ATOM     19  H13 UNL     1      84.563   6.128 119.311  1.00  0.00     0.210 HD
ENDBRANCH  17  18
BRANCH  17  20
HETATM   20  C21 UNL     1      83.572   5.580 122.142  1.00  0.00     0.409 C
BRANCH  20  21
HETATM   21  N6  UNL     1      84.704   6.170 122.836  1.00  0.00    -0.048 N
ATOM     22  H63 UNL     1      85.076   6.989 122.355  1.00  0.00     0.276 HD
ATOM     23  H62 UNL     1      84.434   6.629 123.706  1.00  0.00     0.276 HD
ATOM     24  H61 UNL     1      85.407   5.445 122.978  1.00  0.00     0.276 HD
ENDBRANCH  20  21
BRANCH  20  25
HETATM   25  N7  UNL     1      82.569   6.619 122.011  1.00  0.00    -0.048 N
ATOM     26  H73 UNL     1      81.887   6.388 121.289  1.00  0.00     0.276 HD
ATOM     27  H72 UNL     1      81.946   6.637 122.819  1.00  0.00     0.276 HD
ATOM     28  H71 UNL     1      82.988   7.534 121.845  1.00  0.00     0.276 HD
ENDBRANCH  20  25
ENDBRANCH  17  20
ENDBRANCH  14  17
ENDBRANCH  11  14
ENDBRANCH   5  11
BRANCH   4  29
HETATM   29  O1  UNL     1      85.278  -0.897 119.755  1.00  0.00    -0.344 OA
ATOM     30  H1  UNL     1      86.020  -0.767 119.178  1.00  0.00     0.219 HD
ENDBRANCH   4  29
ENDBRANCH   2   4
ENDBRANCH   1   2
BRANCH   1  31
HETATM   31  O2  UNL     1      83.238  -2.625 120.747  1.00  0.00    -0.359 OA
ATOM     32  H2  UNL     1      84.056  -3.107 120.722  1.00  0.00     0.214 HD
ENDBRANCH   1  31
BRANCH   1  33
HETATM   33  N4  UNL     1      84.534  -1.624 122.356  1.00  0.00    -0.330 N
HETATM   34  C4  UNL     1      84.837  -0.805 123.299  1.00  0.00     0.136 C
HETATM   35  O3  UNL     1      84.091   0.297 123.677  1.00  0.00    -0.323 OA
HETATM   36  C12 UNL     1      86.097  -1.063 124.046  1.00  0.00     0.155 C
HETATM   37  C5  UNL     1      84.537   1.185 124.720  1.00  0.00     0.201 C
HETATM   38  C6  UNL     1      85.616   2.042 124.225  1.00  0.00    -0.014 C
HETATM   39  C17 UNL     1      85.015   0.320 125.819  1.00  0.00     0.059 A
HETATM   40  C7  UNL     1      85.453   3.349 124.464  1.00  0.00     0.152 C
HETATM   41  C11 UNL     1      86.853   1.767 123.479  1.00  0.00     0.114 C
HETATM   42  S1  UNL     1      87.365   0.069 123.464  1.00  0.00    -0.147 SA
HETATM   43  C13 UNL     1      85.766  -0.786 125.486  1.00  0.00    -0.017 A
HETATM   44  C16 UNL     1      84.696   0.614 127.131  1.00  0.00     0.299 A
HETATM   45  C14 UNL     1      86.200  -1.604 126.494  1.00  0.00     0.073 A
HETATM   46  C15 UNL     1      85.852  -1.265 127.803  1.00  0.00     0.187 A
HETATM   47  O9  UNL     1      85.135  -0.201 128.069  1.00  0.00    -0.251 OA
HETATM   48  O10 UNL     1      84.021   1.596 127.488  1.00  0.00    -0.259 OA
ATOM     49  H4  UNL     1      85.166  -2.403 122.169  1.00  0.00     0.165 HD
BRANCH  40  50
HETATM   50  O4  UNL     1      84.377   3.903 125.118  1.00  0.00    -0.289 OA
BRANCH  50  51
HETATM   51  C8  UNL     1      84.463   4.749 126.208  1.00  0.00     0.304 C
HETATM   52  O5  UNL     1      85.531   4.759 126.868  1.00  0.00    -0.262 OA
BRANCH  51  53
HETATM   53  C9  UNL     1      83.371   5.644 126.644  1.00  0.00     0.382 C
BRANCH  53  54
HETATM   54  N5  UNL     1      83.159   5.600 128.071  1.00  0.00    -0.056 N
ATOM     55  H53 UNL     1      82.226   5.250 128.293  1.00  0.00     0.276 HD
ATOM     56  H52 UNL     1      83.716   4.863 128.502  1.00  0.00     0.276 HD
ATOM     57  H51 UNL     1      83.329   6.500 128.518  1.00  0.00     0.276 HD
ENDBRANCH  53  54
BRANCH  53  58
HETATM   58  C10 UNL     1      83.550   7.012 126.144  1.00  0.00     0.214 C
HETATM   59  O6  UNL     1      83.249   7.338 124.974  1.00  0.00    -0.646 OA
HETATM   60  O7  UNL     1      84.067   7.990 126.975  1.00  0.00    -0.646 OA
ENDBRANCH  53  58
ENDBRANCH  51  53
ENDBRANCH  50  51
ENDBRANCH  40  50
BRANCH  46  61
HETATM   61  O8  UNL     1      86.290  -2.093 128.842  1.00  0.00    -0.341 OA
ATOM     62  H8  UNL     1      85.648  -2.629 129.293  1.00  0.00     0.220 HD
ENDBRANCH  46  61
ENDBRANCH   1  33
TORSDOF 22
ENDMDL