MODEL 2
REMARK VINA RESULT: -10.425861262      1.055      1.223
REMARK  16 active torsions:
REMARK  status: ('A' for Active; 'I' for Inactive)
REMARK       I    between atoms: C2_2  and  N1_4
REMARK    1  A    between atoms: N1_4  and  C3_6
REMARK    2  A    between atoms: C4_7  and  O2_8
REMARK    3  A    between atoms: C6_11  and  N2_12
REMARK    4  A    between atoms: C7_17  and  C8_18
REMARK    5  A    between atoms: C8_18  and  N5_19
REMARK       I    between atoms: N5_19  and  C9_20
REMARK    6  A    between atoms: C9_20  and  C10_22
REMARK    7  A    between atoms: C10_22  and  C11_23
REMARK    8  A    between atoms: C11_23  and  C12_24
REMARK       I    between atoms: C12_24  and  N6_26
REMARK    9  A    between atoms: N6_26  and  C13_28
REMARK   10  A    between atoms: N8_31  and  N9_32
REMARK   11  A    between atoms: C15_38  and  N11_39
REMARK   12  A    between atoms: C16_44  and  N13_45
REMARK   13  A    between atoms: C19_51  and  O6_52
REMARK   14  A    between atoms: C20_55  and  C21_56
REMARK   15  A    between atoms: C21_56  and  O8_57
REMARK   16  A    between atoms: C21_56  and  O9_59
ROOT
HETATM    1  N5  UNL     1      83.695   7.207 123.544  1.00  0.00    -0.381 NA
HETATM    2  C9  UNL     1      83.430   6.948 124.822  1.00  0.00     0.291 C
HETATM    3  O3  UNL     1      83.304   7.798 125.754  1.00  0.00    -0.257 OA
ENDROOT
BRANCH   2   4
HETATM    4  C10 UNL     1      83.263   5.467 125.256  1.00  0.00     0.128 C
BRANCH   4   5
HETATM    5  C11 UNL     1      84.573   4.814 125.039  1.00  0.00     0.113 C
BRANCH   5   6
HETATM    6  C12 UNL     1      84.861   3.803 126.070  1.00  0.00     0.223 C
HETATM    7  O4  UNL     1      85.534   4.069 127.074  1.00  0.00    -0.273 OA
HETATM    8  N6  UNL     1      84.349   2.458 125.901  1.00  0.00    -0.309 N
ATOM      9  H6  UNL     1      83.763   2.242 125.095  1.00  0.00     0.170 HD
BRANCH   8  10
HETATM   10  C13 UNL     1      84.645   1.457 126.823  1.00  0.00     0.176 A
HETATM   11  N7  UNL     1      84.647   1.630 128.135  1.00  0.00    -0.259 N
HETATM   12  N8  UNL     1      84.954   0.669 128.968  1.00  0.00    -0.183 N
ATOM     13  H7  UNL     1      84.400   2.546 128.511  1.00  0.00     0.191 HD
HETATM   14  C14 UNL     1      85.293  -0.582 128.527  1.00  0.00     0.178 A
HETATM   15  N10 UNL     1      85.606  -1.546 129.417  1.00  0.00    -0.172 N
HETATM   16  C17 UNL     1      85.310  -0.830 127.163  1.00  0.00     0.110 A
HETATM   17  C15 UNL     1      85.943  -2.783 128.965  1.00  0.00     0.679 A
ATOM     18  H10 UNL     1      85.591  -1.349 130.418  1.00  0.00     0.186 HD
HETATM   19  N12 UNL     1      85.970  -3.063 127.670  1.00  0.00    -0.176 N
HETATM   20  C16 UNL     1      85.657  -2.103 126.730  1.00  0.00     0.133 A
ATOM     21  H12 UNL     1      86.225  -4.001 127.364  1.00  0.00     0.186 HD
HETATM   22  C18 UNL     1      84.988   0.189 126.331  1.00  0.00     0.234 A
HETATM   23  O5  UNL     1      84.999   0.003 125.085  1.00  0.00    -0.283 OA
BRANCH  12  24
HETATM   24  N9  UNL     1      84.970   0.880 130.359  1.00  0.00    -0.322 N
ATOM     25  H92 UNL     1      85.490   1.689 130.698  1.00  0.00     0.179 HD
ATOM     26  H91 UNL     1      84.472   0.259 130.997  1.00  0.00     0.179 HD
ENDBRANCH  12  24
BRANCH  17  27
HETATM   27  N11 UNL     1      86.282  -3.697 129.802  1.00  0.00    -0.234 N
ATOM     28 2H11 UNL     1      86.311  -3.466 130.795  1.00  0.00     0.174 HD
ATOM     29 1H11 UNL     1      86.486  -4.638 129.467  1.00  0.00     0.174 HD
ENDBRANCH  17  27
BRANCH  20  30
HETATM   30  N13 UNL     1      85.705  -2.422 125.553  1.00  0.00    -0.384 N
ATOM     31 2H13 UNL     1      86.549  -2.344 124.984  1.00  0.00     0.157 HD
ATOM     32 1H13 UNL     1      84.855  -2.787 125.124  1.00  0.00     0.157 HD
ENDBRANCH  20  30
ENDBRANCH   8  10
ENDBRANCH   5   6
ENDBRANCH   4   5
ENDBRANCH   2   4
BRANCH   1  33
HETATM   33  C8  UNL     1      83.971   7.496 122.224  1.00  0.00     0.221 C
BRANCH  33  34
HETATM   34  C7  UNL     1      84.694   6.329 121.621  1.00  0.00     0.130 A
HETATM   35  N4  UNL     1      86.004   6.299 121.352  1.00  0.00    -0.280 N
HETATM   36  N3  UNL     1      86.280   5.153 120.837  1.00  0.00    -0.235 N
ATOM     37  H4  UNL     1      86.669   7.053 121.525  1.00  0.00     0.189 HD
HETATM   38  N2  UNL     1      85.141   4.375 120.747  1.00  0.00    -0.225 N
ATOM     39  H3  UNL     1      87.209   4.859 120.537  1.00  0.00     0.208 HD
HETATM   40  C19 UNL     1      84.181   5.137 121.242  1.00  0.00     0.192 A
BRANCH  38  41
HETATM   41  C6  UNL     1      85.161   3.046 120.207  1.00  0.00     0.251 C
HETATM   42  C5  UNL     1      85.656   2.053 121.228  1.00  0.00     0.089 C
HETATM   43  C4  UNL     1      85.655   0.653 120.765  1.00  0.00     0.147 C
HETATM   44  C3  UNL     1      84.772   0.382 119.603  1.00  0.00     0.147 C
HETATM   45  C20 UNL     1      83.938   1.470 119.090  1.00  0.00     0.204 C
HETATM   46  O7  UNL     1      83.876   2.632 119.858  1.00  0.00    -0.352 OA
BRANCH  43  47
HETATM   47  O2  UNL     1      85.225  -0.103 121.909  1.00  0.00    -0.393 OA
ATOM     48  H2  UNL     1      85.961  -0.562 122.298  1.00  0.00     0.210 HD
ENDBRANCH  43  47
BRANCH  44  49
HETATM   49  N1  UNL     1      84.021  -0.857 119.843  1.00  0.00    -0.352 N
HETATM   50  C2  UNL     1      82.855  -1.084 120.547  1.00  0.00     0.214 C
HETATM   51  C1  UNL     1      82.295  -2.488 120.590  1.00  0.00     0.117 C
HETATM   52  O1  UNL     1      82.203  -0.235 121.154  1.00  0.00    -0.274 OA
ATOM     53  H1  UNL     1      84.429  -1.689 119.417  1.00  0.00     0.163 HD
ENDBRANCH  44  49
BRANCH  45  54
HETATM   54  C21 UNL     1      84.312   1.952 117.692  1.00  0.00     0.284 C
BRANCH  54  55
HETATM   55  O8  UNL     1      84.644   1.000 116.786  1.00  0.00    -0.369 OA
ATOM     56  H8  UNL     1      85.435   1.149 116.279  1.00  0.00     0.212 HD
ENDBRANCH  54  55
BRANCH  54  57
HETATM   57  O9  UNL     1      83.316   2.871 117.243  1.00  0.00    -0.369 OA
ATOM     58  H9  UNL     1      83.748   3.631 116.872  1.00  0.00     0.212 HD
ENDBRANCH  54  57
ENDBRANCH  45  54
ENDBRANCH  38  41
BRANCH  40  59
HETATM   59  O6  UNL     1      82.836   4.786 121.368  1.00  0.00    -0.343 OA
ATOM     60  H6  UNL     1      82.130   5.363 121.632  1.00  0.00     0.219 HD
ENDBRANCH  40  59
ENDBRANCH  33  34
ENDBRANCH   1  33
TORSDOF 16
ENDMDL