MODEL 5
REMARK VINA RESULT: -8.316353598      3.460      7.600
REMARK  19 active torsions:
REMARK  status: ('A' for Active; 'I' for Inactive)
REMARK       I    between atoms: C2_2  and  N1_4
REMARK    1  A    between atoms: N1_4  and  C3_6
REMARK    2  A    between atoms: C5_8  and  N2_9
REMARK    3  A    between atoms: C6_13  and  O2_14
REMARK    4  A    between atoms: O2_14  and  C7_15
REMARK    5  A    between atoms: C7_15  and  C9_17
REMARK    6  A    between atoms: C9_17  and  O3_18
REMARK    7  A    between atoms: C9_17  and  C10_20
REMARK    8  A    between atoms: C9_17  and  C11_23
REMARK    9  A    between atoms: C10_20  and  O4_21
REMARK   10  A    between atoms: C11_23  and  O5_24
REMARK   11  A    between atoms: C12_27  and  N3_28
REMARK   12  A    between atoms: C13_29  and  N4_30
REMARK   13  A    between atoms: N7_38  and  N8_40
REMARK   14  A    between atoms: C18_46  and  N10_47
REMARK   15  A    between atoms: N10_47  and  C19_49
REMARK   16  A    between atoms: C19_49  and  C20_50
REMARK   17  A    between atoms: C20_50  and  O7_51
REMARK   18  A    between atoms: C20_50  and  C21_53
REMARK   19  A    between atoms: C21_53  and  O8_54
ROOT
HETATM    1  N3  UNL     1      84.940   2.749 126.318  1.00  0.00    -0.134 N
HETATM    2  C13 UNL     1      84.507   1.943 127.298  1.00  0.00     0.725 A
HETATM    3  N9  UNL     1      84.818   0.643 126.995  1.00  0.00    -0.181 N
ATOM      4  H9  UNL     1      84.606  -0.174 127.568  1.00  0.00     0.184 HD
HETATM    5  C17 UNL     1      85.439   0.638 125.831  1.00  0.00     0.137 A
HETATM    6  C18 UNL     1      85.952  -0.434 125.085  1.00  0.00     0.133 A
HETATM    7  N11 UNL     1      86.533  -0.129 123.913  1.00  0.00    -0.337 N
ATOM      8  H11 UNL     1      86.917  -0.882 123.343  1.00  0.00     0.168 HD
HETATM    9  C22 UNL     1      86.627   1.147 123.462  1.00  0.00     0.183 A
HETATM   10  N12 UNL     1      86.121   2.126 124.218  1.00  0.00    -0.336 N
ATOM     11  H12 UNL     1      86.195   3.082 123.872  1.00  0.00     0.168 HD
HETATM   12  C23 UNL     1      85.520   1.931 125.405  1.00  0.00     0.158 A
ENDROOT
BRANCH   1  13
HETATM   13  C12 UNL     1      84.782   4.171 126.289  1.00  0.00     0.273 C
HETATM   14  C3  UNL     1      84.312   4.812 125.061  1.00  0.00     0.136 C
HETATM   15  C4  UNL     1      82.829   4.636 124.888  1.00  0.00     0.067 C
HETATM   16  C5  UNL     1      82.188   5.434 126.002  1.00  0.00     0.240 C
HETATM   17  C6  UNL     1      83.168   5.628 127.133  1.00  0.00     0.293 C
HETATM   18  O6  UNL     1      83.963   4.525 127.351  1.00  0.00    -0.332 OA
BRANCH  14  19
HETATM   19  N1  UNL     1      85.043   4.577 123.867  1.00  0.00    -0.352 N
HETATM   20  C2  UNL     1      85.275   5.599 122.934  1.00  0.00     0.214 C
HETATM   21  C1  UNL     1      86.051   5.279 121.700  1.00  0.00     0.117 C
HETATM   22  O1  UNL     1      84.828   6.758 123.156  1.00  0.00    -0.274 OA
ATOM     23  H1  UNL     1      85.407   3.643 123.682  1.00  0.00     0.163 HD
ENDBRANCH  14  19
BRANCH  16  24
HETATM   24  N2  UNL     1      80.944   4.848 126.439  1.00  0.00    -0.070 N
ATOM     25  H23 UNL     1      80.183   5.526 126.407  1.00  0.00     0.274 HD
ATOM     26  H22 UNL     1      80.590   4.177 125.756  1.00  0.00     0.274 HD
ATOM     27  H21 UNL     1      81.025   4.426 127.365  1.00  0.00     0.274 HD
ENDBRANCH  16  24
BRANCH  17  28
HETATM   28  O2  UNL     1      82.407   5.803 128.286  1.00  0.00    -0.351 OA
BRANCH  28  29
HETATM   29  C7  UNL     1      82.888   6.824 129.061  1.00  0.00     0.159 C
HETATM   30  C8  UNL     1      82.928   6.405 130.521  1.00  0.00     0.043 C
BRANCH  29  31
HETATM   31  C9  UNL     1      82.088   8.065 128.848  1.00  0.00     0.125 C
BRANCH  31  32
HETATM   32  O3  UNL     1      80.954   7.807 128.083  1.00  0.00    -0.383 OA
ATOM     33  H3  UNL     1      81.189   7.540 127.201  1.00  0.00     0.210 HD
ENDBRANCH  31  32
BRANCH  31  34
HETATM   34  C10 UNL     1      82.919   9.058 128.054  1.00  0.00     0.206 C
BRANCH  34  35
HETATM   35  O4  UNL     1      82.411  10.357 128.201  1.00  0.00    -0.398 OA
ATOM     36  H4  UNL     1      83.114  10.996 128.181  1.00  0.00     0.209 HD
ENDBRANCH  34  35
ENDBRANCH  31  34
BRANCH  31  37
HETATM   37  C11 UNL     1      81.640   8.675 130.167  1.00  0.00     0.206 C
BRANCH  37  38
HETATM   38  O5  UNL     1      80.381   9.256 129.991  1.00  0.00    -0.398 OA
ATOM     39  H5  UNL     1      79.992   9.408 130.844  1.00  0.00     0.209 HD
ENDBRANCH  37  38
ENDBRANCH  31  37
ENDBRANCH  29  31
ENDBRANCH  28  29
ENDBRANCH  17  28
ENDBRANCH   1  13
BRANCH   2  40
HETATM   40  N4  UNL     1      83.814   2.210 128.501  1.00  0.00     0.093 N
HETATM   41  N5  UNL     1      82.583   2.665 128.593  1.00  0.00    -0.253 N
HETATM   42  C14 UNL     1      82.226   2.797 129.896  1.00  0.00     0.109 A
ATOM     43  H5  UNL     1      81.983   2.888 127.800  1.00  0.00     0.190 HD
HETATM   44  C15 UNL     1      80.907   3.287 130.429  1.00  0.00     0.091 C
HETATM   45  N6  UNL     1      83.283   2.405 130.611  1.00  0.00    -0.176 N
HETATM   46  C16 UNL     1      84.245   2.049 129.760  1.00  0.00     0.734 A
ATOM     47  H6  UNL     1      83.344   2.383 131.628  1.00  0.00     0.185 HD
HETATM   48  N7  UNL     1      85.438   1.606 130.027  1.00  0.00    -0.136 N
ATOM     49  H7  UNL     1      86.060   1.375 129.252  1.00  0.00     0.205 HD
BRANCH  48  50
HETATM   50  N8  UNL     1      85.893   1.436 131.320  1.00  0.00    -0.331 N
ATOM     51  H82 UNL     1      86.890   1.566 131.494  1.00  0.00     0.177 HD
ATOM     52  H81 UNL     1      85.272   1.190 132.091  1.00  0.00     0.177 HD
ENDBRANCH  48  50
ENDBRANCH   2  40
BRANCH   6  53
HETATM   53  N10 UNL     1      85.848  -1.636 125.538  1.00  0.00    -0.372 N
ATOM     54  H10 UNL     1      85.103  -2.237 125.187  1.00  0.00     0.161 HD
BRANCH  53  55
HETATM   55  C19 UNL     1      86.756  -2.149 126.524  1.00  0.00     0.155 C
BRANCH  55  56
HETATM   56  C20 UNL     1      86.073  -2.438 127.854  1.00  0.00     0.159 C
BRANCH  56  57
HETATM   57  O7  UNL     1      86.398  -1.447 128.777  1.00  0.00    -0.392 OA
ATOM     58  H7  UNL     1      86.379  -1.806 129.656  1.00  0.00     0.210 HD
ENDBRANCH  56  57
BRANCH  56  59
HETATM   59  C21 UNL     1      86.512  -3.807 128.319  1.00  0.00     0.197 C
BRANCH  59  60
HETATM   60  O8  UNL     1      87.810  -4.022 127.879  1.00  0.00    -0.398 OA
ATOM     61  H8  UNL     1      88.346  -4.251 128.630  1.00  0.00     0.209 HD
ENDBRANCH  59  60
ENDBRANCH  56  59
ENDBRANCH  55  56
ENDBRANCH  53  55
ENDBRANCH   6  53
TORSDOF 19
ENDMDL