MODEL 3
REMARK VINA RESULT: -8.875392411      2.924      4.812
REMARK  18 active torsions:
REMARK  status: ('A' for Active; 'I' for Inactive)
REMARK    1  A    between atoms: C2_2  and  C3_3
REMARK    2  A    between atoms: C3_3  and  N1_4
REMARK    3  A    between atoms: C5_6  and  C6_7
REMARK       I    between atoms: C6_7  and  N2_9
REMARK    4  A    between atoms: N2_9  and  C7_11
REMARK    5  A    between atoms: C8_12  and  C9_13
REMARK    6  A    between atoms: C9_13  and  C10_14
REMARK    7  A    between atoms: C10_14  and  N3_15
REMARK    8  A    between atoms: C10_14  and  N4_19
REMARK    9  A    between atoms: C11_24  and  O3_25
REMARK   10  A    between atoms: O3_25  and  C12_26
REMARK   11  A    between atoms: C12_26  and  C13_27
REMARK   12  A    between atoms: N5_29  and  C15_30
REMARK   13  A    between atoms: C16_31  and  N6_32
REMARK   14  A    between atoms: C18_37  and  N7_38
REMARK   15  A    between atoms: C19_42  and  O4_43
REMARK   16  A    between atoms: C20_45  and  O5_46
REMARK   17  A    between atoms: C22_57  and  N13_58
REMARK   18  A    between atoms: C23_63  and  N15_64
ROOT
HETATM    1  C7  UNL     1      84.224   6.538 124.792  1.00  0.00     0.169 C
HETATM    2  C8  UNL     1      82.879   6.978 125.136  1.00  0.00     0.155 C
HETATM    3  O2  UNL     1      82.861   7.799 123.995  1.00  0.00    -0.351 OA
HETATM    4  C11 UNL     1      83.891   7.072 123.405  1.00  0.00     0.285 C
ENDROOT
BRANCH   1   5
HETATM    5  N2  UNL     1      84.589   5.149 124.813  1.00  0.00    -0.344 N
HETATM    6  C6  UNL     1      84.754   4.367 125.951  1.00  0.00     0.271 C
HETATM    7  O1  UNL     1      84.579   4.875 127.079  1.00  0.00    -0.266 OA
ATOM      8  H2  UNL     1      84.742   4.696 123.913  1.00  0.00     0.163 HD
BRANCH   6   9
HETATM    9  C5  UNL     1      85.128   2.966 125.862  1.00  0.00     0.134 A
HETATM   10  C4  UNL     1      84.808   2.102 126.794  1.00  0.00     0.151 A
HETATM   11  N1  UNL     1      85.131   0.707 126.792  1.00  0.00    -0.164 N
HETATM   12  C21 UNL     1      85.857   0.217 125.699  1.00  0.00     0.739 A
HETATM   13  N11 UNL     1      86.226   1.071 124.684  1.00  0.00     0.092 N
HETATM   14  N12 UNL     1      86.189  -1.068 125.664  1.00  0.00    -0.019 N
HETATM   15  N10 UNL     1      85.871   2.421 124.758  1.00  0.00    -0.258 N
HETATM   16  C23 UNL     1      86.927   0.580 123.656  1.00  0.00     0.727 A
ATOM     17  H10 UNL     1      86.150   3.044 124.000  1.00  0.00     0.189 HD
HETATM   18  N14 UNL     1      87.249  -0.749 123.654  1.00  0.00    -0.020 N
HETATM   19  C22 UNL     1      86.887  -1.572 124.647  1.00  0.00     0.705 A
ATOM     20  H14 UNL     1      87.784  -1.126 122.871  1.00  0.00     0.203 HD
ATOM     21  H12 UNL     1      85.906  -1.680 126.429  1.00  0.00     0.203 HD
BRANCH  11  22
HETATM   22  C3  UNL     1      84.718  -0.125 127.902  1.00  0.00     0.114 C
BRANCH  22  23
HETATM   23  C2  UNL     1      85.484  -0.040 129.123  1.00  0.00     0.008 C
HETATM   24  C1  UNL     1      85.511  -1.076 129.952  1.00  0.00     0.013 C
ENDBRANCH  22  23
ENDBRANCH  11  22
BRANCH  16  25
HETATM   25  N15 UNL     1      87.324   1.277 122.655  1.00  0.00    -0.232 N
ATOM     26 2H15 UNL     1      86.663   1.952 122.270  1.00  0.00     0.174 HD
ATOM     27 1H15 UNL     1      88.248   1.197 122.230  1.00  0.00     0.174 HD
ENDBRANCH  16  25
BRANCH  19  28
HETATM   28  N13 UNL     1      87.211  -2.843 124.623  1.00  0.00    -0.234 N
ATOM     29 2H13 UNL     1      87.746  -3.263 125.383  1.00  0.00     0.174 HD
ATOM     30 1H13 UNL     1      86.932  -3.436 123.841  1.00  0.00     0.174 HD
ENDBRANCH  19  28
ENDBRANCH   6   9
ENDBRANCH   1   5
BRANCH   2  31
HETATM   31  C9  UNL     1      81.734   6.035 125.101  1.00  0.00     0.096 C
BRANCH  31  32
HETATM   32  C10 UNL     1      81.230   5.850 126.520  1.00  0.00     0.380 C
BRANCH  32  33
HETATM   33  N3  UNL     1      81.409   4.500 127.006  1.00  0.00    -0.050 N
ATOM     34  H33 UNL     1      80.836   3.843 126.477  1.00  0.00     0.276 HD
ATOM     35  H32 UNL     1      82.333   4.144 126.765  1.00  0.00     0.276 HD
ATOM     36  H31 UNL     1      81.234   4.414 128.007  1.00  0.00     0.276 HD
ENDBRANCH  32  33
BRANCH  32  37
HETATM   37  N4  UNL     1      81.827   6.828 127.427  1.00  0.00    -0.050 N
ATOM     38  H43 UNL     1      82.090   7.682 126.935  1.00  0.00     0.276 HD
ATOM     39  H42 UNL     1      81.133   7.220 128.063  1.00  0.00     0.276 HD
ATOM     40  H41 UNL     1      82.617   6.429 127.934  1.00  0.00     0.276 HD
ENDBRANCH  32  37
ENDBRANCH  31  32
ENDBRANCH   2  31
BRANCH   4  41
HETATM   41  O3  UNL     1      83.510   6.105 122.502  1.00  0.00    -0.353 OA
BRANCH  41  42
HETATM   42  C12 UNL     1      84.107   6.164 121.274  1.00  0.00     0.230 C
BRANCH  42  43
HETATM   43  C13 UNL     1      84.740   4.923 120.811  1.00  0.00     0.064 A
HETATM   44  C14 UNL     1      84.140   3.938 120.087  1.00  0.00     0.137 A
HETATM   45  N5  UNL     1      85.066   2.995 119.889  1.00  0.00    -0.276 N
HETATM   46  N8  UNL     1      86.212   3.371 120.466  1.00  0.00    -0.020 NA
HETATM   47  N9  UNL     1      86.011   4.556 121.031  1.00  0.00    -0.285 N
ATOM     48  H9  UNL     1      86.707   5.096 121.547  1.00  0.00     0.184 HD
BRANCH  45  49
HETATM   49  C15 UNL     1      84.931   1.727 119.170  1.00  0.00     0.167 C
HETATM   50  C16 UNL     1      83.894   1.851 118.103  1.00  0.00     0.212 C
HETATM   51  C17 UNL     1      82.500   1.536 118.516  1.00  0.00     0.070 C
HETATM   52  C18 UNL     1      82.362   0.358 119.450  1.00  0.00     0.216 C
HETATM   53  C19 UNL     1      83.647  -0.327 119.760  1.00  0.00     0.179 C
HETATM   54  C20 UNL     1      84.708   0.644 120.168  1.00  0.00     0.175 C
BRANCH  50  55
HETATM   55  N6  UNL     1      84.310   1.154 116.876  1.00  0.00    -0.073 N
ATOM     56  H63 UNL     1      85.069   0.497 117.057  1.00  0.00     0.274 HD
ATOM     57  H62 UNL     1      83.601   0.490 116.563  1.00  0.00     0.274 HD
ATOM     58  H61 UNL     1      84.554   1.817 116.141  1.00  0.00     0.274 HD
ENDBRANCH  50  55
BRANCH  52  59
HETATM   59  N7  UNL     1      81.381  -0.586 119.016  1.00  0.00    -0.072 N
ATOM     60  H73 UNL     1      81.095  -0.399 118.055  1.00  0.00     0.274 HD
ATOM     61  H72 UNL     1      81.795  -1.509 118.891  1.00  0.00     0.274 HD
ATOM     62  H71 UNL     1      80.571  -0.631 119.634  1.00  0.00     0.274 HD
ENDBRANCH  52  59
BRANCH  53  63
HETATM   63  O4  UNL     1      84.074  -1.188 118.761  1.00  0.00    -0.391 OA
ATOM     64  H4  UNL     1      84.864  -1.666 118.982  1.00  0.00     0.210 HD
ENDBRANCH  53  63
BRANCH  54  65
HETATM   65  O5  UNL     1      84.468   1.133 121.454  1.00  0.00    -0.391 OA
ATOM     66  H5  UNL     1      83.889   0.574 121.959  1.00  0.00     0.210 HD
ENDBRANCH  54  65
ENDBRANCH  45  49
ENDBRANCH  42  43
ENDBRANCH  41  42
ENDBRANCH   4  41
TORSDOF 18
ENDMDL