MODEL 1
REMARK VINA RESULT: -8.450421385      0.000      0.000
REMARK  16 active torsions:
REMARK  status: ('A' for Active; 'I' for Inactive)
REMARK    1  A    between atoms: C1_4  and  O1_5
REMARK    2  A    between atoms: O1_5  and  C2_6
REMARK    3  A    between atoms: C2_6  and  C3_8
REMARK    4  A    between atoms: C3_8  and  C4_9
REMARK    5  A    between atoms: C4_9  and  C5_10
REMARK    6  A    between atoms: C5_10  and  C6_11
REMARK    7  A    between atoms: C8_17  and  O7_18
REMARK    8  A    between atoms: C9_20  and  O8_21
REMARK    9  A    between atoms: C11_24  and  O9_25
REMARK   10  A    between atoms: C11_24  and  C12_27
REMARK   11  A    between atoms: C13_30  and  C14_31
REMARK   12  A    between atoms: C17_38  and  C18_39
REMARK   13  A    between atoms: C19_42  and  C20_43
REMARK   14  A    between atoms: C20_43  and  O18_44
REMARK   15  A    between atoms: C21_47  and  C22_48
REMARK   16  A    between atoms: C22_48  and  O20_49
ROOT
HETATM    1  C3  UNL     1      84.902   0.888 124.030  1.00  0.00     0.195 C
HETATM    2  O5  UNL     1      84.754   0.610 125.423  1.00  0.00    -0.294 OA
HETATM    3  C7  UNL     1      84.950   1.451 126.498  1.00  0.00     0.300 C
HETATM    4  O6  UNL     1      85.342   0.910 127.551  1.00  0.00    -0.262 OA
HETATM    5  C8  UNL     1      84.741   2.866 126.500  1.00  0.00     0.201 C
HETATM    6  C9  UNL     1      83.317   3.000 125.984  1.00  0.00     0.176 C
HETATM    7  C10 UNL     1      83.480   3.631 124.658  1.00  0.00     0.107 C
HETATM    8  C11 UNL     1      83.115   5.100 124.984  1.00  0.00     0.191 C
HETATM    9  C13 UNL     1      84.189   5.778 125.721  1.00  0.00     0.268 C
HETATM   10  O14 UNL     1      85.259   5.057 126.077  1.00  0.00    -0.359 OA
HETATM   11  C15 UNL     1      85.473   3.789 125.578  1.00  0.00     0.208 C
HETATM   12  C16 UNL     1      84.887   3.518 124.200  1.00  0.00     0.138 C
HETATM   13  O15 UNL     1      85.018   4.469 123.258  1.00  0.00    -0.355 OA
HETATM   14  C17 UNL     1      85.934   4.512 122.262  1.00  0.00     0.254 C
HETATM   15  C19 UNL     1      86.303   3.119 121.762  1.00  0.00     0.186 C
HETATM   16  O19 UNL     1      85.334   2.330 122.347  1.00  0.00    -0.360 OA
HETATM   17  C21 UNL     1      85.486   2.221 123.770  1.00  0.00     0.158 C
ENDROOT
BRANCH   1  18
HETATM   18  C2  UNL     1      85.946  -0.136 123.633  1.00  0.00     0.303 C
HETATM   19  O2  UNL     1      86.183  -0.502 122.466  1.00  0.00    -0.261 OA
BRANCH  18  20
HETATM   20  O1  UNL     1      86.718  -0.727 124.623  1.00  0.00    -0.272 OA
BRANCH  20  21
HETATM   21  C1  UNL     1      87.836  -1.513 124.385  1.00  0.00     0.230 C
HETATM   22  N1  UNL     1      88.900  -0.966 123.969  1.00  0.00    -0.390 N
ATOM     23  H12 UNL     1      88.917   0.043 123.816  1.00  0.00     0.157 HD
ATOM     24  H11 UNL     1      89.722  -1.544 123.794  1.00  0.00     0.157 HD
ENDBRANCH  20  21
ENDBRANCH  18  20
ENDBRANCH   1  18
BRANCH   1  25
HETATM   25  C4  UNL     1      83.679   0.534 123.242  1.00  0.00     0.063 C
BRANCH  25  26
HETATM   26  C5  UNL     1      83.141  -0.827 123.253  1.00  0.00     0.117 C
BRANCH  26  27
HETATM   27  C6  UNL     1      81.988  -1.230 122.497  1.00  0.00     0.172 C
HETATM   28  O3  UNL     1      81.164  -2.103 122.857  1.00  0.00    -0.648 OA
HETATM   29  O4  UNL     1      81.695  -0.639 121.253  1.00  0.00    -0.648 OA
ENDBRANCH  26  27
ENDBRANCH  25  26
ENDBRANCH   1  25
BRANCH  17  30
HETATM   30  C22 UNL     1      86.963   2.126 123.925  1.00  0.00     0.209 C
BRANCH  30  31
HETATM   31  O20 UNL     1      87.755   1.645 122.880  1.00  0.00    -0.398 OA
ATOM     32  H20 UNL     1      88.479   1.056 123.057  1.00  0.00     0.209 HD
ENDBRANCH  30  31
ENDBRANCH  17  30
BRANCH   5  33
HETATM   33  O7  UNL     1      84.910   3.353 127.792  1.00  0.00    -0.375 OA
ATOM     34  H7  UNL     1      84.193   3.051 128.337  1.00  0.00     0.211 HD
ENDBRANCH   5  33
BRANCH  15  35
HETATM   35  C20 UNL     1      86.167   2.844 120.293  1.00  0.00     0.199 C
BRANCH  35  36
HETATM   36  O18 UNL     1      86.844   1.773 119.792  1.00  0.00    -0.398 OA
ATOM     37  H18 UNL     1      86.432   1.286 119.087  1.00  0.00     0.209 HD
ENDBRANCH  35  36
ENDBRANCH  15  35
BRANCH   6  38
HETATM   38  O8  UNL     1      82.651   3.557 127.009  1.00  0.00    -0.391 OA
ATOM     39  H8  UNL     1      81.858   3.897 126.611  1.00  0.00     0.210 HD
ENDBRANCH   6  38
BRANCH   8  40
HETATM   40  O9  UNL     1      81.856   5.023 125.672  1.00  0.00    -0.376 OA
ATOM     41  H9  UNL     1      81.995   5.491 126.488  1.00  0.00     0.211 HD
ENDBRANCH   8  40
BRANCH   8  42
HETATM   42  C12 UNL     1      82.606   5.880 123.835  1.00  0.00     0.213 C
HETATM   43  O10 UNL     1      81.658   5.360 123.195  1.00  0.00    -0.646 OA
HETATM   44  O11 UNL     1      83.098   7.088 123.455  1.00  0.00    -0.646 OA
ENDBRANCH   8  42
BRANCH  14  45
HETATM   45  C18 UNL     1      85.505   5.236 121.038  1.00  0.00     0.205 C
HETATM   46  O16 UNL     1      86.282   6.035 120.408  1.00  0.00    -0.646 OA
HETATM   47  O17 UNL     1      84.266   5.153 120.426  1.00  0.00    -0.646 OA
ENDBRANCH  14  45
BRANCH   9  48
HETATM   48  C14 UNL     1      83.756   6.651 126.849  1.00  0.00     0.206 C
HETATM   49  O12 UNL     1      83.321   6.205 127.944  1.00  0.00    -0.646 OA
HETATM   50  O13 UNL     1      83.798   8.042 126.779  1.00  0.00    -0.646 OA
ENDBRANCH   9  48
TORSDOF 16
ENDMDL