MODEL 5
REMARK VINA RESULT: -8.762954771      2.798      6.187
REMARK  21 active torsions:
REMARK  status: ('A' for Active; 'I' for Inactive)
REMARK    1  A    between atoms: C3_4  and  O2_5
REMARK    2  A    between atoms: O2_5  and  C4_6
REMARK    3  A    between atoms: C5_8  and  O4_9
REMARK    4  A    between atoms: O4_9  and  C6_10
REMARK    5  A    between atoms: C8_12  and  O5_13
REMARK    6  A    between atoms: O5_13  and  C9_14
REMARK    7  A    between atoms: C10_16  and  O7_17
REMARK    8  A    between atoms: O7_17  and  C11_18
REMARK    9  A    between atoms: C11_18  and  C12_19
REMARK   10  A    between atoms: C11_18  and  C13_22
REMARK   11  A    between atoms: C12_19  and  O8_20
REMARK   12  A    between atoms: C13_22  and  O9_23
REMARK   13  A    between atoms: C14_25  and  O10_26
REMARK   14  A    between atoms: C15_28  and  O11_29
REMARK   15  A    between atoms: C16_31  and  N1_32
REMARK   16  A    between atoms: C18_37  and  N2_38
REMARK   17  A    between atoms: C19_42  and  N3_43
REMARK   18  A    between atoms: C21_48  and  N4_49
REMARK   19  A    between atoms: C22_53  and  O12_54
REMARK   20  A    between atoms: C23_56  and  O13_57
REMARK   21  A    between atoms: C24_59  and  N5_60
ROOT
HETATM    1  C6  UNL     1      84.459   5.362 123.196  1.00  0.00     0.157 C
HETATM    2  C7  UNL     1      85.097   4.042 122.852  1.00  0.00     0.068 C
HETATM    3  C8  UNL     1      85.504   3.863 121.434  1.00  0.00     0.157 C
HETATM    4  C16 UNL     1      84.568   4.603 120.525  1.00  0.00     0.214 C
HETATM    5  C17 UNL     1      84.580   6.075 120.795  1.00  0.00     0.070 C
HETATM    6  C18 UNL     1      84.862   6.428 122.232  1.00  0.00     0.214 C
ENDROOT
BRANCH   1   7
HETATM    7  O4  UNL     1      83.137   5.178 123.384  1.00  0.00    -0.352 OA
BRANCH   7   8
HETATM    8  C5  UNL     1      82.668   4.902 124.624  1.00  0.00     0.293 C
HETATM    9  O3  UNL     1      83.805   4.832 125.475  1.00  0.00    -0.327 OA
HETATM   10  C4  UNL     1      83.399   4.311 126.699  1.00  0.00     0.296 C
HETATM   11  C21 UNL     1      82.625   5.376 127.440  1.00  0.00     0.240 C
HETATM   12  C20 UNL     1      82.391   6.529 126.506  1.00  0.00     0.075 C
HETATM   13  C19 UNL     1      81.784   5.941 125.231  1.00  0.00     0.240 C
BRANCH  10  14
HETATM   14  O2  UNL     1      84.472   3.894 127.475  1.00  0.00    -0.327 OA
BRANCH  14  15
HETATM   15  C3  UNL     1      84.358   2.550 127.825  1.00  0.00     0.294 C
HETATM   16  O1  UNL     1      84.578   2.379 129.183  1.00  0.00    -0.351 OA
HETATM   17  C2  UNL     1      85.397   1.319 129.484  1.00  0.00     0.153 C
HETATM   18  C1  UNL     1      85.234   1.025 130.981  1.00  0.00     0.042 C
HETATM   19  C24 UNL     1      85.015   0.036 128.774  1.00  0.00     0.243 C
HETATM   20  C23 UNL     1      84.935   0.244 127.276  1.00  0.00     0.184 C
HETATM   21  C22 UNL     1      85.317   1.693 127.024  1.00  0.00     0.204 C
BRANCH  19  22
HETATM   22  N5  UNL     1      86.082  -0.912 129.025  1.00  0.00    -0.070 N
ATOM     23  H53 UNL     1      86.555  -1.221 128.175  1.00  0.00     0.274 HD
ATOM     24  H52 UNL     1      86.895  -0.494 129.477  1.00  0.00     0.274 HD
ATOM     25  H51 UNL     1      85.673  -1.678 129.559  1.00  0.00     0.274 HD
ENDBRANCH  19  22
BRANCH  20  26
HETATM   26  O13 UNL     1      85.769  -0.639 126.589  1.00  0.00    -0.391 OA
ATOM     27  H13 UNL     1      85.506  -0.741 125.682  1.00  0.00     0.210 HD
ENDBRANCH  20  26
BRANCH  21  28
HETATM   28  O12 UNL     1      85.105   2.002 125.681  1.00  0.00    -0.388 OA
ATOM     29  H12 UNL     1      85.802   1.582 125.191  1.00  0.00     0.210 HD
ENDBRANCH  21  28
ENDBRANCH  14  15
ENDBRANCH  10  14
BRANCH  11  30
HETATM   30  N4  UNL     1      83.426   5.861 128.571  1.00  0.00    -0.070 N
ATOM     31  H43 UNL     1      84.191   6.465 128.272  1.00  0.00     0.274 HD
ATOM     32  H42 UNL     1      82.920   6.539 129.140  1.00  0.00     0.274 HD
ATOM     33  H41 UNL     1      83.754   5.065 129.118  1.00  0.00     0.274 HD
ENDBRANCH  11  30
BRANCH  13  34
HETATM   34  N3  UNL     1      81.484   7.054 124.377  1.00  0.00    -0.070 N
ATOM     35  H33 UNL     1      81.959   7.893 124.711  1.00  0.00     0.274 HD
ATOM     36  H32 UNL     1      81.942   6.939 123.472  1.00  0.00     0.274 HD
ATOM     37  H31 UNL     1      80.489   7.242 124.247  1.00  0.00     0.274 HD
ENDBRANCH  13  34
ENDBRANCH   7   8
ENDBRANCH   1   7
BRANCH   6  38
HETATM   38  N2  UNL     1      86.292   6.647 122.370  1.00  0.00    -0.072 N
ATOM     39  H23 UNL     1      86.613   6.551 123.333  1.00  0.00     0.274 HD
ATOM     40  H22 UNL     1      86.847   5.893 121.964  1.00  0.00     0.274 HD
ATOM     41  H21 UNL     1      86.515   7.558 121.969  1.00  0.00     0.274 HD
ENDBRANCH   6  38
BRANCH   3  42
HETATM   42  O5  UNL     1      85.388   2.503 121.122  1.00  0.00    -0.351 OA
BRANCH  42  43
HETATM   43  C9  UNL     1      85.435   1.671 122.221  1.00  0.00     0.294 C
HETATM   44  O6  UNL     1      84.419   0.721 122.200  1.00  0.00    -0.326 OA
HETATM   45  C10 UNL     1      84.817  -0.284 123.098  1.00  0.00     0.295 C
HETATM   46  C14 UNL     1      86.325  -0.333 123.008  1.00  0.00     0.207 C
HETATM   47  C15 UNL     1      86.664   0.806 122.068  1.00  0.00     0.207 C
BRANCH  45  48
HETATM   48  O7  UNL     1      84.180  -1.422 122.707  1.00  0.00    -0.349 OA
BRANCH  48  49
HETATM   49  C11 UNL     1      83.611  -1.468 121.482  1.00  0.00     0.171 C
BRANCH  49  50
HETATM   50  C12 UNL     1      84.186  -2.425 120.496  1.00  0.00     0.198 C
BRANCH  50  51
HETATM   51  O8  UNL     1      85.171  -1.747 119.739  1.00  0.00    -0.398 OA
ATOM     52  H8  UNL     1      84.976  -1.871 118.816  1.00  0.00     0.209 HD
ENDBRANCH  50  51
ENDBRANCH  49  50
BRANCH  49  53
HETATM   53  C13 UNL     1      82.144  -1.809 121.653  1.00  0.00     0.198 C
BRANCH  53  54
HETATM   54  O9  UNL     1      81.835  -2.310 122.894  1.00  0.00    -0.398 OA
ATOM     55  H9  UNL     1      81.000  -2.007 123.231  1.00  0.00     0.209 HD
ENDBRANCH  53  54
ENDBRANCH  49  53
ENDBRANCH  48  49
ENDBRANCH  45  48
BRANCH  46  56
HETATM   56  O10 UNL     1      86.939  -0.014 124.229  1.00  0.00    -0.388 OA
ATOM     57  H10 UNL     1      86.989  -0.763 124.810  1.00  0.00     0.210 HD
ENDBRANCH  46  56
BRANCH  47  58
HETATM   58  O11 UNL     1      86.789   0.364 120.741  1.00  0.00    -0.388 OA
ATOM     59  H11 UNL     1      86.572  -0.558 120.677  1.00  0.00     0.210 HD
ENDBRANCH  47  58
ENDBRANCH  42  43
ENDBRANCH   3  42
BRANCH   4  60
HETATM   60  N1  UNL     1      83.263   3.994 120.618  1.00  0.00    -0.072 N
ATOM     61  H13 UNL     1      82.571   4.458 120.031  1.00  0.00     0.274 HD
ATOM     62  H12 UNL     1      83.227   3.074 120.177  1.00  0.00     0.274 HD
ATOM     63  H11 UNL     1      82.989   3.968 121.601  1.00  0.00     0.274 HD
ENDBRANCH   4  60
TORSDOF 21
ENDMDL