MODEL 1
REMARK VINA RESULT: -8.051437197      0.000      0.000
REMARK  19 active torsions:
REMARK  status: ('A' for Active; 'I' for Inactive)
REMARK    1  A    between atoms: O1_2  and  C2_3
REMARK    2  A    between atoms: C3_4  and  O2_5
REMARK    3  A    between atoms: O2_5  and  C4_6
REMARK    4  A    between atoms: C5_7  and  N1_8
REMARK    5  A    between atoms: C8_14  and  O3_15
REMARK    6  A    between atoms: O3_15  and  C9_16
REMARK    7  A    between atoms: C10_18  and  N2_19
REMARK    8  A    between atoms: N2_19  and  N3_20
REMARK    9  A    between atoms: C11_25  and  O5_26
REMARK   10  A    between atoms: C12_28  and  N5_29
REMARK   11  A    between atoms: C14_35  and  C15_36
REMARK   12  A    between atoms: C15_36  and  O7_37
REMARK   13  A    between atoms: O7_37  and  C16_38
REMARK   14  A    between atoms: C17_39  and  N6_40
REMARK   15  A    between atoms: C19_45  and  N7_46
REMARK   16  A    between atoms: C20_50  and  O8_51
REMARK   17  A    between atoms: C21_53  and  O9_54
REMARK   18  A    between atoms: C22_56  and  O10_57
REMARK   19  A    between atoms: O10_57  and  N8_58
ROOT
HETATM    1  C2  UNL     1      86.004   0.906 123.064  1.00  0.00     0.186 C
HETATM    2  C3  UNL     1      85.101   2.134 123.067  1.00  0.00     0.177 C
HETATM    3  C13 UNL     1      85.024   2.682 124.489  1.00  0.00     0.203 C
HETATM    4  O6  UNL     1      86.053   2.140 125.258  1.00  0.00    -0.378 OA
HETATM    5  C14 UNL     1      85.858   0.821 125.504  1.00  0.00     0.179 C
HETATM    6  C22 UNL     1      85.549   0.065 124.249  1.00  0.00     0.221 C
ENDROOT
BRANCH   2   7
HETATM    7  O2  UNL     1      85.710   3.096 122.279  1.00  0.00    -0.370 OA
BRANCH   7   8
HETATM    8  C4  UNL     1      85.340   4.387 122.630  1.00  0.00     0.189 C
HETATM    9  C5  UNL     1      86.261   5.307 121.814  1.00  0.00     0.237 C
HETATM   10  C6  UNL     1      85.682   5.153 120.450  1.00  0.00     0.007 C
HETATM   11  C7  UNL     1      84.403   4.803 120.520  1.00  0.00     0.006 C
HETATM   12  C8  UNL     1      84.015   4.693 121.977  1.00  0.00     0.178 C
BRANCH   9  13
HETATM   13  N1  UNL     1      86.192   6.663 122.300  1.00  0.00    -0.069 N
ATOM     14  H13 UNL     1      85.241   7.029 122.264  1.00  0.00     0.275 HD
ATOM     15  H12 UNL     1      86.337   6.710 123.309  1.00  0.00     0.275 HD
ATOM     16  H11 UNL     1      86.846   7.262 121.797  1.00  0.00     0.275 HD
ENDBRANCH   9  13
BRANCH  12  17
HETATM   17  O3  UNL     1      83.513   5.931 122.363  1.00  0.00    -0.347 OA
BRANCH  17  18
HETATM   18  C9  UNL     1      83.348   5.943 123.724  1.00  0.00     0.299 C
HETATM   19  O4  UNL     1      83.995   6.977 124.376  1.00  0.00    -0.319 OA
HETATM   20  C10 UNL     1      84.031   6.749 125.733  1.00  0.00     0.340 C
HETATM   21  N4  UNL     1      83.138   5.720 126.177  1.00  0.00    -0.355 N
HETATM   22  C11 UNL     1      81.829   5.769 125.614  1.00  0.00     0.252 C
ATOM     23  H4  UNL     1      83.419   5.003 126.847  1.00  0.00     0.159 HD
HETATM   24  C12 UNL     1      81.869   6.047 124.118  1.00  0.00     0.286 C
BRANCH  20  25
HETATM   25  N2  UNL     1      83.843   7.941 126.529  1.00  0.00    -0.095 NA
BRANCH  25  26
HETATM   26  N3  UNL     1      83.415   7.541 127.800  1.00  0.00    -0.344 N
ATOM     27  H32 UNL     1      83.938   7.668 128.666  1.00  0.00     0.172 HD
ATOM     28  H31 UNL     1      82.497   7.108 127.696  1.00  0.00     0.172 HD
ENDBRANCH  25  26
ENDBRANCH  20  25
BRANCH  22  29
HETATM   29  O5  UNL     1      80.977   6.625 126.289  1.00  0.00    -0.375 OA
ATOM     30  H5  UNL     1      80.118   6.691 125.890  1.00  0.00     0.212 HD
ENDBRANCH  22  29
BRANCH  24  31
HETATM   31  N5  UNL     1      81.430   7.410 123.928  1.00  0.00    -0.066 N
ATOM     32  H53 UNL     1      81.431   7.943 124.797  1.00  0.00     0.275 HD
ATOM     33  H52 UNL     1      82.111   7.970 123.416  1.00  0.00     0.275 HD
ATOM     34  H51 UNL     1      80.516   7.401 123.477  1.00  0.00     0.275 HD
ENDBRANCH  24  31
ENDBRANCH  17  18
ENDBRANCH  12  17
ENDBRANCH   7   8
ENDBRANCH   2   7
BRANCH   1  35
HETATM   35  O1  UNL     1      87.296   1.317 123.364  1.00  0.00    -0.385 OA
HETATM   36  C1  UNL     1      88.182   0.746 122.485  1.00  0.00     0.202 C
ENDBRANCH   1  35
BRANCH   6  37
HETATM   37  O10 UNL     1      84.127  -0.020 124.134  1.00  0.00    -0.210 OA
BRANCH  37  38
HETATM   38  N8  UNL     1      83.494  -0.767 123.212  1.00  0.00     0.005 N
HETATM   39  O11 UNL     1      84.070  -1.717 122.667  1.00  0.00    -0.511 OA
HETATM   40  O12 UNL     1      82.203  -0.489 122.863  1.00  0.00    -0.511 OA
ENDBRANCH  37  38
ENDBRANCH   6  37
BRANCH   5  41
HETATM   41  C15 UNL     1      84.835   0.554 126.598  1.00  0.00     0.203 C
BRANCH  41  42
HETATM   42  O7  UNL     1      85.155   1.356 127.662  1.00  0.00    -0.379 OA
BRANCH  42  43
HETATM   43  C16 UNL     1      84.110   1.719 128.465  1.00  0.00     0.183 C
HETATM   44  C17 UNL     1      84.389   1.385 129.916  1.00  0.00     0.217 C
HETATM   45  C18 UNL     1      83.289   1.866 130.809  1.00  0.00     0.071 C
HETATM   46  C19 UNL     1      82.793   3.240 130.511  1.00  0.00     0.216 C
HETATM   47  C20 UNL     1      83.679   3.958 129.532  1.00  0.00     0.179 C
HETATM   48  C21 UNL     1      83.839   3.188 128.247  1.00  0.00     0.179 C
BRANCH  44  49
HETATM   49  N6  UNL     1      85.649   1.902 130.359  1.00  0.00    -0.072 N
ATOM     50  H63 UNL     1      86.319   1.151 130.525  1.00  0.00     0.274 HD
ATOM     51  H62 UNL     1      86.133   2.389 129.604  1.00  0.00     0.274 HD
ATOM     52  H61 UNL     1      85.554   2.499 131.181  1.00  0.00     0.274 HD
ENDBRANCH  44  49
BRANCH  46  53
HETATM   53  N7  UNL     1      82.775   4.047 131.727  1.00  0.00    -0.072 N
ATOM     54  H73 UNL     1      82.177   3.639 132.446  1.00  0.00     0.274 HD
ATOM     55  H72 UNL     1      83.664   4.002 132.226  1.00  0.00     0.274 HD
ATOM     56  H71 UNL     1      82.508   5.007 131.511  1.00  0.00     0.274 HD
ENDBRANCH  46  53
BRANCH  47  57
HETATM   57  O8  UNL     1      83.008   5.158 129.192  1.00  0.00    -0.391 OA
ATOM     58  H8  UNL     1      82.917   5.156 128.247  1.00  0.00     0.210 HD
ENDBRANCH  47  57
BRANCH  48  59
HETATM   59  O9  UNL     1      84.902   3.762 127.553  1.00  0.00    -0.390 OA
ATOM     60  H9  UNL     1      84.876   3.485 126.644  1.00  0.00     0.210 HD
ENDBRANCH  48  59
ENDBRANCH  42  43
ENDBRANCH  41  42
ENDBRANCH   5  41
TORSDOF 19
ENDMDL