MODEL 4
REMARK VINA RESULT: -7.477093855      2.193      6.914
REMARK  21 active torsions:
REMARK  status: ('A' for Active; 'I' for Inactive)
REMARK    1  A    between atoms: N1_1  and  C1_5
REMARK    2  A    between atoms: C1_5  and  C2_6
REMARK    3  A    between atoms: C4_8  and  C5_9
REMARK    4  A    between atoms: C5_9  and  O1_10
REMARK    5  A    between atoms: C6_12  and  O2_13
REMARK    6  A    between atoms: C7_15  and  O3_16
REMARK    7  A    between atoms: O3_16  and  C8_17
REMARK    8  A    between atoms: C9_18  and  O4_19
REMARK    9  A    between atoms: O4_19  and  C10_20
REMARK   10  A    between atoms: C12_22  and  N2_23
REMARK   11  A    between atoms: C12_22  and  C13_27
REMARK   12  A    between atoms: C13_27  and  O5_28
REMARK   13  A    between atoms: C15_32  and  N3_33
REMARK   14  A    between atoms: C18_39  and  N4_40
REMARK   15  A    between atoms: C19_44  and  O7_45
REMARK   16  A    between atoms: O7_45  and  C20_46
REMARK   17  A    between atoms: C21_48  and  C22_49
REMARK   18  A    between atoms: C22_49  and  N5_50
REMARK   19  A    between atoms: C23_54  and  O9_55
REMARK   20  A    between atoms: C24_57  and  N6_58
REMARK   21  A    between atoms: C25_62  and  O10_63
ROOT
HETATM    1  C8  UNL     1      84.139   1.846 124.410  1.00  0.00     0.186 C
HETATM    2  C9  UNL     1      85.040   1.522 125.524  1.00  0.00     0.186 C
HETATM    3  C15 UNL     1      85.675   0.148 125.460  1.00  0.00     0.215 C
HETATM    4  C16 UNL     1      86.955   0.136 124.659  1.00  0.00     0.037 C
HETATM    5  C17 UNL     1      86.749   0.299 123.198  1.00  0.00     0.037 C
HETATM    6  C18 UNL     1      86.055   1.556 122.780  1.00  0.00     0.215 C
HETATM    7  C19 UNL     1      84.597   1.515 123.028  1.00  0.00     0.186 C
ENDROOT
BRANCH   7   8
HETATM    8  O7  UNL     1      84.096   0.317 122.522  1.00  0.00    -0.349 OA
BRANCH   8   9
HETATM    9  C20 UNL     1      84.452   0.038 121.228  1.00  0.00     0.291 C
HETATM   10  O8  UNL     1      83.482   0.507 120.347  1.00  0.00    -0.349 OA
HETATM   11  C21 UNL     1      82.310  -0.221 120.367  1.00  0.00     0.181 C
HETATM   12  C23 UNL     1      82.471  -1.614 120.865  1.00  0.00     0.182 C
HETATM   13  C24 UNL     1      83.765  -2.160 120.248  1.00  0.00     0.247 C
HETATM   14  C25 UNL     1      84.877  -1.361 120.943  1.00  0.00     0.206 C
BRANCH  11  15
HETATM   15  C22 UNL     1      81.804  -0.255 118.944  1.00  0.00     0.264 C
BRANCH  15  16
HETATM   16  N5  UNL     1      80.391  -0.428 118.822  1.00  0.00    -0.077 N
ATOM     17  H53 UNL     1      80.009   0.234 118.147  1.00  0.00     0.274 HD
ATOM     18  H52 UNL     1      80.180  -1.304 118.345  1.00  0.00     0.274 HD
ATOM     19  H51 UNL     1      79.880  -0.372 119.703  1.00  0.00     0.274 HD
ENDBRANCH  15  16
ENDBRANCH  11  15
BRANCH  12  20
HETATM   20  O9  UNL     1      81.377  -2.406 120.574  1.00  0.00    -0.391 OA
ATOM     21  H9  UNL     1      80.757  -1.969 120.002  1.00  0.00     0.210 HD
ENDBRANCH  12  20
BRANCH  13  22
HETATM   22  N6  UNL     1      83.930  -3.566 120.532  1.00  0.00    -0.070 N
ATOM     23  H63 UNL     1      84.892  -3.785 120.790  1.00  0.00     0.274 HD
ATOM     24  H62 UNL     1      83.470  -3.829 121.403  1.00  0.00     0.274 HD
ATOM     25  H61 UNL     1      83.612  -4.142 119.753  1.00  0.00     0.274 HD
ENDBRANCH  13  22
BRANCH  14  26
HETATM   26  O10 UNL     1      85.251  -2.111 122.035  1.00  0.00    -0.388 OA
ATOM     27  H10 UNL     1      85.220  -1.666 122.874  1.00  0.00     0.210 HD
ENDBRANCH  14  26
ENDBRANCH   8   9
ENDBRANCH   7   8
BRANCH   1  28
HETATM   28  O3  UNL     1      83.743   3.181 124.470  1.00  0.00    -0.348 OA
BRANCH  28  29
HETATM   29  C7  UNL     1      84.749   4.102 124.479  1.00  0.00     0.289 C
HETATM   30  C6  UNL     1      84.659   5.137 125.577  1.00  0.00     0.179 C
HETATM   31  C4  UNL     1      83.326   5.853 125.459  1.00  0.00     0.045 C
HETATM   32  C3  UNL     1      83.430   6.643 124.147  1.00  0.00     0.043 C
HETATM   33  C2  UNL     1      83.755   5.654 123.073  1.00  0.00     0.150 C
HETATM   34  O11 UNL     1      84.853   4.863 123.307  1.00  0.00    -0.352 OA
BRANCH  30  35
HETATM   35  O2  UNL     1      84.969   4.709 126.828  1.00  0.00    -0.390 OA
ATOM     36  H2  UNL     1      84.642   5.259 127.531  1.00  0.00     0.210 HD
ENDBRANCH  30  35
BRANCH  31  37
HETATM   37  C5  UNL     1      83.226   6.836 126.611  1.00  0.00     0.171 C
BRANCH  37  38
HETATM   38  O1  UNL     1      84.290   7.703 126.624  1.00  0.00    -0.400 OA
ATOM     39  H1  UNL     1      84.221   8.327 127.338  1.00  0.00     0.209 HD
ENDBRANCH  37  38
ENDBRANCH  31  37
BRANCH  33  40
HETATM   40  C1  UNL     1      84.069   6.465 121.811  1.00  0.00     0.261 C
BRANCH  40  41
HETATM   41  N1  UNL     1      84.368   5.515 120.762  1.00  0.00    -0.077 N
ATOM     42  H13 UNL     1      84.718   5.955 119.910  1.00  0.00     0.274 HD
ATOM     43  H12 UNL     1      85.189   4.944 120.960  1.00  0.00     0.274 HD
ATOM     44  H11 UNL     1      83.524   4.963 120.610  1.00  0.00     0.274 HD
ENDBRANCH  40  41
ENDBRANCH  33  40
ENDBRANCH  28  29
ENDBRANCH   1  28
BRANCH   6  45
HETATM   45  N4  UNL     1      86.708   2.753 123.263  1.00  0.00    -0.072 N
ATOM     46  H43 UNL     1      86.641   3.505 122.577  1.00  0.00     0.274 HD
ATOM     47  H42 UNL     1      86.179   3.174 124.025  1.00  0.00     0.274 HD
ATOM     48  H41 UNL     1      87.678   2.597 123.537  1.00  0.00     0.274 HD
ENDBRANCH   6  45
BRANCH   2  49
HETATM   49  O4  UNL     1      84.368   1.553 126.747  1.00  0.00    -0.351 OA
BRANCH  49  50
HETATM   50  C10 UNL     1      85.230   1.307 127.811  1.00  0.00     0.262 C
HETATM   51  C11 UNL     1      84.545   0.490 128.894  1.00  0.00     0.104 C
HETATM   52  C12 UNL     1      85.456   0.750 130.075  1.00  0.00     0.170 C
HETATM   53  C14 UNL     1      85.955   2.136 129.766  1.00  0.00     0.212 C
HETATM   54  O6  UNL     1      85.712   2.404 128.455  1.00  0.00    -0.359 OA
BRANCH  52  55
HETATM   55  N2  UNL     1      86.583  -0.137 130.126  1.00  0.00    -0.066 N
ATOM     56  H23 UNL     1      86.278  -1.106 130.221  1.00  0.00     0.275 HD
ATOM     57  H22 UNL     1      87.042  -0.193 129.217  1.00  0.00     0.275 HD
ATOM     58  H21 UNL     1      87.252   0.106 130.857  1.00  0.00     0.275 HD
ENDBRANCH  52  55
BRANCH  52  59
HETATM   59  C13 UNL     1      84.661   0.728 131.366  1.00  0.00     0.205 C
BRANCH  59  60
HETATM   60  O5  UNL     1      83.914   1.907 131.443  1.00  0.00    -0.398 OA
ATOM     61  H5  UNL     1      83.631   2.023 132.343  1.00  0.00     0.209 HD
ENDBRANCH  59  60
ENDBRANCH  52  59
ENDBRANCH  49  50
ENDBRANCH   2  49
BRANCH   3  62
HETATM   62  N3  UNL     1      84.773  -0.914 125.155  1.00  0.00    -0.072 N
ATOM     63  H33 UNL     1      85.191  -1.813 125.399  1.00  0.00     0.274 HD
ATOM     64  H32 UNL     1      83.984  -0.905 125.801  1.00  0.00     0.274 HD
ATOM     65  H31 UNL     1      84.441  -0.929 124.191  1.00  0.00     0.274 HD
ENDBRANCH   3  62
TORSDOF 21
ENDMDL