MODEL 3
REMARK VINA RESULT: -5.115501221      1.766      3.003
REMARK  5 active torsions:
REMARK  status: ('A' for Active; 'I' for Inactive)
REMARK    1  A    between atoms: C2_2  and  C3_3
REMARK    2  A    between atoms: C3_3  and  C6_6
REMARK    3  A    between atoms: C6_6  and  C7_7
REMARK    4  A    between atoms: C7_7  and  C8_8
REMARK    5  A    between atoms: C8_8  and  O2_10
ROOT
HETATM    1  C7  UNL     1     -32.905 -22.630 -34.671  1.00  0.00     0.052 C
HETATM    2  C10 UNL     1     -32.169 -23.079 -35.886  1.00  0.00     0.020 C
HETATM    3  C11 UNL     1     -33.013 -23.240 -37.119  1.00  0.00     0.001 C
HETATM    4  C12 UNL     1     -34.357 -23.858 -36.740  1.00  0.00     0.000 C
HETATM    5  C13 UNL     1     -35.079 -22.939 -35.825  1.00  0.00     0.001 C
HETATM    6  C14 UNL     1     -34.237 -22.048 -34.960  1.00  0.00     0.020 C
ENDROOT
BRANCH   1   7
HETATM    7  C6  UNL     1     -32.060 -21.798 -33.751  1.00  0.00     0.058 C
BRANCH   7   8
HETATM    8  C3  UNL     1     -32.142 -20.366 -33.790  1.00  0.00    -0.062 C
HETATM    9  C4  UNL     1     -32.838 -19.573 -33.047  1.00  0.00    -0.024 C
HETATM   10  C5  UNL     1     -32.761 -18.100 -33.241  1.00  0.00     0.036 C
BRANCH   8  11
HETATM   11  C2  UNL     1     -31.284 -19.706 -34.825  1.00  0.00    -0.004 C
HETATM   12  C1  UNL     1     -30.029 -20.035 -35.009  1.00  0.00     0.012 C
ENDBRANCH   8  11
ENDBRANCH   7   8
ENDBRANCH   1   7
BRANCH   1  13
HETATM   13  C8  UNL     1     -33.165 -23.892 -33.863  1.00  0.00     0.267 C
HETATM   14  O1  UNL     1     -33.979 -23.901 -32.946  1.00  0.00    -0.264 OA
BRANCH  13  15
HETATM   15  O2  UNL     1     -32.447 -25.013 -34.210  1.00  0.00    -0.326 OA
HETATM   16  C9  UNL     1     -32.997 -26.317 -34.211  1.00  0.00     0.213 C
ENDBRANCH  13  15
ENDBRANCH   1  13
TORSDOF 5
ENDMDL