MODEL 1
REMARK VINA RESULT: -5.102530123      0.000      0.000
REMARK  5 active torsions:
REMARK  status: ('A' for Active; 'I' for Inactive)
REMARK    1  A    between atoms: C2_2  and  O1_4
REMARK    2  A    between atoms: O1_4  and  C4_5
REMARK    3  A    between atoms: C4_5  and  C5_7
REMARK    4  A    between atoms: C5_7  and  O3_8
REMARK    5  A    between atoms: O3_8  and  C6_9
ROOT
HETATM    1  C5  UNL     1     -30.273 -25.963 -37.761  1.00  0.00     0.286 C
ENDROOT
BRANCH   1   2
HETATM    2  C4  UNL     1     -29.583 -26.087 -39.091  1.00  0.00     0.283 C
HETATM    3  O2  UNL     1     -29.129 -27.190 -39.489  1.00  0.00    -0.263 OA
BRANCH   2   4
HETATM    4  O1  UNL     1     -29.420 -24.995 -39.930  1.00  0.00    -0.315 OA
BRANCH   4   5
HETATM    5  C2  UNL     1     -28.129 -24.435 -40.087  1.00  0.00     0.123 C
HETATM    6  C1  UNL     1     -28.235 -23.472 -41.277  1.00  0.00     0.040 C
HETATM    7  C3  UNL     1     -27.642 -23.702 -38.887  1.00  0.00     0.040 C
ENDBRANCH   4   5
ENDBRANCH   2   4
ENDBRANCH   1   2
BRANCH   1   8
HETATM    8  O3  UNL     1     -30.951 -27.181 -37.521  1.00  0.00    -0.342 OA
BRANCH   8   9
HETATM    9  C6  UNL     1     -32.251 -27.116 -37.067  1.00  0.00     0.069 A
HETATM   10  C7  UNL     1     -33.171 -26.648 -37.882  1.00  0.00     0.036 A
HETATM   11  C8  UNL     1     -34.567 -26.562 -37.438  1.00  0.00     0.204 A
HETATM   12  O4  UNL     1     -34.836 -26.990 -36.154  1.00  0.00    -0.359 OA
HETATM   13  C9  UNL     1     -33.850 -27.476 -35.322  1.00  0.00     0.137 A
HETATM   14  C10 UNL     1     -32.610 -27.548 -35.727  1.00  0.00     0.060 A
ENDBRANCH   8   9
ENDBRANCH   1   8
TORSDOF 5
ENDMDL