MODEL 2
REMARK VINA RESULT: -5.503270393      1.657      2.255
REMARK  9 active torsions:
REMARK  status: ('A' for Active; 'I' for Inactive)
REMARK    1  A    between atoms: C2_2  and  C3_3
REMARK    2  A    between atoms: C3_3  and  C4_4
REMARK    3  A    between atoms: C4_4  and  C5_5
REMARK    4  A    between atoms: C5_5  and  C6_6
REMARK    5  A    between atoms: C6_6  and  C7_7
REMARK    6  A    between atoms: C7_7  and  C8_8
REMARK    7  A    between atoms: C8_8  and  O1_9
REMARK    8  A    between atoms: O1_9  and  C9_10
REMARK    9  A    between atoms: C14_15  and  O2_16
ROOT
HETATM    1  O1  UNL     1     -29.881 -20.001 -35.259  1.00  0.00    -0.348 OA
ENDROOT
BRANCH   1   2
HETATM    2  C8  UNL     1     -29.077 -21.069 -34.951  1.00  0.00     0.176 C
BRANCH   2   3
HETATM    3  C7  UNL     1     -28.743 -21.874 -36.182  1.00  0.00     0.027 C
BRANCH   3   4
HETATM    4  C6  UNL     1     -29.652 -23.102 -36.126  1.00  0.00     0.002 C
BRANCH   4   5
HETATM    5  C5  UNL     1     -29.209 -24.134 -37.155  1.00  0.00     0.000 C
BRANCH   5   6
HETATM    6  C4  UNL     1     -30.501 -24.690 -37.760  1.00  0.00     0.000 C
BRANCH   6   7
HETATM    7  C3  UNL     1     -30.150 -26.022 -38.379  1.00  0.00    -0.000 C
BRANCH   7   8
HETATM    8  C2  UNL     1     -31.021 -27.094 -37.723  1.00  0.00    -0.005 C
HETATM    9  C1  UNL     1     -32.457 -26.623 -37.837  1.00  0.00     0.005 C
ENDBRANCH   7   8
ENDBRANCH   6   7
ENDBRANCH   5   6
ENDBRANCH   4   5
ENDBRANCH   3   4
ENDBRANCH   2   3
ENDBRANCH   1   2
BRANCH   1  10
HETATM   10  C9  UNL     1     -30.862 -19.438 -34.491  1.00  0.00     0.101 A
HETATM   11  C10 UNL     1     -31.958 -20.080 -33.963  1.00  0.00     0.039 A
HETATM   12  C11 UNL     1     -32.922 -19.419 -33.188  1.00  0.00     0.003 A
HETATM   13  C12 UNL     1     -32.817 -18.077 -32.913  1.00  0.00     0.003 A
HETATM   14  C13 UNL     1     -31.726 -17.419 -33.432  1.00  0.00     0.039 A
HETATM   15  C14 UNL     1     -30.781 -18.058 -34.190  1.00  0.00     0.099 A
BRANCH  15  16
HETATM   16  O2  UNL     1     -29.674 -17.394 -34.718  1.00  0.00    -0.358 OA
ATOM     17  H2  UNL     1     -28.828 -17.755 -34.477  1.00  0.00     0.217 HD
ENDBRANCH  15  16
ENDBRANCH   1  10
TORSDOF 9
ENDMDL