MODEL 2
REMARK VINA RESULT: -5.292542033     11.887     14.415
REMARK  7 active torsions:
REMARK  status: ('A' for Active; 'I' for Inactive)
REMARK    1  A    between atoms: C2_2  and  C3_3
REMARK    2  A    between atoms: C3_3  and  C4_4
REMARK    3  A    between atoms: C4_4  and  C5_5
REMARK    4  A    between atoms: C5_5  and  O1_6
REMARK    5  A    between atoms: C5_5  and  C6_8
REMARK    6  A    between atoms: C6_8  and  O2_9
REMARK    7  A    between atoms: O2_9  and  C7_10
ROOT
HETATM    1  O2  UNL     1     -33.796 -19.649 -34.229  1.00  0.00    -0.349 OA
ENDROOT
BRANCH   1   2
HETATM    2  C6  UNL     1     -33.261 -18.873 -33.227  1.00  0.00     0.207 C
BRANCH   2   3
HETATM    3  C5  UNL     1     -32.339 -17.822 -33.766  1.00  0.00     0.142 C
BRANCH   3   4
HETATM    4  C4  UNL     1     -31.106 -17.568 -32.961  1.00  0.00     0.037 C
BRANCH   4   5
HETATM    5  C3  UNL     1     -29.862 -17.954 -33.686  1.00  0.00     0.029 C
BRANCH   5   6
HETATM    6  C2  UNL     1     -30.248 -18.812 -34.867  1.00  0.00    -0.037 C
HETATM    7  C1  UNL     1     -29.697 -19.980 -35.024  1.00  0.00     0.007 C
ENDBRANCH   5   6
ENDBRANCH   4   5
ENDBRANCH   3   4
BRANCH   3   8
HETATM    8  O1  UNL     1     -33.107 -16.608 -33.802  1.00  0.00    -0.393 OA
ATOM      9  H1  UNL     1     -32.706 -16.024 -34.435  1.00  0.00     0.210 HD
ENDBRANCH   3   8
ENDBRANCH   2   3
ENDBRANCH   1   2
BRANCH   1  10
HETATM   10  C7  UNL     1     -33.330 -20.866 -34.670  1.00  0.00     0.069 A
HETATM   11  C8  UNL     1     -32.548 -21.600 -33.803  1.00  0.00     0.043 A
HETATM   12  C9  UNL     1     -32.024 -22.832 -34.134  1.00  0.00    -0.059 A
HETATM   13  C10 UNL     1     -31.179 -23.588 -33.152  1.00  0.00     0.048 C
HETATM   14  C11 UNL     1     -32.308 -23.333 -35.389  1.00  0.00     0.013 A
HETATM   15  C12 UNL     1     -33.084 -22.643 -36.295  1.00  0.00    -0.059 A
HETATM   16  C13 UNL     1     -33.358 -23.231 -37.633  1.00  0.00     0.048 C
HETATM   17  C14 UNL     1     -33.586 -21.406 -35.911  1.00  0.00     0.043 A
ENDBRANCH   1  10
TORSDOF 7
ENDMDL