MODEL 3
REMARK VINA RESULT: -5.011043833      1.789      2.358
REMARK  8 active torsions:
REMARK  status: ('A' for Active; 'I' for Inactive)
REMARK    1  A    between atoms: C2_2  and  C3_3
REMARK    2  A    between atoms: C2_2  and  C5_7
REMARK    3  A    between atoms: C3_3  and  C4_4
REMARK    4  A    between atoms: C4_4  and  O1_5
REMARK    5  A    between atoms: C5_7  and  C6_8
REMARK    6  A    between atoms: C6_8  and  C7_9
REMARK    7  A    between atoms: C7_9  and  O2_10
REMARK    8  A    between atoms: O2_10  and  C8_11
ROOT
HETATM    1  C6  UNL     1     -29.730 -20.260 -34.586  1.00  0.00     0.031 C
ENDROOT
BRANCH   1   2
HETATM    2  C5  UNL     1     -31.117 -19.743 -34.937  1.00  0.00     0.035 C
BRANCH   2   3
HETATM    3  C2  UNL     1     -32.128 -20.060 -33.903  1.00  0.00    -0.087 C
HETATM    4  C1  UNL     1     -32.294 -21.329 -33.531  1.00  0.00     0.014 C
BRANCH   3   5
HETATM    5  C3  UNL     1     -32.949 -19.017 -33.259  1.00  0.00     0.059 C
BRANCH   5   6
HETATM    6  C4  UNL     1     -32.336 -17.656 -33.216  1.00  0.00     0.168 C
BRANCH   6   7
HETATM    7  O1  UNL     1     -33.175 -16.718 -33.756  1.00  0.00    -0.401 OA
ATOM      8  H1  UNL     1     -32.775 -16.288 -34.502  1.00  0.00     0.209 HD
ENDBRANCH   6   7
ENDBRANCH   5   6
ENDBRANCH   3   5
ENDBRANCH   2   3
ENDBRANCH   1   2
BRANCH   1   9
HETATM    9  C7  UNL     1     -29.239 -21.140 -35.697  1.00  0.00     0.176 C
BRANCH   9  10
HETATM   10  O2  UNL     1     -29.182 -22.488 -35.410  1.00  0.00    -0.351 OA
BRANCH  10  11
HETATM   11  C8  UNL     1     -29.530 -23.567 -36.181  1.00  0.00     0.068 A
HETATM   12  C9  UNL     1     -30.756 -24.185 -36.186  1.00  0.00     0.037 A
HETATM   13  C10 UNL     1     -31.022 -25.282 -37.013  1.00  0.00     0.003 A
HETATM   14  C11 UNL     1     -30.070 -25.795 -37.860  1.00  0.00     0.000 A
HETATM   15  C12 UNL     1     -28.837 -25.186 -37.863  1.00  0.00     0.003 A
HETATM   16  C13 UNL     1     -28.569 -24.114 -37.060  1.00  0.00     0.037 A
ENDBRANCH  10  11
ENDBRANCH   9  10
ENDBRANCH   1   9
TORSDOF 8
ENDMDL