MODEL 3
REMARK VINA RESULT: -5.681920954      0.832      2.181
REMARK  7 active torsions:
REMARK  status: ('A' for Active; 'I' for Inactive)
REMARK    1  A    between atoms: C2_2  and  C3_3
REMARK    2  A    between atoms: C3_3  and  C4_4
REMARK    3  A    between atoms: C4_4  and  O1_5
REMARK    4  A    between atoms: C4_4  and  C5_7
REMARK    5  A    between atoms: C5_7  and  O2_8
REMARK    6  A    between atoms: O2_8  and  C6_9
REMARK    7  A    between atoms: C6_9  and  C7_10
ROOT
HETATM    1  C6  UNL     1     -28.207 -23.246 -37.156  1.00  0.00     0.206 C
ENDROOT
BRANCH   1   2
HETATM    2  O2  UNL     1     -28.527 -24.550 -37.402  1.00  0.00    -0.384 OA
BRANCH   2   3
HETATM    3  C5  UNL     1     -27.539 -25.263 -37.990  1.00  0.00     0.199 C
BRANCH   3   4
HETATM    4  C4  UNL     1     -27.716 -25.440 -39.489  1.00  0.00     0.142 C
BRANCH   4   5
HETATM    5  C3  UNL     1     -29.168 -25.243 -39.858  1.00  0.00     0.033 C
BRANCH   5   6
HETATM    6  C2  UNL     1     -29.337 -24.284 -40.973  1.00  0.00    -0.002 C
HETATM    7  C1  UNL     1     -28.126 -23.445 -41.157  1.00  0.00     0.005 C
ENDBRANCH   5   6
ENDBRANCH   4   5
BRANCH   4   8
HETATM    8  O1  UNL     1     -27.241 -26.721 -39.841  1.00  0.00    -0.393 OA
ATOM      9  H1  UNL     1     -26.470 -26.970 -39.346  1.00  0.00     0.210 HD
ENDBRANCH   4   8
ENDBRANCH   3   4
ENDBRANCH   2   3
ENDBRANCH   1   2
BRANCH   1  10
HETATM   10  C7  UNL     1     -29.147 -22.699 -36.140  1.00  0.00    -0.034 A
HETATM   11  C8  UNL     1     -29.974 -23.524 -35.425  1.00  0.00     0.016 A
HETATM   12  C9  UNL     1     -30.839 -22.988 -34.487  1.00  0.00    -0.061 A
HETATM   13  C10 UNL     1     -31.721 -23.916 -33.732  1.00  0.00     0.048 C
HETATM   14  C11 UNL     1     -30.852 -21.614 -34.286  1.00  0.00     0.013 A
HETATM   15  C12 UNL     1     -30.026 -20.772 -34.996  1.00  0.00    -0.061 A
HETATM   16  C13 UNL     1     -30.011 -19.297 -34.809  1.00  0.00     0.048 C
HETATM   17  C14 UNL     1     -29.169 -21.315 -35.928  1.00  0.00     0.016 A
ENDBRANCH   1  10
TORSDOF 7
ENDMDL