MODEL 2
REMARK VINA RESULT: -5.442880661      1.132      2.015
REMARK  9 active torsions:
REMARK  status: ('A' for Active; 'I' for Inactive)
REMARK    1  A    between atoms: C2_2  and  C3_3
REMARK    2  A    between atoms: C3_3  and  C4_4
REMARK    3  A    between atoms: C4_4  and  O1_5
REMARK    4  A    between atoms: O1_5  and  C5_6
REMARK    5  A    between atoms: C5_6  and  C6_7
REMARK    6  A    between atoms: C10_11  and  C11_12
REMARK    7  A    between atoms: C11_12  and  C12_13
REMARK    8  A    between atoms: C12_13  and  C13_14
REMARK    9  A    between atoms: C13_14  and  O2_15
ROOT
HETATM    1  C6  UNL     1     -30.950 -22.384 -34.434  1.00  0.00    -0.034 A
HETATM    2  C7  UNL     1     -29.871 -22.018 -35.214  1.00  0.00     0.009 A
HETATM    3  C8  UNL     1     -29.589 -20.672 -35.465  1.00  0.00     0.001 A
HETATM    4  C9  UNL     1     -30.365 -19.675 -34.950  1.00  0.00     0.007 A
HETATM    5  C10 UNL     1     -31.446 -20.023 -34.168  1.00  0.00    -0.058 A
HETATM    6  C14 UNL     1     -31.716 -21.356 -33.926  1.00  0.00     0.016 A
ENDROOT
BRANCH   1   7
HETATM    7  C5  UNL     1     -31.244 -23.815 -34.171  1.00  0.00     0.206 C
BRANCH   7   8
HETATM    8  O1  UNL     1     -30.795 -24.653 -35.171  1.00  0.00    -0.387 OA
BRANCH   8   9
HETATM    9  C4  UNL     1     -31.873 -24.953 -35.990  1.00  0.00     0.168 C
BRANCH   9  10
HETATM   10  C3  UNL     1     -31.564 -24.590 -37.451  1.00  0.00     0.026 C
BRANCH  10  11
HETATM   11  C2  UNL     1     -30.366 -25.332 -37.952  1.00  0.00    -0.002 C
HETATM   12  C1  UNL     1     -30.595 -26.817 -38.049  1.00  0.00     0.005 C
ENDBRANCH  10  11
ENDBRANCH   9  10
ENDBRANCH   8   9
ENDBRANCH   7   8
ENDBRANCH   1   7
BRANCH   5  13
HETATM   13  C11 UNL     1     -32.294 -18.951 -33.603  1.00  0.00     0.041 C
BRANCH  13  14
HETATM   14  C12 UNL     1     -31.500 -17.809 -33.015  1.00  0.00     0.030 C
BRANCH  14  15
HETATM   15  C13 UNL     1     -32.014 -16.460 -33.434  1.00  0.00     0.164 C
BRANCH  15  16
HETATM   16  O2  UNL     1     -33.303 -16.633 -33.987  1.00  0.00    -0.401 OA
ATOM     17  H2  UNL     1     -33.799 -17.201 -33.410  1.00  0.00     0.209 HD
ENDBRANCH  15  16
ENDBRANCH  14  15
ENDBRANCH  13  14
ENDBRANCH   5  13
TORSDOF 9
ENDMDL