MODEL 1
REMARK VINA RESULT: -5.665971549      0.000      0.000
REMARK  7 active torsions:
REMARK  status: ('A' for Active; 'I' for Inactive)
REMARK    1  A    between atoms: C2_2  and  C3_3
REMARK    2  A    between atoms: C3_3  and  C4_4
REMARK    3  A    between atoms: C4_4  and  O1_5
REMARK    4  A    between atoms: O1_5  and  C5_6
REMARK    5  A    between atoms: C8_9  and  C9_10
REMARK    6  A    between atoms: C9_10  and  C11_12
REMARK    7  A    between atoms: C11_12  and  O2_14
ROOT
HETATM    1  C5  UNL     1     -32.028 -22.990 -35.957  1.00  0.00     0.121 C
HETATM    2  C6  UNL     1     -31.150 -24.118 -35.458  1.00  0.00     0.032 C
HETATM    3  C7  UNL     1     -29.946 -24.116 -36.407  1.00  0.00     0.007 C
HETATM    4  C8  UNL     1     -30.428 -24.442 -37.799  1.00  0.00    -0.008 C
HETATM    5  C13 UNL     1     -31.898 -24.458 -37.957  1.00  0.00     0.007 C
HETATM    6  C14 UNL     1     -32.683 -23.445 -37.211  1.00  0.00     0.032 C
ENDROOT
BRANCH   4   7
HETATM    7  C9  UNL     1     -29.827 -25.783 -38.148  1.00  0.00     0.014 C
HETATM    8  C10 UNL     1     -30.790 -26.925 -37.910  1.00  0.00     0.013 C
BRANCH   7   9
HETATM    9  C11 UNL     1     -29.195 -25.851 -39.497  1.00  0.00     0.118 C
HETATM   10  C12 UNL     1     -27.846 -25.123 -39.389  1.00  0.00     0.040 C
BRANCH   9  11
HETATM   11  O2  UNL     1     -28.847 -27.162 -39.858  1.00  0.00    -0.396 OA
ATOM     12  H2  UNL     1     -28.176 -27.185 -40.530  1.00  0.00     0.210 HD
ENDBRANCH   9  11
ENDBRANCH   7   9
ENDBRANCH   4   7
BRANCH   1  13
HETATM   13  O1  UNL     1     -32.908 -22.540 -34.990  1.00  0.00    -0.386 OA
BRANCH  13  14
HETATM   14  C4  UNL     1     -32.299 -22.264 -33.774  1.00  0.00     0.168 C
BRANCH  14  15
HETATM   15  C3  UNL     1     -31.826 -20.807 -33.855  1.00  0.00     0.026 C
BRANCH  15  16
HETATM   16  C2  UNL     1     -33.118 -19.976 -33.910  1.00  0.00    -0.002 C
HETATM   17  C1  UNL     1     -32.954 -18.781 -33.036  1.00  0.00     0.005 C
ENDBRANCH  15  16
ENDBRANCH  14  15
ENDBRANCH  13  14
ENDBRANCH   1  13
TORSDOF 7
ENDMDL