MODEL 5
REMARK VINA RESULT: -5.368504183      1.969      6.225
REMARK  6 active torsions:
REMARK  status: ('A' for Active; 'I' for Inactive)
REMARK    1  A    between atoms: C2_2  and  C3_3
REMARK    2  A    between atoms: C3_3  and  O1_4
REMARK    3  A    between atoms: O1_4  and  C4_5
REMARK    4  A    between atoms: C4_5  and  C5_6
REMARK    5  A    between atoms: C5_6  and  O2_7
REMARK    6  A    between atoms: O2_7  and  C6_8
ROOT
HETATM    1  C6  UNL     1     -29.311 -23.960 -36.611  1.00  0.00     0.075 A
HETATM    2  C7  UNL     1     -28.392 -24.312 -37.573  1.00  0.00     0.044 A
HETATM    3  C8  UNL     1     -28.595 -25.330 -38.506  1.00  0.00    -0.059 A
HETATM    4  C9  UNL     1     -27.567 -25.668 -39.523  1.00  0.00     0.048 C
HETATM    5  C10 UNL     1     -29.797 -25.997 -38.429  1.00  0.00     0.014 A
HETATM    6  C11 UNL     1     -30.723 -25.650 -37.469  1.00  0.00    -0.053 A
HETATM    7  C12 UNL     1     -32.003 -26.402 -37.430  1.00  0.00     0.049 C
HETATM    8  C13 UNL     1     -30.535 -24.657 -36.551  1.00  0.00    -0.023 A
HETATM    9  C14 UNL     1     -31.533 -24.289 -35.523  1.00  0.00     0.052 C
ENDROOT
BRANCH   1  10
HETATM   10  O2  UNL     1     -29.116 -22.973 -35.708  1.00  0.00    -0.348 OA
BRANCH  10  11
HETATM   11  C5  UNL     1     -28.884 -21.618 -35.777  1.00  0.00     0.201 C
BRANCH  11  12
HETATM   12  C4  UNL     1     -30.098 -20.840 -35.378  1.00  0.00     0.194 C
BRANCH  12  13
HETATM   13  O1  UNL     1     -29.886 -19.496 -35.235  1.00  0.00    -0.389 OA
BRANCH  13  14
HETATM   14  C3  UNL     1     -30.851 -18.767 -34.611  1.00  0.00     0.167 C
BRANCH  14  15
HETATM   15  C2  UNL     1     -31.911 -19.529 -33.891  1.00  0.00     0.022 C
HETATM   16  C1  UNL     1     -32.837 -18.641 -33.092  1.00  0.00     0.007 C
ENDBRANCH  14  15
ENDBRANCH  13  14
ENDBRANCH  12  13
ENDBRANCH  11  12
ENDBRANCH  10  11
ENDBRANCH   1  10
TORSDOF 6
ENDMDL