MODEL 3
REMARK VINA RESULT: -4.837475051      1.568      4.158
REMARK  2 active torsions:
REMARK  status: ('A' for Active; 'I' for Inactive)
REMARK    1  A    between atoms: O1_1  and  C1_3
REMARK    2  A    between atoms: C1_3  and  C2_4
ROOT
HETATM    1  C1  UNL     1       6.045  -4.941  33.073  1.00  0.00     0.086 C
HETATM    2  C6  UNL     1       6.989  -5.047  34.241  1.00  0.00     0.040 C
HETATM    3  C7  UNL     1       8.381  -4.683  33.925  1.00  0.00     0.003 C
HETATM    4  C8  UNL     1       8.562  -3.521  33.001  1.00  0.00     0.000 C
HETATM    5  C9  UNL     1       7.564  -3.492  31.873  1.00  0.00     0.003 C
HETATM    6  C10 UNL     1       6.183  -3.541  32.506  1.00  0.00     0.040 C
ENDROOT
BRANCH   1   7
HETATM    7  O1  UNL     1       6.466  -5.819  32.075  1.00  0.00    -0.388 OA
ATOM      8  H1  UNL     1       5.940  -5.720  31.291  1.00  0.00     0.210 HD
ENDBRANCH   1   7
BRANCH   1   9
HETATM    9  C2  UNL     1       4.627  -5.176  33.421  1.00  0.00     0.220 C
HETATM   10  C3  UNL     1       3.797  -3.957  33.609  1.00  0.00     0.038 C
HETATM   11  C4  UNL     1       3.540  -3.839  35.078  1.00  0.00     0.030 C
HETATM   12  C5  UNL     1       4.207  -5.029  35.704  1.00  0.00     0.233 C
HETATM   13  N1  UNL     1       4.566  -5.934  34.653  1.00  0.00    -0.068 N
ATOM     14  H12 UNL     1       3.941  -6.739  34.593  1.00  0.00     0.277 HD
ATOM     15  H11 UNL     1       5.427  -6.446  34.846  1.00  0.00     0.277 HD
ENDBRANCH   1   9
TORSDOF 2
ENDMDL