MODEL 4
REMARK VINA RESULT: -4.992846235      6.711      8.374
REMARK  2 active torsions:
REMARK  status: ('A' for Active; 'I' for Inactive)
REMARK    1  A    between atoms: C2_2  and  C3_3
REMARK    2  A    between atoms: C3_3  and  O1_4
ROOT
HETATM    1  C3  UNL     1       6.437  -4.521  33.251  1.00  0.00     0.106 C
HETATM    2  C4  UNL     1       5.851  -5.391  34.289  1.00  0.00     0.048 C
HETATM    3  C5  UNL     1       4.406  -5.666  34.251  1.00  0.00     0.004 C
HETATM    4  C6  UNL     1       3.694  -4.699  35.170  1.00  0.00     0.000 C
HETATM    5  C7  UNL     1       2.375  -4.243  34.636  1.00  0.00     0.002 C
HETATM    6  C8  UNL     1       2.357  -2.826  34.160  1.00  0.00     0.020 C
HETATM    7  C9  UNL     1       3.673  -2.293  33.725  1.00  0.00     0.119 C
HETATM    8  N1  UNL     1       4.386  -3.203  32.868  1.00  0.00    -0.399 N
ATOM      9  H1  UNL     1       3.907  -3.808  32.201  1.00  0.00     0.158 HD
HETATM   10  C10 UNL     1       5.781  -3.206  33.009  1.00  0.00     0.097 C
ENDROOT
BRANCH   1  11
HETATM   11  C2  UNL     1       6.651  -5.263  31.995  1.00  0.00     0.006 C
HETATM   12  C1  UNL     1       7.077  -4.638  30.927  1.00  0.00     0.010 C
ENDBRANCH   1  11
BRANCH   1  13
HETATM   13  O1  UNL     1       7.744  -4.191  33.707  1.00  0.00    -0.380 OA
ATOM     14  H1  UNL     1       8.154  -3.751  32.972  1.00  0.00     0.211 HD
ENDBRANCH   1  13
TORSDOF 2
ENDMDL