MODEL 5
REMARK VINA RESULT: -5.641365161      2.726      4.003
REMARK  1 active torsions:
REMARK  status: ('A' for Active; 'I' for Inactive)
REMARK    1  A    between atoms: C4_7  and  C5_8
ROOT
HETATM    1  N1  UNL     1       6.967  -5.898  29.457  1.00  0.00    -0.406 N
ATOM      2  H11 UNL     1       6.779  -6.885  29.631  1.00  0.00     0.155 HD
ATOM      3  H12 UNL     1       6.803  -5.402  30.334  1.00  0.00     0.155 HD
HETATM    4  C1  UNL     1       7.334  -5.384  28.365  1.00  0.00    -0.020 C
HETATM    5  C2  UNL     1       7.606  -3.958  28.115  1.00  0.00     0.052 C
HETATM    6  C3  UNL     1       8.662  -3.975  27.054  1.00  0.00     0.011 C
HETATM    7  C4  UNL     1       8.784  -5.395  26.550  1.00  0.00    -0.005 C
HETATM    8  C10 UNL     1       7.571  -6.100  27.097  1.00  0.00     0.057 C
ENDROOT
BRANCH   7   9
HETATM    9  C5  UNL     1       8.860  -5.372  25.065  1.00  0.00    -0.007 C
HETATM   10  C6  UNL     1       7.538  -5.903  24.531  1.00  0.00     0.032 C
HETATM   11  C7  UNL     1       7.694  -5.975  23.019  1.00  0.00     0.232 C
HETATM   12  N2  UNL     1       7.772  -4.619  22.540  1.00  0.00    -0.075 N
HETATM   13  C8  UNL     1       8.871  -3.876  23.054  1.00  0.00     0.232 C
ATOM     14  H22 UNL     1       7.777  -4.602  21.520  1.00  0.00     0.277 HD
ATOM     15  H21 UNL     1       6.896  -4.127  22.719  1.00  0.00     0.277 HD
HETATM   16  C9  UNL     1       9.110  -3.994  24.511  1.00  0.00     0.032 C
ENDBRANCH   7   9
TORSDOF 1
ENDMDL