MODEL 2
REMARK VINA RESULT: -4.208325261      4.555      5.746
REMARK  2 active torsions:
REMARK  status: ('A' for Active; 'I' for Inactive)
REMARK    1  A    between atoms: O1_1  and  C1_3
REMARK    2  A    between atoms: C6_8  and  C7_9
ROOT
HETATM    1  C1  UNL     1       3.242  -2.524  33.483  1.00  0.00     0.128 C
HETATM    2  C2  UNL     1       4.465  -3.362  33.080  1.00  0.00     0.037 C
HETATM    3  C3  UNL     1       4.315  -4.641  33.837  1.00  0.00    -0.011 C
HETATM    4  C4  UNL     1       4.502  -4.310  35.319  1.00  0.00     0.005 C
HETATM    5  C5  UNL     1       3.240  -3.517  35.704  1.00  0.00     0.013 C
HETATM    6  C6  UNL     1       2.486  -3.418  34.402  1.00  0.00    -0.005 C
HETATM    7  C8  UNL     1       2.797  -4.809  33.824  1.00  0.00     0.017 C
ENDROOT
BRANCH   1   8
HETATM    8  O1  UNL     1       3.655  -1.393  34.220  1.00  0.00    -0.395 OA
ATOM      9  H1  UNL     1       3.006  -0.703  34.146  1.00  0.00     0.210 HD
ENDBRANCH   1   8
BRANCH   6  10
HETATM   10  C7  UNL     1       1.041  -3.185  34.522  1.00  0.00     0.098 C
HETATM   11  S1  UNL     1       0.169  -4.736  34.114  1.00  0.00    -0.097 SA
ENDBRANCH   6  10
TORSDOF 2
ENDMDL