MODEL 1
REMARK VINA RESULT: -4.543939411      0.000      0.000
REMARK  1 active torsions:
REMARK  status: ('A' for Active; 'I' for Inactive)
REMARK    1  A    between atoms: C4_5  and  C5_6
ROOT
HETATM    1  C1  UNL     1       9.278  -5.214  22.886  1.00  0.00     0.020 C
HETATM    2  C2  UNL     1       7.963  -5.860  22.473  1.00  0.00     0.012 C
HETATM    3  C3  UNL     1       7.598  -6.899  23.527  1.00  0.00     0.076 C
HETATM    4  S1  UNL     1       8.418  -6.510  25.080  1.00  0.00    -0.144 SA
HETATM    5  C4  UNL     1       8.235  -4.816  25.597  1.00  0.00     0.143 C
HETATM    6  N1  UNL     1       9.102  -3.890  24.951  1.00  0.00    -0.408 N
ATOM      7  H1  UNL     1       9.734  -3.278  25.467  1.00  0.00     0.154 HD
HETATM    8  C8  UNL     1       9.019  -3.885  23.519  1.00  0.00     0.115 C
ENDROOT
BRANCH   5   9
HETATM    9  C5  UNL     1       8.592  -4.748  27.095  1.00  0.00     0.018 A
HETATM   10  C6  UNL     1       7.399  -4.625  28.055  1.00  0.00     0.008 A
HETATM   11  C7  UNL     1       8.358  -3.466  27.807  1.00  0.00     0.008 A
ENDBRANCH   5   9
TORSDOF 1
ENDMDL