MODEL 3
REMARK VINA RESULT: -5.120518818      2.745      3.987
REMARK  0 active torsions:
REMARK  status: ('A' for Active; 'I' for Inactive)
ROOT
HETATM    1  N1  UNL     1       8.159  -2.554  29.355  1.00  0.00    -0.365 N
ATOM      2  H11 UNL     1       7.697  -2.493  30.263  1.00  0.00     0.159 HD
ATOM      3  H12 UNL     1       8.717  -1.711  29.222  1.00  0.00     0.159 HD
HETATM    4  C1  UNL     1       8.055  -3.530  28.517  1.00  0.00     0.213 C
HETATM    5  N2  UNL     1       8.704  -3.617  27.238  1.00  0.00    -0.349 N
ATOM      6  H2  UNL     1       9.239  -2.888  26.764  1.00  0.00     0.163 HD
HETATM    7  C2  UNL     1       8.439  -4.946  26.768  1.00  0.00     0.114 C
HETATM    8  C3  UNL     1       8.380  -5.091  25.294  1.00  0.00     0.028 C
HETATM    9  C4  UNL     1       8.688  -6.492  24.850  1.00  0.00     0.002 C
HETATM   10  C5  UNL     1       7.627  -7.484  25.104  1.00  0.00     0.000 C
HETATM   11  C6  UNL     1       6.478  -7.015  25.930  1.00  0.00     0.002 C
HETATM   12  C7  UNL     1       6.866  -6.686  27.362  1.00  0.00     0.035 C
HETATM   13  C8  UNL     1       7.078  -5.215  27.428  1.00  0.00     0.154 C
HETATM   14  O1  UNL     1       7.283  -4.694  28.700  1.00  0.00    -0.315 OA
ENDROOT
TORSDOF 0
ENDMDL