MODEL 1
REMARK VINA RESULT: -4.731309212      0.000      0.000
REMARK  2 active torsions:
REMARK  status: ('A' for Active; 'I' for Inactive)
REMARK    1  A    between atoms: C1_2  and  C2_3
REMARK    2  A    between atoms: C2_3  and  N1_4
ROOT
HETATM    1  N1  UNL     1       5.667  -3.444  32.751  1.00  0.00    -0.379 N
ATOM      2  H1  UNL     1       5.977  -2.520  32.452  1.00  0.00     0.160 HD
HETATM    3  C3  UNL     1       4.474  -3.584  33.217  1.00  0.00     0.072 C
HETATM    4  C4  UNL     1       3.690  -2.373  33.260  1.00  0.00     0.076 C
HETATM    5  C5  UNL     1       2.594  -2.311  34.246  1.00  0.00     0.007 C
HETATM    6  C6  UNL     1       2.887  -3.288  35.353  1.00  0.00     0.002 C
HETATM    7  C7  UNL     1       2.104  -4.549  34.997  1.00  0.00     0.020 C
HETATM    8  C8  UNL     1       3.008  -5.474  34.285  1.00  0.00     0.121 C
HETATM    9  N2  UNL     1       4.125  -4.886  33.606  1.00  0.00    -0.380 N
ATOM     10  H2  UNL     1       4.832  -5.575  33.346  1.00  0.00     0.160 HD
ENDROOT
BRANCH   1  11
HETATM   11  C2  UNL     1       6.583  -4.565  32.641  1.00  0.00     0.132 C
BRANCH  11  12
HETATM   12  C1  UNL     1       7.992  -3.993  32.804  1.00  0.00     0.105 C
HETATM   13  S1  UNL     1       7.973  -2.239  32.357  1.00  0.00    -0.096 SA
ENDBRANCH  11  12
ENDBRANCH   1  11
TORSDOF 2
ENDMDL