MODEL 2
REMARK VINA RESULT: -5.415984205      1.359      4.879
REMARK  1 active torsions:
REMARK  status: ('A' for Active; 'I' for Inactive)
REMARK    1  A    between atoms: C5_5  and  C6_6
ROOT
HETATM    1  C1  UNL     1       9.315  -5.280  26.377  1.00  0.00     0.031 C
HETATM    2  C2  UNL     1       8.005  -4.603  26.692  1.00  0.00     0.072 C
HETATM    3  C3  UNL     1       7.154  -5.538  27.490  1.00  0.00     0.025 C
HETATM    4  C4  UNL     1       7.327  -5.422  28.967  1.00  0.00     0.010 C
HETATM    5  C5  UNL     1       7.256  -3.951  29.325  1.00  0.00     0.034 C
HETATM    6  C10 UNL     1       8.456  -3.304  28.680  1.00  0.00     0.120 C
HETATM    7  N2  UNL     1       8.208  -3.320  27.250  1.00  0.00    -0.417 N
ATOM      8  H2  UNL     1       8.181  -2.469  26.690  1.00  0.00     0.153 HD
ENDROOT
BRANCH   5   9
HETATM    9  C6  UNL     1       7.148  -3.705  30.785  1.00  0.00     0.191 C
HETATM   10  C7  UNL     1       7.067  -4.910  31.654  1.00  0.00     0.035 C
HETATM   11  C8  UNL     1       7.769  -4.415  32.925  1.00  0.00     0.029 C
HETATM   12  C9  UNL     1       8.012  -2.918  32.685  1.00  0.00     0.233 C
HETATM   13  N1  UNL     1       8.300  -2.949  31.238  1.00  0.00    -0.070 N
ATOM     14  H12 UNL     1       9.213  -3.316  30.969  1.00  0.00     0.277 HD
ATOM     15  H11 UNL     1       8.447  -2.044  30.790  1.00  0.00     0.277 HD
ENDBRANCH   5   9
TORSDOF 1
ENDMDL