MODEL 4
REMARK VINA RESULT: -4.655994124      3.035      5.110
REMARK  2 active torsions:
REMARK  status: ('A' for Active; 'I' for Inactive)
REMARK    1  A    between atoms: O1_1  and  C1_3
REMARK    2  A    between atoms: C1_3  and  C2_4
ROOT
HETATM    1  C2  UNL     1       4.986  -5.080  33.912  1.00  0.00     0.210 C
HETATM    2  C3  UNL     1       4.858  -5.054  35.436  1.00  0.00     0.037 C
HETATM    3  C4  UNL     1       3.694  -4.088  35.690  1.00  0.00     0.041 C
HETATM    4  C5  UNL     1       2.964  -4.198  34.349  1.00  0.00     0.126 C
HETATM    5  C6  UNL     1       2.290  -5.527  34.243  1.00  0.00     0.039 C
HETATM    6  C7  UNL     1       0.831  -5.197  34.007  1.00  0.00     0.002 C
HETATM    7  C8  UNL     1       0.680  -3.863  34.712  1.00  0.00     0.002 C
HETATM    8  C9  UNL     1       1.924  -3.132  34.193  1.00  0.00     0.039 C
HETATM    9  N1  UNL     1       4.067  -4.068  33.423  1.00  0.00    -0.060 N
ATOM     10  H11 UNL     1       3.817  -4.149  32.437  1.00  0.00     0.278 HD
ATOM     11  H12 UNL     1       4.458  -3.129  33.345  1.00  0.00     0.278 HD
ENDROOT
BRANCH   1  12
HETATM   12  C1  UNL     1       6.429  -4.707  33.565  1.00  0.00     0.197 C
BRANCH  12  13
HETATM   13  O1  UNL     1       7.286  -5.098  34.573  1.00  0.00    -0.399 OA
ATOM     14  H1  UNL     1       8.146  -5.294  34.221  1.00  0.00     0.209 HD
ENDBRANCH  12  13
ENDBRANCH   1  12
TORSDOF 2
ENDMDL