MODEL 1
REMARK VINA RESULT: -5.382027585      0.000      0.000
REMARK  2 active torsions:
REMARK  status: ('A' for Active; 'I' for Inactive)
REMARK    1  A    between atoms: C4_4  and  N1_5
REMARK    2  A    between atoms: N1_5  and  C5_7
ROOT
HETATM    1  N1  UNL     1       9.447  -3.998  25.186  1.00  0.00    -0.358 N
ATOM      2  H1  UNL     1      10.321  -3.715  25.631  1.00  0.00     0.163 HD
ENDROOT
BRANCH   1   3
HETATM    3  C4  UNL     1       8.317  -4.377  26.001  1.00  0.00     0.084 C
HETATM    4  C3  UNL     1       8.492  -3.851  27.413  1.00  0.00     0.025 C
HETATM    5  C2  UNL     1       7.275  -4.331  28.204  1.00  0.00     0.002 C
HETATM    6  C1  UNL     1       7.373  -5.827  28.294  1.00  0.00     0.000 C
HETATM    7  C9  UNL     1       7.115  -6.382  26.905  1.00  0.00     0.002 C
HETATM    8  C8  UNL     1       8.143  -5.855  25.935  1.00  0.00     0.025 C
ENDBRANCH   1   3
BRANCH   1   9
HETATM    9  C5  UNL     1       9.347  -4.016  23.734  1.00  0.00     0.171 C
HETATM   10  N2  UNL     1      10.190  -4.526  22.924  1.00  0.00    -0.361 N
HETATM   11  C6  UNL     1       9.827  -4.395  21.546  1.00  0.00     0.142 C
ATOM     12  H2  UNL     1      11.047  -4.986  23.231  1.00  0.00     0.162 HD
HETATM   13  C7  UNL     1       8.742  -3.315  21.600  1.00  0.00     0.142 C
HETATM   14  N3  UNL     1       8.284  -3.468  22.972  1.00  0.00    -0.361 N
ATOM     15  H3  UNL     1       7.359  -3.222  23.325  1.00  0.00     0.162 HD
ENDBRANCH   1   9
TORSDOF 2
ENDMDL