MODEL 2
REMARK VINA RESULT: -5.828041227      1.448      4.802
REMARK  1 active torsions:
REMARK  status: ('A' for Active; 'I' for Inactive)
REMARK    1  A    between atoms: N1_1  and  C1_4
ROOT
HETATM    1  C1  UNL     1     -57.787   8.422   8.071  1.00  0.00     0.694 A
HETATM    2  N2  UNL     1     -56.536   8.251   7.567  1.00  0.00    -0.152 N
ATOM      3  H2  UNL     1     -55.965   7.454   7.851  1.00  0.00     0.188 HD
HETATM    4  C2  UNL     1     -56.068   9.149   6.691  1.00  0.00     0.306 A
HETATM    5  O1  UNL     1     -54.910   9.042   6.189  1.00  0.00    -0.263 OA
HETATM    6  C3  UNL     1     -56.890  10.202   6.348  1.00  0.00     0.205 A
HETATM    7  N3  UNL     1     -56.495  11.148   5.475  1.00  0.00    -0.288 N
ATOM      8  H3  UNL     1     -55.563  11.064   5.069  1.00  0.00     0.172 HD
HETATM    9  C4  UNL     1     -57.246  12.187   5.106  1.00  0.00     0.330 A
HETATM   10  O2  UNL     1     -56.883  13.073   4.291  1.00  0.00    -0.246 OA
HETATM   11  N4  UNL     1     -58.477  12.311   5.633  1.00  0.00    -0.259 N
ATOM     12  H4  UNL     1     -59.075  13.095   5.370  1.00  0.00     0.175 HD
HETATM   13  C5  UNL     1     -58.909  11.388   6.509  1.00  0.00     0.351 A
HETATM   14  O3  UNL     1     -60.060  11.525   6.987  1.00  0.00    -0.244 OA
HETATM   15  N5  UNL     1     -58.123  10.333   6.872  1.00  0.00    -0.168 N
HETATM   16  N6  UNL     1     -58.574   9.452   7.728  1.00  0.00    -0.120 N
ATOM     17  H6  UNL     1     -59.508   9.548   8.127  1.00  0.00     0.206 HD
ENDROOT
BRANCH   1  18
HETATM   18  N1  UNL     1     -58.228   7.551   8.916  1.00  0.00    -0.233 N
ATOM     19  H12 UNL     1     -59.117   7.724   9.387  1.00  0.00     0.174 HD
ATOM     20  H11 UNL     1     -57.668   6.715   9.082  1.00  0.00     0.174 HD
ENDBRANCH   1  18
TORSDOF 1
ENDMDL