MODEL 1
REMARK VINA RESULT: -6.715181280      0.000      0.000
REMARK  5 active torsions:
REMARK  status: ('A' for Active; 'I' for Inactive)
REMARK    1  A    between atoms: O1_2  and  C2_3
REMARK    2  A    between atoms: C3_6  and  N2_7
REMARK    3  A    between atoms: N2_7  and  N3_9
REMARK    4  A    between atoms: C4_12  and  N4_13
REMARK    5  A    between atoms: N4_13  and  N5_15
ROOT
HETATM    1  C2  UNL     1     -58.592  11.421   6.085  1.00  0.00     0.182 A
HETATM    2  N1  UNL     1     -58.723  10.545   7.115  1.00  0.00    -0.316 N
ATOM      3  H1  UNL     1     -59.596  10.515   7.641  1.00  0.00     0.169 HD
HETATM    4  C3  UNL     1     -57.717   9.717   7.450  1.00  0.00     0.168 A
HETATM    5  C4  UNL     1     -56.543   9.780   6.719  1.00  0.00     0.167 A
HETATM    6  N6  UNL     1     -56.412  10.658   5.686  1.00  0.00    -0.326 N
ATOM      7  H6  UNL     1     -55.539  10.691   5.158  1.00  0.00     0.168 HD
HETATM    8  C5  UNL     1     -57.423  11.485   5.355  1.00  0.00     0.167 A
HETATM    9  C6  UNL     1     -57.352  12.423   4.291  1.00  0.00     0.122 C
HETATM   10  N7  UNL     1     -57.276  13.186   3.416  1.00  0.00    -0.190 NA
ENDROOT
BRANCH   1  11
HETATM   11  O1  UNL     1     -59.649  12.262   5.765  1.00  0.00    -0.339 OA
HETATM   12  C1  UNL     1     -60.635  12.454   6.763  1.00  0.00     0.211 C
ENDBRANCH   1  11
BRANCH   5  13
HETATM   13  N4  UNL     1     -55.572   8.994   7.027  1.00  0.00    -0.289 N
ATOM     14  H4  UNL     1     -55.660   8.349   7.812  1.00  0.00     0.188 HD
BRANCH  13  15
HETATM   15  N5  UNL     1     -54.408   9.035   6.282  1.00  0.00    -0.344 N
ATOM     16  H52 UNL     1     -54.332   9.693   5.506  1.00  0.00     0.176 HD
ATOM     17  H51 UNL     1     -53.642   8.406   6.520  1.00  0.00     0.176 HD
ENDBRANCH  13  15
ENDBRANCH   5  13
BRANCH   4  18
HETATM   18  N2  UNL     1     -57.769   8.862   8.412  1.00  0.00    -0.289 N
ATOM     19  H2  UNL     1     -57.351   9.119   9.307  1.00  0.00     0.188 HD
BRANCH  18  20
HETATM   20  N3  UNL     1     -58.363   7.604   8.302  1.00  0.00    -0.344 N
ATOM     21  H32 UNL     1     -58.530   7.251   7.360  1.00  0.00     0.176 HD
ATOM     22  H31 UNL     1     -58.632   7.031   9.102  1.00  0.00     0.176 HD
ENDBRANCH  18  20
ENDBRANCH   4  18
TORSDOF 5
ENDMDL