MODEL 3
REMARK VINA RESULT: -5.620559598      1.761      2.726
REMARK  3 active torsions:
REMARK  status: ('A' for Active; 'I' for Inactive)
REMARK    1  A    between atoms: N1_1  and  C1_4
REMARK    2  A    between atoms: C4_12  and  N4_13
REMARK    3  A    between atoms: N5_16  and  C5_17
ROOT
HETATM    1  C1  UNL     1     -57.825   8.220   8.069  1.00  0.00     0.680 A
HETATM    2  N2  UNL     1     -56.550   7.965   7.724  1.00  0.00    -0.154 N
ATOM      3  H2  UNL     1     -56.052   7.148   8.077  1.00  0.00     0.187 HD
HETATM    4  C2  UNL     1     -55.968   8.845   6.891  1.00  0.00     0.290 A
HETATM    5  O1  UNL     1     -54.771   8.647   6.540  1.00  0.00    -0.265 OA
HETATM    6  C3  UNL     1     -56.595   9.961   6.389  1.00  0.00     0.163 A
HETATM    7  N3  UNL     1     -56.257  10.972   5.567  1.00  0.00    -0.182 N
ATOM      8  H3  UNL     1     -55.349  11.094   5.117  1.00  0.00     0.184 HD
HETATM    9  C4  UNL     1     -57.312  11.794   5.436  1.00  0.00     0.687 A
HETATM   10  N5  UNL     1     -58.347  11.325   6.175  1.00  0.00    -0.105 N
HETATM   11  C6  UNL     1     -57.907  10.197   6.760  1.00  0.00     0.179 A
HETATM   12  N6  UNL     1     -58.481   9.312   7.594  1.00  0.00    -0.173 N
ATOM     13  H6  UNL     1     -59.448   9.466   7.882  1.00  0.00     0.186 HD
ENDROOT
BRANCH   1  14
HETATM   14  N1  UNL     1     -58.395   7.389   8.863  1.00  0.00    -0.234 N
ATOM     15  H12 UNL     1     -57.895   6.582   9.237  1.00  0.00     0.174 HD
ATOM     16  H11 UNL     1     -59.369   7.569   9.105  1.00  0.00     0.174 HD
ENDBRANCH   1  14
BRANCH  10  17
HETATM   17  C5  UNL     1     -59.626  11.936   6.278  1.00  0.00     0.378 C
HETATM   18  O2  UNL     1     -60.296  12.264   5.283  1.00  0.00    -0.282 OA
ENDBRANCH  10  17
BRANCH   9  19
HETATM   19  N4  UNL     1     -57.357  12.857   4.734  1.00  0.00    -0.234 N
ATOM     20  H42 UNL     1     -56.619  13.154   4.096  1.00  0.00     0.174 HD
ATOM     21  H41 UNL     1     -58.118  13.536   4.715  1.00  0.00     0.174 HD
ENDBRANCH   9  19
TORSDOF 3
ENDMDL