MODEL 1
REMARK VINA RESULT: -5.702774656      0.000      0.000
REMARK  3 active torsions:
REMARK  status: ('A' for Active; 'I' for Inactive)
REMARK    1  A    between atoms: C4_9  and  C5_10
REMARK    2  A    between atoms: C5_10  and  N4_11
REMARK    3  A    between atoms: C6_15  and  N5_16
ROOT
HETATM    1  C1  UNL     1     -65.120  16.634   5.903  1.00  0.00     0.164 C
HETATM    2  N1  UNL     1     -64.023  15.900   6.479  1.00  0.00    -0.269 N
HETATM    3  C2  UNL     1     -62.830  16.084   5.833  1.00  0.00     0.330 C
HETATM    4  O1  UNL     1     -62.715  17.068   5.107  1.00  0.00    -0.246 OA
HETATM    5  N2  UNL     1     -61.769  15.246   5.937  1.00  0.00    -0.296 N
ATOM      6  H2  UNL     1     -60.906  15.604   5.530  1.00  0.00     0.171 HD
HETATM    7  C3  UNL     1     -61.660  14.027   6.485  1.00  0.00     0.130 C
HETATM    8  N3  UNL     1     -60.471  13.247   6.270  1.00  0.00    -0.082 NA
HETATM    9  C4  UNL     1     -62.534  13.384   7.382  1.00  0.00     0.040 C
HETATM   10  C6  UNL     1     -63.595  13.997   8.023  1.00  0.00     0.106 C
HETATM   11  C7  UNL     1     -64.241  15.124   7.561  1.00  0.00     0.278 C
HETATM   12  O2  UNL     1     -65.224  15.516   8.259  1.00  0.00    -0.265 OA
ENDROOT
BRANCH   9  13
HETATM   13  C5  UNL     1     -62.355  11.938   7.384  1.00  0.00     0.274 C
BRANCH  13  14
HETATM   14  N4  UNL     1     -62.962  11.211   6.320  1.00  0.00    -0.075 N
ATOM     15  H43 UNL     1     -63.944  11.042   6.540  1.00  0.00     0.274 HD
ATOM     16  H42 UNL     1     -63.053  11.816   5.503  1.00  0.00     0.274 HD
ATOM     17  H41 UNL     1     -62.518  10.334   6.047  1.00  0.00     0.274 HD
ENDBRANCH  13  14
ENDBRANCH   9  13
BRANCH  10  18
HETATM   18  N5  UNL     1     -63.982  13.474   9.117  1.00  0.00    -0.394 N
ATOM     19  H52 UNL     1     -64.079  12.459   9.170  1.00  0.00     0.156 HD
ATOM     20  H51 UNL     1     -64.180  14.114   9.886  1.00  0.00     0.156 HD
ENDBRANCH  10  18
TORSDOF 3
ENDMDL