MODEL 5
REMARK VINA RESULT: -5.826005959      0.903      1.064
REMARK  5 active torsions:
REMARK  status: ('A' for Active; 'I' for Inactive)
REMARK    1  A    between atoms: C1_4  and  O1_6
REMARK    2  A    between atoms: O1_6  and  C2_7
REMARK    3  A    between atoms: C2_7  and  N3_9
REMARK    4  A    between atoms: N3_9  and  N4_11
REMARK    5  A    between atoms: N4_11  and  C3_13
ROOT
HETATM    1  N3  UNL     1     -62.354  12.463   7.706  1.00  0.00    -0.256 N
ATOM      2  H3  UNL     1     -63.049  11.734   7.543  1.00  0.00     0.190 HD
ENDROOT
BRANCH   1   3
HETATM    3  C2  UNL     1     -62.749  13.817   7.851  1.00  0.00     0.237 C
HETATM    4  S1  UNL     1     -63.679  14.256   9.095  1.00  0.00    -0.031 SA
BRANCH   3   5
HETATM    5  O1  UNL     1     -62.298  14.711   6.884  1.00  0.00    -0.253 OA
BRANCH   5   6
HETATM    6  C1  UNL     1     -63.186  15.580   6.230  1.00  0.00     0.232 C
HETATM    7  N1  UNL     1     -62.806  16.832   6.212  1.00  0.00    -0.367 N
ATOM      8  H12 UNL     1     -63.451  17.463   5.737  1.00  0.00     0.159 HD
ATOM      9  H11 UNL     1     -61.936  17.154   6.638  1.00  0.00     0.159 HD
HETATM   10  N2  UNL     1     -64.388  15.135   5.641  1.00  0.00    -0.056 NA
ENDBRANCH   5   6
ENDBRANCH   3   5
ENDBRANCH   1   3
BRANCH   1  11
HETATM   11  N4  UNL     1     -61.012  12.147   7.788  1.00  0.00    -0.127 N
ATOM     12  H4  UNL     1     -60.623  12.021   8.722  1.00  0.00     0.206 HD
BRANCH  11  13
HETATM   13  C3  UNL     1     -60.220  11.999   6.810  1.00  0.00     0.725 A
HETATM   14  N5  UNL     1     -59.061  11.318   6.871  1.00  0.00    -0.117 N
HETATM   15  N6  UNL     1     -58.469  11.345   5.693  1.00  0.00    -0.211 N
ATOM     16  H5  UNL     1     -58.697  10.851   7.702  1.00  0.00     0.207 HD
HETATM   17  N7  UNL     1     -59.230  12.041   4.850  1.00  0.00     0.009 NA
ATOM     18  H6  UNL     1     -57.578  10.906   5.465  1.00  0.00     0.206 HD
HETATM   19  N8  UNL     1     -60.305  12.444   5.533  1.00  0.00    -0.112 N
ATOM     20  H8  UNL     1     -61.071  13.000   5.152  1.00  0.00     0.203 HD
ENDBRANCH  11  13
ENDBRANCH   1  11
TORSDOF 5
ENDMDL