MODEL 5
REMARK VINA RESULT: -3.718493806      4.894      6.688
REMARK  3 active torsions:
REMARK  status: ('A' for Active; 'I' for Inactive)
REMARK    1  A    between atoms: N1_1  and  C1_4
REMARK    2  A    between atoms: C5_13  and  N4_14
REMARK    3  A    between atoms: N6_19  and  C6_20
ROOT
HETATM    1  C1  UNL     1     -57.867   8.514   8.031  1.00  0.00     0.679 A
HETATM    2  N2  UNL     1     -56.773   8.623   7.267  1.00  0.00    -0.154 N
ATOM      3  H2  UNL     1     -56.033   7.922   7.321  1.00  0.00     0.187 HD
HETATM    4  C2  UNL     1     -56.659   9.677   6.420  1.00  0.00     0.290 A
HETATM    5  O1  UNL     1     -55.619   9.725   5.736  1.00  0.00    -0.265 OA
HETATM    6  C3  UNL     1     -57.603  10.655   6.289  1.00  0.00     0.158 A
HETATM    7  C4  UNL     1     -58.731  10.504   7.103  1.00  0.00     0.128 A
HETATM    8  N3  UNL     1     -58.828   9.454   7.938  1.00  0.00    -0.186 N
ATOM      9  H3  UNL     1     -59.660   9.366   8.521  1.00  0.00     0.184 HD
HETATM   10  C5  UNL     1     -59.549  11.569   6.830  1.00  0.00     0.144 A
HETATM   11  N5  UNL     1     -58.968  12.334   5.904  1.00  0.00    -0.274 N
ATOM     12  H5  UNL     1     -59.352  13.193   5.511  1.00  0.00     0.189 HD
HETATM   13  N6  UNL     1     -57.786  11.776   5.577  1.00  0.00    -0.222 N
ENDROOT
BRANCH   1  14
HETATM   14  N1  UNL     1     -58.016   7.528   8.850  1.00  0.00    -0.234 N
ATOM     15  H12 UNL     1     -58.783   7.541   9.522  1.00  0.00     0.174 HD
ATOM     16  H11 UNL     1     -57.380   6.731   8.840  1.00  0.00     0.174 HD
ENDBRANCH   1  14
BRANCH  10  17
HETATM   17  N4  UNL     1     -60.692  11.745   7.412  1.00  0.00    -0.383 N
ATOM     18  H42 UNL     1     -60.931  11.595   8.393  1.00  0.00     0.157 HD
ATOM     19  H41 UNL     1     -61.521  12.073   6.918  1.00  0.00     0.157 HD
ENDBRANCH  10  17
BRANCH  13  20
HETATM   20  C6  UNL     1     -56.903  12.310   4.633  1.00  0.00     0.376 C
HETATM   21  O2  UNL     1     -56.909  13.412   4.072  1.00  0.00    -0.281 OA
ENDBRANCH  13  20
TORSDOF 3
ENDMDL