MODEL 3
REMARK VINA RESULT: -5.590971832      1.664      5.156
REMARK  4 active torsions:
REMARK  status: ('A' for Active; 'I' for Inactive)
REMARK    1  A    between atoms: N1_1  and  C1_4
REMARK    2  A    between atoms: C2_7  and  N3_8
REMARK    3  A    between atoms: N3_8  and  N4_10
REMARK    4  A    between atoms: S1_15  and  C3_16
ROOT
HETATM    1  C1  UNL     1     -58.828  11.176   6.684  1.00  0.00     0.170 A
HETATM    2  N2  UNL     1     -58.669   9.998   7.290  1.00  0.00    -0.168 N
ATOM      3  H2  UNL     1     -59.417   9.598   7.857  1.00  0.00     0.186 HD
HETATM    4  C2  UNL     1     -57.538   9.370   7.139  1.00  0.00     0.704 A
HETATM    5  N5  UNL     1     -56.598   9.947   6.383  1.00  0.00    -0.159 N
ATOM      6  H5  UNL     1     -55.664   9.603   6.160  1.00  0.00     0.192 HD
HETATM    7  S1  UNL     1     -57.330  11.384   5.890  1.00  0.00     0.030 SA
ENDROOT
BRANCH   7   8
HETATM    8  C3  UNL     1     -56.928  12.535   4.580  1.00  0.00     0.193 A
HETATM    9  N6  UNL     1     -57.345  12.519   3.299  1.00  0.00    -0.262 N
HETATM   10  N7  UNL     1     -56.807  13.554   2.681  1.00  0.00    -0.226 N
ATOM     11  H6  UNL     1     -57.968  11.828   2.881  1.00  0.00     0.190 HD
HETATM   12  N8  UNL     1     -56.059  14.226   3.541  1.00  0.00    -0.226 N
ATOM     13  H7  UNL     1     -56.946  13.796   1.699  1.00  0.00     0.210 HD
HETATM   14  N9  UNL     1     -56.124  13.620   4.692  1.00  0.00    -0.262 N
ATOM     15  H8  UNL     1     -55.524  15.070   3.337  1.00  0.00     0.210 HD
ATOM     16  H9  UNL     1     -55.645  13.915   5.543  1.00  0.00     0.190 HD
ENDBRANCH   7   8
BRANCH   1  17
HETATM   17  N1  UNL     1     -59.841  11.982   6.678  1.00  0.00    -0.378 N
ATOM     18  H12 UNL     1     -60.156  12.589   7.435  1.00  0.00     0.158 HD
ATOM     19  H11 UNL     1     -60.522  12.179   5.943  1.00  0.00     0.158 HD
ENDBRANCH   1  17
BRANCH   4  20
HETATM   20  N3  UNL     1     -57.275   8.196   7.694  1.00  0.00    -0.138 N
ATOM     21  H3  UNL     1     -56.339   7.803   7.597  1.00  0.00     0.205 HD
BRANCH  20  22
HETATM   22  N4  UNL     1     -58.226   7.487   8.399  1.00  0.00    -0.331 N
ATOM     23  H42 UNL     1     -58.854   6.878   7.873  1.00  0.00     0.177 HD
ATOM     24  H41 UNL     1     -58.314   7.555   9.413  1.00  0.00     0.177 HD
ENDBRANCH  20  22
ENDBRANCH   4  20
TORSDOF 4
ENDMDL