MODEL 5
REMARK VINA RESULT: -4.078514867      1.569      2.682
REMARK  3 active torsions:
REMARK  status: ('A' for Active; 'I' for Inactive)
REMARK    1  A    between atoms: N1_1  and  C1_4
REMARK    2  A    between atoms: C3_9  and  S1_10
REMARK    3  A    between atoms: S1_10  and  N4_11
ROOT
HETATM    1  C1  UNL     1     -60.596  12.595   6.591  1.00  0.00     0.680 A
HETATM    2  N2  UNL     1     -60.844  13.689   5.827  1.00  0.00    -0.177 N
ATOM      3  H2  UNL     1     -60.236  13.889   5.032  1.00  0.00     0.185 HD
HETATM    4  C2  UNL     1     -61.869  14.514   6.092  1.00  0.00     0.160 A
HETATM    5  N3  UNL     1     -62.144  15.670   5.299  1.00  0.00    -0.080 NA
HETATM    6  C3  UNL     1     -62.705  14.268   7.160  1.00  0.00     0.189 A
HETATM    7  C4  UNL     1     -62.462  13.167   7.934  1.00  0.00     0.286 A
HETATM    8  O3  UNL     1     -63.212  12.911   8.923  1.00  0.00    -0.266 OA
HETATM    9  N5  UNL     1     -61.422  12.369   7.629  1.00  0.00    -0.155 N
ATOM     10  H5  UNL     1     -61.251  11.551   8.213  1.00  0.00     0.187 HD
ENDROOT
BRANCH   6  11
HETATM   11  S1  UNL     1     -64.041  15.348   7.500  1.00  0.00     0.265 S
HETATM   12  O1  UNL     1     -64.084  16.446   6.454  1.00  0.00    -0.200 OA
HETATM   13  O2  UNL     1     -63.907  15.996   8.845  1.00  0.00    -0.200 OA
BRANCH  11  14
HETATM   14  N4  UNL     1     -65.526  14.492   7.412  1.00  0.00    -0.324 N
ATOM     15  H42 UNL     1     -65.880  14.045   6.567  1.00  0.00     0.169 HD
ATOM     16  H41 UNL     1     -65.988  14.500   8.321  1.00  0.00     0.169 HD
ENDBRANCH  11  14
ENDBRANCH   6  11
BRANCH   1  17
HETATM   17  N1  UNL     1     -59.608  11.809   6.327  1.00  0.00    -0.234 N
ATOM     18  H12 UNL     1     -59.208  11.746   5.391  1.00  0.00     0.174 HD
ATOM     19  H11 UNL     1     -59.194  11.223   7.051  1.00  0.00     0.174 HD
ENDBRANCH   1  17
TORSDOF 3
ENDMDL