MODEL 3
REMARK VINA RESULT: -3.179751305      2.777      6.129
REMARK  3 active torsions:
REMARK  status: ('A' for Active; 'I' for Inactive)
REMARK    1  A    between atoms: N1_1  and  C1_4
REMARK    2  A    between atoms: C2_7  and  N3_8
REMARK    3  A    between atoms: N4_11  and  N5_12
ROOT
HETATM    1  C1  UNL     1     -57.414  10.586   6.061  1.00  0.00     0.694 A
HETATM    2  N2  UNL     1     -58.081  10.688   7.210  1.00  0.00    -0.021 N
ATOM      3  H2  UNL     1     -57.696  10.261   8.054  1.00  0.00     0.203 HD
HETATM    4  C2  UNL     1     -59.272  11.355   7.275  1.00  0.00     0.716 A
HETATM    5  N4  UNL     1     -59.821  11.932   6.199  1.00  0.00    -0.031 N
HETATM    6  C6  UNL     1     -59.142  11.823   5.053  1.00  0.00     0.374 A
HETATM    7  O1  UNL     1     -59.535  12.308   3.984  1.00  0.00    -0.244 OA
HETATM    8  N7  UNL     1     -57.942  11.157   4.969  1.00  0.00    -0.139 N
ATOM      9  H7  UNL     1     -57.454  11.096   4.075  1.00  0.00     0.189 HD
ENDROOT
BRANCH   5  10
HETATM   10  N5  UNL     1     -61.057  12.588   6.234  1.00  0.00    -0.276 N
HETATM   11  C3  UNL     1     -61.217  14.053   6.302  1.00  0.00     0.173 C
HETATM   12  C4  UNL     1     -62.599  14.209   6.906  1.00  0.00     0.255 C
HETATM   13  N6  UNL     1     -62.996  12.844   7.287  1.00  0.00    -0.056 N
HETATM   14  C5  UNL     1     -62.405  12.112   6.173  1.00  0.00     0.375 C
ATOM     15  H62 UNL     1     -62.724  12.540   8.222  1.00  0.00     0.279 HD
ATOM     16  H61 UNL     1     -63.992  12.693   7.448  1.00  0.00     0.279 HD
ENDBRANCH   5  10
BRANCH   4  17
HETATM   17  N3  UNL     1     -59.836  11.422   8.431  1.00  0.00    -0.232 N
ATOM     18  H32 UNL     1     -60.714  10.940   8.620  1.00  0.00     0.174 HD
ATOM     19  H31 UNL     1     -59.371  11.994   9.135  1.00  0.00     0.174 HD
ENDBRANCH   4  17
BRANCH   1  20
HETATM   20  N1  UNL     1     -56.275   9.954   5.973  1.00  0.00    -0.234 N
ATOM     21  H12 UNL     1     -55.930   9.422   6.772  1.00  0.00     0.174 HD
ATOM     22  H11 UNL     1     -55.709   9.972   5.125  1.00  0.00     0.174 HD
ENDBRANCH   1  20
TORSDOF 3
ENDMDL