MODEL 2
REMARK VINA RESULT: -7.711358764      2.126      2.904
REMARK  2 active torsions:
REMARK  status: ('A' for Active; 'I' for Inactive)
REMARK    1  A    between atoms: C2_2  and  N1_3
REMARK       I    between atoms: N1_3  and  C3_5
REMARK       I    between atoms: C3_5  and  N2_7
REMARK    2  A    between atoms: N2_7  and  C4_9
ROOT
HETATM    1  N1  UNL     1       8.155   9.082  44.778  1.00  0.00    -0.332 N
ATOM      2  H1  UNL     1       8.589   9.714  44.106  1.00  0.00     0.165 HD
HETATM    3  C3  UNL     1       7.025   9.531  45.482  1.00  0.00     0.317 C
HETATM    4  O1  UNL     1       6.468   8.786  46.312  1.00  0.00    -0.247 OA
HETATM    5  N2  UNL     1       6.512  10.821  45.260  1.00  0.00    -0.329 N
ATOM      6  H2  UNL     1       6.982  11.415  44.577  1.00  0.00     0.165 HD
ENDROOT
BRANCH   5   7
HETATM    7  C4  UNL     1       5.350  11.354  45.949  1.00  0.00     0.189 C
HETATM    8  C5  UNL     1       4.442  11.954  44.907  1.00  0.00     0.074 C
HETATM    9  C6  UNL     1       4.839  13.384  44.895  1.00  0.00     0.073 C
HETATM   10  C7  UNL     1       3.738  14.301  45.439  1.00  0.00     0.039 C
HETATM   11  C10 UNL     1       5.095  13.968  43.558  1.00  0.00     0.039 C
HETATM   12  O2  UNL     1       5.939  13.542  45.769  1.00  0.00    -0.308 OA
HETATM   13  C8  UNL     1       4.441  15.642  45.187  1.00  0.00     0.003 C
HETATM   14  C9  UNL     1       4.932  15.456  43.778  1.00  0.00     0.003 C
HETATM   15  C11 UNL     1       5.810  12.539  46.719  1.00  0.00     0.282 C
HETATM   16  O3  UNL     1       6.030  12.589  47.979  1.00  0.00    -0.263 OA
ENDBRANCH   5   7
BRANCH   1  17
HETATM   17  C2  UNL     1       8.734   7.765  44.959  1.00  0.00     0.056 C
HETATM   18  C1  UNL     1       7.737   6.711  44.559  1.00  0.00     0.040 C
HETATM   19  C12 UNL     1      10.096   7.594  44.316  1.00  0.00     0.171 C
HETATM   20  S1  UNL     1      10.617   6.550  45.655  1.00  0.00     0.149 S
HETATM   21  O4  UNL     1      11.988   6.801  46.156  1.00  0.00    -0.228 OA
HETATM   22  O5  UNL     1      10.180   5.139  45.543  1.00  0.00    -0.228 OA
HETATM   23  C13 UNL     1       9.364   7.623  46.305  1.00  0.00     0.171 C
ENDBRANCH   1  17
TORSDOF 2
ENDMDL