MODEL 4
REMARK VINA RESULT: -7.529283902      2.327      3.865
REMARK  3 active torsions:
REMARK  status: ('A' for Active; 'I' for Inactive)
REMARK    1  A    between atoms: C3_3  and  O1_4
REMARK    2  A    between atoms: C9_12  and  C10_13
REMARK       I    between atoms: C10_13  and  N1_15
REMARK    3  A    between atoms: C11_17  and  C12_18
ROOT
HETATM    1  C1  UNL     1       9.289   7.839  47.193  1.00  0.00     0.013 C
HETATM    2  C2  UNL     1       9.924   7.496  45.926  1.00  0.00     0.020 C
HETATM    3  C3  UNL     1       9.620   6.022  45.584  1.00  0.00     0.129 C
HETATM    4  C4  UNL     1       9.097   6.472  44.270  1.00  0.00     0.053 C
HETATM    5  C5  UNL     1       7.623   6.321  44.153  1.00  0.00     0.129 C
HETATM    6  C6  UNL     1       7.163   7.309  43.065  1.00  0.00     0.044 C
HETATM    7  C7  UNL     1       7.211   8.559  43.977  1.00  0.00     0.047 C
HETATM    8  C8  UNL     1       6.518   8.015  45.144  1.00  0.00     0.177 C
HETATM    9  O2  UNL     1       7.016   6.733  45.313  1.00  0.00    -0.385 OA
HETATM   10  C9  UNL     1       8.668   8.902  44.085  1.00  0.00    -0.001 C
HETATM   11  C17 UNL     1       9.586   7.866  44.580  1.00  0.00     0.036 C
ENDROOT
BRANCH  10  12
HETATM   12  C10 UNL     1       8.954  10.290  44.470  1.00  0.00     0.248 C
HETATM   13  O3  UNL     1      10.065  10.788  44.255  1.00  0.00    -0.268 OA
HETATM   14  N1  UNL     1       7.958  11.067  45.088  1.00  0.00    -0.335 N
HETATM   15  C11 UNL     1       7.838  11.312  46.321  1.00  0.00     0.097 C
ATOM     16  H1  UNL     1       7.255  11.478  44.473  1.00  0.00     0.168 HD
BRANCH  15  17
HETATM   17  C12 UNL     1       6.725  12.152  46.795  1.00  0.00     0.224 C
HETATM   18  C13 UNL     1       5.891  12.649  45.635  1.00  0.00     0.038 C
HETATM   19  C14 UNL     1       4.457  12.898  46.030  1.00  0.00     0.004 C
HETATM   20  C15 UNL     1       4.283  13.262  47.466  1.00  0.00     0.027 C
HETATM   21  C16 UNL     1       5.083  12.442  48.422  1.00  0.00     0.233 C
HETATM   22  N2  UNL     1       5.831  11.448  47.691  1.00  0.00    -0.066 N
ATOM     23  H22 UNL     1       5.234  10.774  47.211  1.00  0.00     0.278 HD
ATOM     24  H21 UNL     1       6.315  10.786  48.298  1.00  0.00     0.278 HD
ENDBRANCH  15  17
ENDBRANCH  10  12
BRANCH   3  25
HETATM   25  O1  UNL     1      10.695   5.178  45.519  1.00  0.00    -0.395 OA
ATOM     26  H1  UNL     1      11.404   5.441  44.944  1.00  0.00     0.210 HD
ENDBRANCH   3  25
TORSDOF 3
ENDMDL