MODEL 1
REMARK VINA RESULT: -7.801458782      0.000      0.000
REMARK  3 active torsions:
REMARK  status: ('A' for Active; 'I' for Inactive)
REMARK    1  A    between atoms: C1_2  and  C2_4
REMARK    2  A    between atoms: C10_14  and  C11_15
REMARK       I    between atoms: C11_15  and  N1_17
REMARK    3  A    between atoms: N1_17  and  C12_19
ROOT
HETATM    1  C2  UNL     1       5.820  12.336  47.347  1.00  0.00     0.250 C
HETATM    2  O3  UNL     1       5.710  13.481  46.543  1.00  0.00    -0.333 OA
HETATM    3  C3  UNL     1       5.188  13.515  45.261  1.00  0.00     0.084 A
HETATM    4  C4  UNL     1       4.610  14.628  44.708  1.00  0.00     0.038 A
HETATM    5  C5  UNL     1       4.110  14.573  43.412  1.00  0.00     0.003 A
HETATM    6  C6  UNL     1       4.175  13.431  42.653  1.00  0.00     0.001 A
HETATM    7  C7  UNL     1       4.756  12.317  43.216  1.00  0.00     0.018 A
HETATM    8  C8  UNL     1       5.259  12.361  44.512  1.00  0.00     0.044 A
HETATM    9  C9  UNL     1       5.879  11.192  45.126  1.00  0.00     0.178 C
HETATM   10  O4  UNL     1       6.468  10.367  44.377  1.00  0.00    -0.291 OA
HETATM   11  C10 UNL     1       5.784  11.037  46.593  1.00  0.00     0.193 C
ENDROOT
BRANCH  11  12
HETATM   12  C11 UNL     1       6.777  10.061  47.110  1.00  0.00     0.238 C
HETATM   13  O5  UNL     1       6.465   9.218  47.992  1.00  0.00    -0.272 OA
HETATM   14  N1  UNL     1       8.111  10.044  46.629  1.00  0.00    -0.306 N
ATOM     15  H1  UNL     1       8.557  10.912  46.334  1.00  0.00     0.171 HD
BRANCH  14  16
HETATM   16  C12 UNL     1       8.775   8.905  46.563  1.00  0.00     0.150 A
HETATM   17  N2  UNL     1       9.199   8.159  47.579  1.00  0.00    -0.346 N
HETATM   18  C13 UNL     1       9.845   7.054  47.312  1.00  0.00     0.097 A
ATOM     19  H2  UNL     1       9.025   8.442  48.543  1.00  0.00     0.167 HD
HETATM   20  C14 UNL     1      10.047   6.732  45.999  1.00  0.00     0.070 A
HETATM   21  S1  UNL     1       9.297   8.035  45.194  1.00  0.00    -0.064 SA
ENDBRANCH  14  16
ENDBRANCH  11  12
BRANCH   1  22
HETATM   22  C1  UNL     1       4.730  12.415  48.363  1.00  0.00     0.205 C
HETATM   23  O1  UNL     1       5.035  12.320  49.569  1.00  0.00    -0.646 OA
HETATM   24  O2  UNL     1       3.396  12.587  48.026  1.00  0.00    -0.646 OA
ENDBRANCH   1  22
TORSDOF 3
ENDMDL