MODEL 3
REMARK VINA RESULT: -7.621395020      1.600      2.103
REMARK  3 active torsions:
REMARK  status: ('A' for Active; 'I' for Inactive)
REMARK    1  A    between atoms: C9_9  and  O1_10
REMARK    2  A    between atoms: N1_15  and  N2_17
REMARK    3  A    between atoms: N2_17  and  S1_19
ROOT
HETATM    1  C1  UNL     1       6.115  13.007  44.530  1.00  0.00     0.016 C
HETATM    2  C2  UNL     1       6.426  11.845  45.503  1.00  0.00    -0.033 A
HETATM    3  C3  UNL     1       6.560  12.207  46.892  1.00  0.00     0.015 A
HETATM    4  C4  UNL     1       7.816  11.966  46.228  1.00  0.00     0.000 A
HETATM    5  C5  UNL     1       8.545  10.745  45.983  1.00  0.00     0.009 C
HETATM    6  C6  UNL     1       8.564   9.612  46.935  1.00  0.00     0.060 C
HETATM    7  C7  UNL     1       7.240   9.247  47.504  1.00  0.00    -0.017 C
HETATM    8  C8  UNL     1       6.065   9.131  46.885  1.00  0.00     0.008 C
HETATM    9  C9  UNL     1       5.836   9.353  45.439  1.00  0.00     0.081 C
HETATM   10  C10 UNL     1       6.668   8.236  44.773  1.00  0.00     0.053 C
HETATM   11  C11 UNL     1       8.088   8.698  44.771  1.00  0.00     0.041 C
HETATM   12  C12 UNL     1       8.837   8.484  45.997  1.00  0.00     0.017 C
HETATM   13  N1  UNL     1       9.605   7.509  46.263  1.00  0.00    -0.298 N
ATOM     14  H1  UNL     1      10.077   7.471  47.166  1.00  0.00     0.187 HD
HETATM   15  C14 UNL     1       7.979  10.200  44.697  1.00  0.00     0.009 C
HETATM   16  C15 UNL     1       6.500  10.545  44.863  1.00  0.00     0.037 C
ENDROOT
BRANCH  13  17
HETATM   17  N2  UNL     1       9.809   6.499  45.342  1.00  0.00    -0.227 N
ATOM     18  H2  UNL     1       9.070   5.831  45.126  1.00  0.00     0.200 HD
BRANCH  17  19
HETATM   19  S1  UNL     1      11.344   6.398  44.569  1.00  0.00     0.240 S
HETATM   20  C13 UNL     1      11.121   5.556  43.021  1.00  0.00     0.187 C
HETATM   21  O2  UNL     1      12.272   5.601  45.457  1.00  0.00    -0.205 OA
HETATM   22  O3  UNL     1      11.941   7.771  44.357  1.00  0.00    -0.205 OA
ENDBRANCH  17  19
ENDBRANCH  13  17
BRANCH   9  23
HETATM   23  O1  UNL     1       4.536   9.149  45.061  1.00  0.00    -0.385 OA
ATOM     24  H1  UNL     1       4.402   9.234  44.125  1.00  0.00     0.211 HD
ENDBRANCH   9  23
TORSDOF 3
ENDMDL