MODEL 1
REMARK VINA RESULT: -7.471131198      0.000      0.000
REMARK  4 active torsions:
REMARK  status: ('A' for Active; 'I' for Inactive)
REMARK       I    between atoms: C1_2  and  N1_3
REMARK    1  A    between atoms: C1_2  and  C8_17
REMARK    2  A    between atoms: N1_3  and  C2_5
REMARK    3  A    between atoms: C2_5  and  N2_7
REMARK    4  A    between atoms: N2_7  and  C3_9
ROOT
HETATM    1  C2  UNL     1       7.573   8.991  46.892  1.00  0.00     0.174 C
HETATM    2  S1  UNL     1       8.521   9.228  48.248  1.00  0.00    -0.041 SA
ENDROOT
BRANCH   1   3
HETATM    3  N1  UNL     1       6.846  10.066  46.354  1.00  0.00    -0.300 N
HETATM    4  C1  UNL     1       5.843  10.076  45.397  1.00  0.00     0.257 C
HETATM    5  O1  UNL     1       5.356   9.094  44.795  1.00  0.00    -0.267 OA
ATOM      6  H1  UNL     1       7.095  10.982  46.726  1.00  0.00     0.171 HD
BRANCH   4   7
HETATM    7  C8  UNL     1       5.241  11.370  45.006  1.00  0.00     0.032 A
HETATM    8  C9  UNL     1       4.792  12.208  45.990  1.00  0.00     0.017 A
HETATM    9  C10 UNL     1       4.210  13.433  45.633  1.00  0.00     0.001 A
HETATM   10  C11 UNL     1       4.107  13.756  44.303  1.00  0.00     0.000 A
HETATM   11  C12 UNL     1       4.555  12.921  43.301  1.00  0.00     0.001 A
HETATM   12  C13 UNL     1       5.124  11.723  43.677  1.00  0.00     0.017 A
ENDBRANCH   4   7
ENDBRANCH   1   3
BRANCH   1  13
HETATM   13  N2  UNL     1       7.521   7.708  46.314  1.00  0.00    -0.361 N
ATOM     14  H2  UNL     1       6.742   7.104  46.576  1.00  0.00     0.162 HD
BRANCH  13  15
HETATM   15  C3  UNL     1       8.494   7.179  45.374  1.00  0.00     0.098 C
HETATM   16  C4  UNL     1       7.912   6.366  44.269  1.00  0.00     0.027 C
HETATM   17  C5  UNL     1       8.766   5.163  43.916  1.00  0.00     0.017 C
HETATM   18  C6  UNL     1      10.132   5.706  43.472  1.00  0.00     0.140 C
HETATM   19  S2  UNL     1      10.931   6.249  44.991  1.00  0.00     0.146 S
HETATM   20  O2  UNL     1      11.900   5.237  45.489  1.00  0.00    -0.228 OA
HETATM   21  O3  UNL     1      11.569   7.587  44.797  1.00  0.00    -0.228 OA
HETATM   22  C7  UNL     1       9.580   6.492  46.160  1.00  0.00     0.165 C
ENDBRANCH  13  15
ENDBRANCH   1  13
TORSDOF 4
ENDMDL