MODEL 3
REMARK VINA RESULT: -7.813833336      7.357      9.618
REMARK  2 active torsions:
REMARK  status: ('A' for Active; 'I' for Inactive)
REMARK       I    between atoms: C1_2  and  N2_4
REMARK       I    between atoms: N2_4  and  C2_6
REMARK    1  A    between atoms: C2_6  and  C3_8
REMARK    2  A    between atoms: C3_8  and  N3_9
ROOT
HETATM    1  N3  UNL     1       8.744   7.217  43.374  1.00  0.00    -0.336 N
HETATM    2  C4  UNL     1       7.921   7.125  42.227  1.00  0.00     0.057 A
HETATM    3  C5  UNL     1       6.745   7.829  42.115  1.00  0.00     0.031 A
HETATM    4  C6  UNL     1       5.909   7.773  40.997  1.00  0.00     0.002 A
HETATM    5  C7  UNL     1       6.283   6.969  39.949  1.00  0.00     0.002 A
HETATM    6  C8  UNL     1       7.454   6.247  40.020  1.00  0.00     0.026 A
HETATM    7  C9  UNL     1       8.242   6.332  41.135  1.00  0.00     0.091 A
HETATM    8  S1  UNL     1       9.685   5.372  41.129  1.00  0.00     0.211 S
HETATM    9  O3  UNL     1       9.346   3.902  40.989  1.00  0.00    -0.217 OA
HETATM   10  O4  UNL     1      10.537   5.762  39.954  1.00  0.00    -0.217 OA
HETATM   11  C10 UNL     1      10.529   5.673  42.627  1.00  0.00     0.091 A
HETATM   12  C11 UNL     1      11.753   5.028  42.826  1.00  0.00     0.026 A
HETATM   13  C12 UNL     1      12.443   5.244  43.983  1.00  0.00     0.002 A
HETATM   14  C13 UNL     1      11.917   6.094  44.928  1.00  0.00     0.002 A
HETATM   15  C14 UNL     1      10.696   6.726  44.708  1.00  0.00     0.031 A
HETATM   16  C15 UNL     1       9.961   6.530  43.539  1.00  0.00     0.057 A
ENDROOT
BRANCH   1  17
HETATM   17  C3  UNL     1       8.262   8.103  44.436  1.00  0.00     0.232 C
BRANCH  17  18
HETATM   18  C2  UNL     1       7.655   7.362  45.542  1.00  0.00     0.243 C
HETATM   19  N2  UNL     1       7.697   7.866  46.858  1.00  0.00    -0.280 N
HETATM   20  C1  UNL     1       8.281   9.063  47.307  1.00  0.00     0.335 C
ATOM     21  H2  UNL     1       7.248   7.291  47.572  1.00  0.00     0.173 HD
HETATM   22  N1  UNL     1       8.936   9.971  46.456  1.00  0.00    -0.040 NA
HETATM   23  O1  UNL     1       8.201   9.327  48.561  1.00  0.00    -0.251 OA
HETATM   24  O2  UNL     1       7.069   6.232  45.334  1.00  0.00    -0.271 OA
ENDBRANCH  17  18
ENDBRANCH   1  17
TORSDOF 2
ENDMDL