MODEL 3
REMARK VINA RESULT: -7.206596164      1.958      2.675
REMARK  4 active torsions:
REMARK  status: ('A' for Active; 'I' for Inactive)
REMARK    1  A    between atoms: N1_1  and  S1_4
REMARK    2  A    between atoms: S1_4  and  C1_7
REMARK    3  A    between atoms: C8_14  and  N2_15
REMARK    4  A    between atoms: N2_15  and  C9_17
ROOT
HETATM    1  C1  UNL     1       9.699   7.286  44.315  1.00  0.00     0.154 C
HETATM    2  C2  UNL     1      11.017   6.938  43.656  1.00  0.00     0.051 C
HETATM    3  C3  UNL     1      11.618   8.255  43.224  1.00  0.00     0.028 C
HETATM    4  C4  UNL     1      10.481   9.269  43.375  1.00  0.00     0.083 C
HETATM    5  C5  UNL     1      10.264   9.945  42.078  1.00  0.00     0.025 C
HETATM    6  C6  UNL     1       9.068   9.387  41.410  1.00  0.00     0.006 C
HETATM    7  C7  UNL     1       7.871   9.470  42.329  1.00  0.00     0.053 C
HETATM    8  C8  UNL     1       8.062   8.839  43.648  1.00  0.00     0.099 C
HETATM    9  C14 UNL     1       7.485   7.439  43.563  1.00  0.00     0.057 C
HETATM   10  C15 UNL     1       8.616   6.493  43.679  1.00  0.00     0.053 C
HETATM   11  N3  UNL     1       9.429   8.646  44.022  1.00  0.00    -0.360 N
ENDROOT
BRANCH   8  12
HETATM   12  N2  UNL     1       7.331   9.484  44.690  1.00  0.00    -0.393 N
ATOM     13  H2  UNL     1       6.943   8.887  45.421  1.00  0.00     0.156 HD
BRANCH  12  14
HETATM   14  C9  UNL     1       7.104  10.821  44.799  1.00  0.00     0.079 C
HETATM   15  C10 UNL     1       5.733  11.296  45.150  1.00  0.00     0.025 C
HETATM   16  C11 UNL     1       5.992  12.772  45.580  1.00  0.00     0.002 C
HETATM   17  C12 UNL     1       7.109  12.491  46.583  1.00  0.00     0.002 C
HETATM   18  C13 UNL     1       7.918  11.328  46.038  1.00  0.00     0.025 C
ENDBRANCH  12  14
ENDBRANCH   8  12
BRANCH   1  19
HETATM   19  S1  UNL     1       9.906   6.993  46.053  1.00  0.00     0.251 S
HETATM   20  O1  UNL     1      11.358   6.790  46.368  1.00  0.00    -0.203 OA
HETATM   21  O2  UNL     1       9.482   8.264  46.774  1.00  0.00    -0.203 OA
BRANCH  19  22
HETATM   22  N1  UNL     1       8.910   5.717  46.641  1.00  0.00    -0.326 N
ATOM     23  H12 UNL     1       8.408   5.774  47.526  1.00  0.00     0.168 HD
ATOM     24  H11 UNL     1       8.880   4.915  46.011  1.00  0.00     0.168 HD
ENDBRANCH  19  22
ENDBRANCH   1  19
TORSDOF 4
ENDMDL