MODEL 4
REMARK VINA RESULT: -7.313602783      2.234      8.073
REMARK  3 active torsions:
REMARK  status: ('A' for Active; 'I' for Inactive)
REMARK    1  A    between atoms: C6_7  and  C7_8
REMARK       I    between atoms: C7_8  and  N1_10
REMARK    2  A    between atoms: N1_10  and  N2_12
REMARK       I    between atoms: N2_12  and  C8_14
REMARK    3  A    between atoms: C8_14  and  C9_16
ROOT
HETATM    1  C7  UNL     1       8.239  10.079  45.278  1.00  0.00     0.240 C
HETATM    2  O2  UNL     1       9.186  10.075  46.099  1.00  0.00    -0.271 OA
HETATM    3  N1  UNL     1       8.423   9.586  43.962  1.00  0.00    -0.267 N
ATOM      4  H1  UNL     1       7.638   9.600  43.311  1.00  0.00     0.190 HD
ENDROOT
BRANCH   1   5
HETATM    5  C6  UNL     1       6.934  10.594  45.667  1.00  0.00     0.085 C
HETATM    6  C5  UNL     1       5.871   9.685  45.096  1.00  0.00     0.019 C
HETATM    7  C4  UNL     1       4.811  10.588  44.499  1.00  0.00     0.069 C
HETATM    8  C3  UNL     1       5.094  11.890  45.199  1.00  0.00     0.166 C
HETATM    9  O1  UNL     1       4.473  12.976  44.643  1.00  0.00    -0.348 OA
HETATM   10  C14 UNL     1       6.604  11.942  45.108  1.00  0.00     0.082 C
HETATM   11  O4  UNL     1       4.724  11.779  46.515  1.00  0.00    -0.348 OA
HETATM   12  C2  UNL     1       4.408  13.867  45.738  1.00  0.00     0.150 C
HETATM   13  C1  UNL     1       3.347  14.898  45.561  1.00  0.00     0.042 C
HETATM   14  C15 UNL     1       3.973  12.904  46.844  1.00  0.00     0.150 C
HETATM   15  C16 UNL     1       4.404  13.396  48.185  1.00  0.00     0.042 C
ENDBRANCH   1   5
BRANCH   3  16
HETATM   16  N2  UNL     1       9.661   9.078  43.533  1.00  0.00    -0.267 N
HETATM   17  C8  UNL     1       9.779   7.807  42.909  1.00  0.00     0.241 C
HETATM   18  O3  UNL     1       8.711   7.141  42.752  1.00  0.00    -0.271 OA
ATOM     19  H2  UNL     1      10.501   9.639  43.673  1.00  0.00     0.190 HD
BRANCH  17  20
HETATM   20  C9  UNL     1      11.077   7.273  42.456  1.00  0.00     0.088 A
HETATM   21  C10 UNL     1      12.356   7.798  43.030  1.00  0.00     0.024 A
HETATM   22  C11 UNL     1      11.884   6.397  43.340  1.00  0.00    -0.035 A
HETATM   23  C12 UNL     1      12.596   5.227  42.681  1.00  0.00     0.015 C
HETATM   24  C13 UNL     1      11.494   6.199  44.786  1.00  0.00     0.015 C
ENDBRANCH  17  20
ENDBRANCH   3  16
TORSDOF 3
ENDMDL