MODEL 3
REMARK VINA RESULT: -6.743939994      3.909      5.092
REMARK  2 active torsions:
REMARK  status: ('A' for Active; 'I' for Inactive)
REMARK       I    between atoms: C1_2  and  N1_3
REMARK       I    between atoms: C1_2  and  N4_21
REMARK    1  A    between atoms: N1_3  and  C2_5
REMARK    2  A    between atoms: N2_7  and  C4_8
ROOT
HETATM    1  C2  UNL     1       8.096   8.962  43.864  1.00  0.00     0.124 C
HETATM    2  C3  UNL     1       8.678  10.232  44.382  1.00  0.00     0.298 C
HETATM    3  N2  UNL     1       7.520  11.105  44.435  1.00  0.00     0.097 N
HETATM    4  C8  UNL     1       6.613  10.662  43.404  1.00  0.00     0.284 C
HETATM    5  C9  UNL     1       7.247   9.454  42.742  1.00  0.00     0.008 C
HETATM    6  C10 UNL     1       6.231   8.458  42.269  1.00  0.00     0.013 C
HETATM    7  C11 UNL     1       5.789   9.070  40.956  1.00  0.00     0.001 C
HETATM    8  C12 UNL     1       7.064   9.634  40.396  1.00  0.00     0.001 C
HETATM    9  C13 UNL     1       7.984   9.925  41.543  1.00  0.00     0.013 C
ENDROOT
BRANCH   1  10
HETATM   10  N1  UNL     1       9.026   7.941  43.528  1.00  0.00    -0.336 N
HETATM   11  C1  UNL     1      10.006   7.382  44.355  1.00  0.00     0.320 C
HETATM   12  O1  UNL     1      10.119   7.785  45.529  1.00  0.00    -0.247 OA
HETATM   13  N4  UNL     1      10.864   6.375  43.898  1.00  0.00    -0.316 N
HETATM   14  C14 UNL     1      11.014   5.683  42.633  1.00  0.00     0.204 C
HETATM   15  C15 UNL     1      11.946   5.604  44.463  1.00  0.00     0.204 C
HETATM   16  S1  UNL     1      12.766   5.411  42.882  1.00  0.00    -0.129 SA
ATOM     17  H1  UNL     1       8.974   7.576  42.577  1.00  0.00     0.164 HD
ENDBRANCH   1  10
BRANCH   3  18
HETATM   18  C4  UNL     1       6.894  11.081  45.745  1.00  0.00     0.250 C
HETATM   19  C5  UNL     1       5.403  11.310  45.643  1.00  0.00     0.065 C
HETATM   20  C6  UNL     1       5.072  11.960  46.976  1.00  0.00     0.234 C
HETATM   21  N3  UNL     1       6.294  12.456  47.527  1.00  0.00    -0.073 N
HETATM   22  C7  UNL     1       7.324  12.331  46.505  1.00  0.00     0.268 C
ATOM     23  H32 UNL     1       6.208  13.405  47.889  1.00  0.00     0.277 HD
ATOM     24  H31 UNL     1       6.547  12.000  48.403  1.00  0.00     0.277 HD
ENDBRANCH   3  18
TORSDOF 2
ENDMDL