MODEL 3
REMARK VINA RESULT: -7.122978088      2.436      7.870
REMARK  3 active torsions:
REMARK  status: ('A' for Active; 'I' for Inactive)
REMARK       I    between atoms: C1_2  and  N1_3
REMARK       I    between atoms: C1_2  and  N2_14
REMARK    1  A    between atoms: N1_3  and  C2_5
REMARK    2  A    between atoms: C7_10  and  C8_11
REMARK    3  A    between atoms: C8_11  and  O2_12
ROOT
HETATM    1  O1  UNL     1       6.113   9.305  43.105  1.00  0.00    -0.247 OA
HETATM    2  C1  UNL     1       6.686   9.419  44.250  1.00  0.00     0.318 C
HETATM    3  N1  UNL     1       7.730   8.513  44.573  1.00  0.00    -0.338 N
ATOM      4  H1  UNL     1       8.197   8.585  45.477  1.00  0.00     0.164 HD
HETATM    5  N2  UNL     1       6.214  10.452  45.091  1.00  0.00    -0.331 N
HETATM    6  C9  UNL     1       6.753  10.707  46.390  1.00  0.00     0.128 C
HETATM    7  C10 UNL     1       7.063  12.166  46.654  1.00  0.00     0.023 C
HETATM    8  C11 UNL     1       6.229  13.095  45.823  1.00  0.00     0.043 C
HETATM    9  C12 UNL     1       4.897  12.473  45.463  1.00  0.00     0.098 C
HETATM   10  C13 UNL     1       4.100  13.539  44.733  1.00  0.00     0.207 C
HETATM   11  O3  UNL     1       4.066  14.650  45.582  1.00  0.00    -0.386 OA
HETATM   12  C14 UNL     1       3.325  14.295  46.712  1.00  0.00     0.194 C
HETATM   13  C15 UNL     1       3.873  13.114  47.437  1.00  0.00     0.195 C
HETATM   14  O4  UNL     1       4.285  12.074  46.639  1.00  0.00    -0.374 OA
HETATM   15  C16 UNL     1       5.119  11.284  44.588  1.00  0.00     0.167 C
ENDROOT
BRANCH   3  16
HETATM   16  C2  UNL     1       8.142   7.477  43.627  1.00  0.00     0.092 C
HETATM   17  C3  UNL     1       9.442   7.907  43.016  1.00  0.00     0.026 C
HETATM   18  C4  UNL     1      10.588   7.873  43.948  1.00  0.00     0.002 C
HETATM   19  C5  UNL     1      10.685   6.709  44.872  1.00  0.00     0.001 C
HETATM   20  C6  UNL     1       9.368   6.180  45.351  1.00  0.00     0.009 C
HETATM   21  C7  UNL     1       8.307   6.155  44.286  1.00  0.00     0.032 C
BRANCH  21  22
HETATM   22  C8  UNL     1       8.543   5.047  43.323  1.00  0.00     0.170 C
BRANCH  22  23
HETATM   23  O2  UNL     1       8.571   3.783  43.838  1.00  0.00    -0.400 OA
ATOM     24  H2  UNL     1       7.793   3.252  43.707  1.00  0.00     0.209 HD
ENDBRANCH  22  23
ENDBRANCH  21  22
ENDBRANCH   3  16
TORSDOF 3
ENDMDL