MODEL 1
REMARK VINA RESULT: -6.606250461      0.000      0.000
REMARK  13 active torsions:
REMARK  status: ('A' for Active; 'I' for Inactive)
REMARK    1  A    between atoms: N1_2  and  S1_4
REMARK    2  A    between atoms: S1_4  and  N2_7
REMARK    3  A    between atoms: N2_7  and  C2_9
REMARK    4  A    between atoms: C2_9  and  C3_10
REMARK    5  A    between atoms: C2_9  and  C4_13
REMARK    6  A    between atoms: C3_10  and  O3_11
REMARK    7  A    between atoms: C4_13  and  C5_14
REMARK    8  A    between atoms: C8_17  and  O4_18
REMARK    9  A    between atoms: O4_18  and  C9_19
REMARK   10  A    between atoms: C9_19  and  C10_20
REMARK   11  A    between atoms: C10_20  and  N3_21
REMARK   12  A    between atoms: N3_21  and  C11_23
REMARK   13  A    between atoms: C11_23  and  C12_24
ROOT
HETATM    1  C5  UNL     1      13.058  31.694  15.455  1.00  0.00    -0.056 A
HETATM    2  C6  UNL     1      12.183  30.883  16.163  1.00  0.00     0.010 A
HETATM    3  C7  UNL     1      11.422  29.928  15.545  1.00  0.00     0.037 A
HETATM    4  C8  UNL     1      11.472  29.701  14.156  1.00  0.00     0.068 A
HETATM    5  C18 UNL     1      12.340  30.509  13.466  1.00  0.00     0.037 A
HETATM    6  C19 UNL     1      13.120  31.488  14.098  1.00  0.00     0.010 A
ENDROOT
BRANCH   1   7
HETATM    7  C4  UNL     1      13.864  32.707  16.182  1.00  0.00     0.066 C
BRANCH   7   8
HETATM    8  C2  UNL     1      15.216  32.953  15.627  1.00  0.00     0.122 C
BRANCH   8   9
HETATM    9  N2  UNL     1      15.440  34.404  15.594  1.00  0.00    -0.296 N
ATOM     10  H2  UNL     1      15.324  35.015  16.402  1.00  0.00     0.174 HD
BRANCH   9  11
HETATM   11  S1  UNL     1      15.918  34.950  14.045  1.00  0.00     0.315 S
HETATM   12  O1  UNL     1      14.775  35.598  13.320  1.00  0.00    -0.183 OA
HETATM   13  O2  UNL     1      17.026  35.975  14.171  1.00  0.00    -0.183 OA
BRANCH  11  14
HETATM   14  N1  UNL     1      16.560  33.603  13.170  1.00  0.00    -0.307 N
HETATM   15  C1  UNL     1      17.870  33.912  12.674  1.00  0.00     0.161 C
ATOM     16  H1  UNL     1      16.076  32.716  13.028  1.00  0.00     0.173 HD
ENDBRANCH  11  14
ENDBRANCH   9  11
ENDBRANCH   8   9
BRANCH   8  17
HETATM   17  C3  UNL     1      16.266  32.310  16.488  1.00  0.00     0.190 C
BRANCH  17  18
HETATM   18  O3  UNL     1      17.461  32.192  15.788  1.00  0.00    -0.399 OA
ATOM     19  H3  UNL     1      18.181  32.537  16.302  1.00  0.00     0.209 HD
ENDBRANCH  17  18
ENDBRANCH   8  17
ENDBRANCH   7   8
ENDBRANCH   1   7
BRANCH   4  20
HETATM   20  O4  UNL     1      10.672  28.722  13.608  1.00  0.00    -0.350 OA
BRANCH  20  21
HETATM   21  C9  UNL     1       9.914  28.810  12.456  1.00  0.00     0.195 C
BRANCH  21  22
HETATM   22  C10 UNL     1       8.595  29.475  12.499  1.00  0.00     0.145 C
BRANCH  22  23
HETATM   23  N3  UNL     1       8.691  30.887  12.409  1.00  0.00    -0.396 N
ATOM     24  H3  UNL     1       9.551  31.319  12.072  1.00  0.00     0.158 HD
BRANCH  23  25
HETATM   25  C11 UNL     1       7.598  31.693  12.787  1.00  0.00     0.094 C
BRANCH  25  26
HETATM   26  C12 UNL     1       7.626  31.768  14.305  1.00  0.00    -0.021 A
HETATM   27  C13 UNL     1       6.596  31.270  15.056  1.00  0.00     0.013 A
HETATM   28  C14 UNL     1       6.677  31.367  16.446  1.00  0.00     0.001 A
HETATM   29  C15 UNL     1       7.754  31.943  17.061  1.00  0.00     0.000 A
HETATM   30  C16 UNL     1       8.795  32.447  16.307  1.00  0.00     0.001 A
HETATM   31  C17 UNL     1       8.701  32.344  14.942  1.00  0.00     0.013 A
ENDBRANCH  25  26
ENDBRANCH  23  25
ENDBRANCH  22  23
ENDBRANCH  21  22
ENDBRANCH  20  21
ENDBRANCH   4  20
TORSDOF 13
ENDMDL