MODEL 3
REMARK VINA RESULT: -7.155438137      1.962      4.593
REMARK  11 active torsions:
REMARK  status: ('A' for Active; 'I' for Inactive)
REMARK    1  A    between atoms: O1_2  and  C2_3
REMARK    2  A    between atoms: C2_3  and  C3_4
REMARK    3  A    between atoms: C3_4  and  C4_5
REMARK    4  A    between atoms: C3_4  and  N3_13
REMARK    5  A    between atoms: C4_5  and  C5_6
REMARK    6  A    between atoms: N3_13  and  N4_21
REMARK    7  A    between atoms: C8_14  and  C9_15
REMARK       I    between atoms: N4_21  and  C15_23
REMARK    8  A    between atoms: C15_23  and  C16_25
REMARK    9  A    between atoms: C16_25  and  N5_26
REMARK   10  A    between atoms: C16_25  and  C17_30
REMARK   11  A    between atoms: C17_30  and  C18_31
ROOT
HETATM    1  N3  UNL     1      11.654  31.511  15.138  1.00  0.00    -0.293 N
HETATM    2  C8  UNL     1      12.853  31.970  14.691  1.00  0.00     0.122 C
ENDROOT
BRANCH   1   3
HETATM    3  C3  UNL     1      10.911  32.046  16.252  1.00  0.00     0.137 C
BRANCH   3   4
HETATM    4  C2  UNL     1       9.558  32.468  15.849  1.00  0.00     0.194 C
BRANCH   4   5
HETATM    5  O1  UNL     1       8.595  31.466  15.901  1.00  0.00    -0.394 OA
HETATM    6  C1  UNL     1       7.454  31.842  16.631  1.00  0.00     0.201 C
ENDBRANCH   4   5
ENDBRANCH   3   4
BRANCH   3   7
HETATM    7  C4  UNL     1      10.872  30.997  17.337  1.00  0.00     0.088 C
BRANCH   7   8
HETATM    8  C5  UNL     1      11.848  31.158  18.388  1.00  0.00     0.027 A
HETATM    9  C6  UNL     1      12.464  32.269  18.930  1.00  0.00     0.114 A
HETATM   10  N1  UNL     1      13.288  31.891  19.917  1.00  0.00    -0.360 N
HETATM   11  C7  UNL     1      13.218  30.560  20.026  1.00  0.00     0.180 A
ATOM     12  H1  UNL     1      13.867  32.510  20.485  1.00  0.00     0.166 HD
HETATM   13  N2  UNL     1      12.360  30.107  19.116  1.00  0.00    -0.355 N
ATOM     14  H2  UNL     1      12.117  29.126  18.978  1.00  0.00     0.166 HD
ENDBRANCH   7   8
ENDBRANCH   3   7
ENDBRANCH   1   3
BRANCH   1  15
HETATM   15  N4  UNL     1      10.813  30.995  14.170  1.00  0.00    -0.266 N
HETATM   16  C15 UNL     1      10.716  29.649  13.768  1.00  0.00     0.267 C
HETATM   17  O2  UNL     1      11.404  28.719  14.259  1.00  0.00    -0.269 OA
ATOM     18  H4  UNL     1      10.199  31.658  13.697  1.00  0.00     0.190 HD
BRANCH  16  19
HETATM   19  C16 UNL     1       9.749  29.230  12.688  1.00  0.00     0.282 C
BRANCH  19  20
HETATM   20  N5  UNL     1      10.383  28.443  11.676  1.00  0.00    -0.066 N
ATOM     21  H53 UNL     1      10.966  27.714  12.086  1.00  0.00     0.275 HD
ATOM     22  H52 UNL     1       9.708  27.855  11.188  1.00  0.00     0.275 HD
ATOM     23  H51 UNL     1      10.914  29.018  11.022  1.00  0.00     0.275 HD
ENDBRANCH  19  20
BRANCH  19  24
HETATM   24  C17 UNL     1       9.290  30.545  12.065  1.00  0.00     0.099 C
BRANCH  24  25
HETATM   25  C18 UNL     1       7.943  30.926  12.512  1.00  0.00     0.011 A
HETATM   26  C19 UNL     1       6.875  30.071  12.643  1.00  0.00     0.026 A
HETATM   27  C20 UNL     1       5.790  30.808  13.088  1.00  0.00     0.019 A
HETATM   28  C21 UNL     1       6.242  32.104  13.213  1.00  0.00     0.088 A
HETATM   29  N6  UNL     1       7.543  32.154  12.861  1.00  0.00    -0.369 N
ATOM     30  H6  UNL     1       8.126  32.991  12.862  1.00  0.00     0.165 HD
ENDBRANCH  24  25
ENDBRANCH  19  24
ENDBRANCH  16  19
ENDBRANCH   1  15
BRANCH   2  31
HETATM   31  C9  UNL     1      14.080  31.918  15.488  1.00  0.00    -0.019 A
HETATM   32  C10 UNL     1      14.474  30.812  16.202  1.00  0.00     0.013 A
HETATM   33  C11 UNL     1      15.660  30.794  16.915  1.00  0.00     0.001 A
HETATM   34  C12 UNL     1      16.487  31.895  16.928  1.00  0.00     0.000 A
HETATM   35  C13 UNL     1      16.106  33.013  16.217  1.00  0.00     0.001 A
HETATM   36  C14 UNL     1      14.926  33.013  15.515  1.00  0.00     0.013 A
ENDBRANCH   2  31
TORSDOF 11
ENDMDL