MODEL 1
REMARK VINA RESULT: -7.662660876      0.000      0.000
REMARK  11 active torsions:
REMARK  status: ('A' for Active; 'I' for Inactive)
REMARK       I    between atoms: C1_2  and  N2_3
REMARK    1  A    between atoms: N3_6  and  C2_8
REMARK    2  A    between atoms: C2_8  and  C3_9
REMARK    3  A    between atoms: C3_9  and  C4_10
REMARK    4  A    between atoms: C6_12  and  C7_13
REMARK    5  A    between atoms: C7_13  and  N4_14
REMARK    6  A    between atoms: N4_14  and  C8_16
REMARK    7  A    between atoms: C8_16  and  C9_17
REMARK    8  A    between atoms: C13_24  and  O1_25
REMARK    9  A    between atoms: O1_25  and  C14_26
REMARK   10  A    between atoms: C14_26  and  C15_27
REMARK   11  A    between atoms: C15_27  and  C16_28
ROOT
HETATM    1  C4  UNL     1      11.980  30.628  14.441  1.00  0.00    -0.053 A
HETATM    2  C5  UNL     1      13.060  31.363  15.017  1.00  0.00     0.020 A
HETATM    3  C6  UNL     1      12.923  32.398  15.917  1.00  0.00    -0.018 A
HETATM    4  C12 UNL     1      11.670  32.795  16.294  1.00  0.00     0.049 A
HETATM    5  C13 UNL     1      10.564  32.084  15.733  1.00  0.00     0.070 A
HETATM    6  C21 UNL     1      10.788  31.093  14.891  1.00  0.00     0.044 A
ENDROOT
BRANCH   3   7
HETATM    7  C7  UNL     1      14.181  32.963  16.547  1.00  0.00     0.098 C
BRANCH   7   8
HETATM    8  N4  UNL     1      15.367  32.622  15.867  1.00  0.00    -0.378 N
ATOM      9  H4  UNL     1      15.734  31.672  15.910  1.00  0.00     0.164 HD
BRANCH   8  10
HETATM   10  C8  UNL     1      16.020  33.593  15.145  1.00  0.00     0.068 C
BRANCH  10  11
HETATM   11  C9  UNL     1      15.628  34.437  14.072  1.00  0.00     0.075 C
HETATM   12  C10 UNL     1      14.906  35.737  14.329  1.00  0.00     0.243 C
HETATM   13  N5  UNL     1      15.311  36.076  12.891  1.00  0.00    -0.074 N
HETATM   14  C11 UNL     1      16.533  35.289  13.279  1.00  0.00     0.243 C
ATOM     15  H52 UNL     1      14.736  35.864  12.075  1.00  0.00     0.277 HD
ATOM     16  H51 UNL     1      15.344  37.027  12.521  1.00  0.00     0.277 HD
ENDBRANCH  10  11
ENDBRANCH   8  10
ENDBRANCH   7   8
ENDBRANCH   3   7
BRANCH   1  17
HETATM   17  C3  UNL     1      12.290  29.416  13.694  1.00  0.00     0.058 C
BRANCH  17  18
HETATM   18  C2  UNL     1      11.093  28.845  12.860  1.00  0.00     0.127 C
BRANCH  18  19
HETATM   19  N3  UNL     1      11.523  29.100  11.537  1.00  0.00    -0.365 N
HETATM   20  C1  UNL     1      11.465  28.739  10.410  1.00  0.00     0.181 C
HETATM   21  N1  UNL     1      12.461  29.888   9.760  1.00  0.00    -0.064 NA
HETATM   22  N2  UNL     1      11.081  27.998   9.318  1.00  0.00    -0.374 N
ATOM     23  H22 UNL     1      11.030  27.687   8.348  1.00  0.00     0.158 HD
ATOM     24  H21 UNL     1      10.466  27.290   9.719  1.00  0.00     0.158 HD
ATOM     25  H3  UNL     1      12.123  29.924  11.564  1.00  0.00     0.162 HD
ENDBRANCH  18  19
ENDBRANCH  17  18
ENDBRANCH   1  17
BRANCH   5  26
HETATM   26  O1  UNL     1       9.358  32.502  16.128  1.00  0.00    -0.351 OA
BRANCH  26  27
HETATM   27  C14 UNL     1       8.239  32.806  16.461  1.00  0.00     0.180 C
BRANCH  27  28
HETATM   28  C15 UNL     1       7.063  31.742  16.529  1.00  0.00     0.062 C
BRANCH  28  29
HETATM   29  C16 UNL     1       6.863  31.612  15.012  1.00  0.00    -0.060 A
HETATM   30  C17 UNL     1       7.277  30.555  14.397  1.00  0.00     0.006 A
HETATM   31  C18 UNL     1       7.027  29.975  13.168  1.00  0.00     0.017 A
HETATM   32  C19 UNL     1       6.072  30.859  12.464  1.00  0.00     0.083 A
HETATM   33  N6  UNL     1       5.638  31.929  12.994  1.00  0.00    -0.395 N
HETATM   34  C20 UNL     1       5.941  32.455  14.292  1.00  0.00     0.153 A
ATOM     35  H6  UNL     1       4.997  32.483  12.426  1.00  0.00     0.159 HD
ENDBRANCH  28  29
ENDBRANCH  27  28
ENDBRANCH  26  27
ENDBRANCH   5  26
TORSDOF 11
ENDMDL