MODEL 1
REMARK VINA RESULT: -6.764280474      0.000      0.000
REMARK  12 active torsions:
REMARK  status: ('A' for Active; 'I' for Inactive)
REMARK    1  A    between atoms: N1_2  and  C2_4
REMARK    2  A    between atoms: C3_7  and  C4_8
REMARK    3  A    between atoms: C4_8  and  C5_9
REMARK    4  A    between atoms: C5_9  and  C6_10
REMARK    5  A    between atoms: C6_10  and  N3_11
REMARK    6  A    between atoms: N3_11  and  C7_13
REMARK    7  A    between atoms: N5_17  and  C9_18
REMARK    8  A    between atoms: C9_18  and  C10_19
REMARK    9  A    between atoms: C11_20  and  C12_21
REMARK   10  A    between atoms: C12_21  and  C13_22
REMARK   11  A    between atoms: C13_22  and  O1_23
REMARK   12  A    between atoms: C16_27  and  N7_28
ROOT
HETATM    1  C7  UNL     1       9.071  32.678  15.980  1.00  0.00     0.132 A
HETATM    2  N4  UNL     1      10.057  32.006  15.259  1.00  0.00    -0.337 N
ATOM      3  H4  UNL     1       9.782  31.289  14.587  1.00  0.00     0.168 HD
HETATM    4  C8  UNL     1      11.356  32.278  15.427  1.00  0.00     0.186 A
HETATM    5  N5  UNL     1      11.776  33.198  16.283  1.00  0.00    -0.326 N
HETATM    6  C15 UNL     1      10.883  33.874  17.001  1.00  0.00     0.150 A
HETATM    7  N6  UNL     1      11.278  34.871  17.934  1.00  0.00    -0.080 NA
HETATM    8  C16 UNL     1       9.500  33.628  16.865  1.00  0.00     0.114 A
ENDROOT
BRANCH   1   9
HETATM    9  N3  UNL     1       7.887  32.344  15.756  1.00  0.00    -0.374 N
ATOM     10  H3  UNL     1       7.590  31.557  16.333  1.00  0.00     0.161 HD
BRANCH   9  11
HETATM   11  C6  UNL     1       6.894  32.782  14.920  1.00  0.00     0.121 C
BRANCH  11  12
HETATM   12  C5  UNL     1       6.106  31.636  14.251  1.00  0.00     0.026 C
BRANCH  12  13
HETATM   13  C4  UNL     1       6.403  31.602  12.769  1.00  0.00     0.059 C
BRANCH  13  14
HETATM   14  C3  UNL     1       7.596  30.675  12.627  1.00  0.00     0.018 A
HETATM   15  N2  UNL     1       8.767  31.105  12.243  1.00  0.00    -0.340 N
HETATM   16  C2  UNL     1       9.764  30.225  12.143  1.00  0.00     0.144 A
ATOM     17  H2  UNL     1       8.915  32.089  12.023  1.00  0.00     0.168 HD
HETATM   18  S1  UNL     1       9.033  28.757  12.602  1.00  0.00    -0.064 SA
HETATM   19  C18 UNL     1       7.458  29.345  12.906  1.00  0.00     0.078 A
BRANCH  16  20
HETATM   20  N1  UNL     1      11.011  30.428  11.781  1.00  0.00    -0.375 N
HETATM   21  C1  UNL     1      11.595  29.581  10.777  1.00  0.00     0.148 C
ATOM     22  H1  UNL     1      11.557  31.176  12.207  1.00  0.00     0.161 HD
ENDBRANCH  16  20
ENDBRANCH  13  14
ENDBRANCH  12  13
ENDBRANCH  11  12
ENDBRANCH   9  11
ENDBRANCH   1   9
BRANCH   8  23
HETATM   23  N7  UNL     1       8.597  34.383  17.638  1.00  0.00    -0.389 N
HETATM   24  C17 UNL     1       7.999  33.929  18.890  1.00  0.00     0.146 C
ATOM     25  H7  UNL     1       8.343  35.311  17.301  1.00  0.00     0.159 HD
ENDBRANCH   8  23
BRANCH   5  26
HETATM   26  C9  UNL     1      13.222  33.496  16.463  1.00  0.00     0.158 C
BRANCH  26  27
HETATM   27  C10 UNL     1      14.003  32.841  15.399  1.00  0.00    -0.011 C
HETATM   28  C11 UNL     1      14.595  33.486  14.257  1.00  0.00    -0.027 C
BRANCH  28  29
HETATM   29  C12 UNL     1      15.598  34.539  14.239  1.00  0.00     0.053 C
BRANCH  29  30
HETATM   30  C13 UNL     1      15.313  35.785  13.521  1.00  0.00     0.170 C
BRANCH  30  31
HETATM   31  O1  UNL     1      16.018  36.898  13.811  1.00  0.00    -0.396 OA
HETATM   32  C14 UNL     1      15.977  37.239  15.139  1.00  0.00     0.201 C
ENDBRANCH  30  31
ENDBRANCH  29  30
ENDBRANCH  28  29
ENDBRANCH  26  27
ENDBRANCH   5  26
TORSDOF 12
ENDMDL