MODEL 3
REMARK VINA RESULT: -6.982769101      0.882      1.019
REMARK  13 active torsions:
REMARK  status: ('A' for Active; 'I' for Inactive)
REMARK    1  A    between atoms: N1_2  and  S1_4
REMARK    2  A    between atoms: S1_4  and  C2_7
REMARK    3  A    between atoms: C2_7  and  C3_8
REMARK    4  A    between atoms: C3_8  and  C4_9
REMARK    5  A    between atoms: C4_9  and  C5_10
REMARK    6  A    between atoms: C5_10  and  C6_11
REMARK    7  A    between atoms: C6_11  and  C7_12
REMARK    8  A    between atoms: C7_12  and  C8_13
REMARK    9  A    between atoms: C8_13  and  N2_14
REMARK   10  A    between atoms: N2_14  and  C9_16
REMARK   11  A    between atoms: C10_19  and  N4_20
REMARK   12  A    between atoms: C12_26  and  C13_27
REMARK   13  A    between atoms: C13_27  and  C14_28
ROOT
HETATM    1  C9  UNL     1       9.872  30.004  12.363  1.00  0.00     0.124 A
HETATM    2  N3  UNL     1      10.026  29.576  11.101  1.00  0.00    -0.177 N
ATOM      3  H3  UNL     1       9.367  29.853  10.374  1.00  0.00     0.186 HD
HETATM    4  C10 UNL     1      11.078  28.768  10.811  1.00  0.00     0.677 A
HETATM    5  N5  UNL     1      11.960  28.389  11.750  1.00  0.00    -0.202 N
ATOM      6  H5  UNL     1      12.733  27.781  11.481  1.00  0.00     0.183 HD
HETATM    7  C11 UNL     1      11.862  28.781  13.027  1.00  0.00     0.117 A
HETATM    8  C12 UNL     1      10.787  29.614  13.349  1.00  0.00     0.006 A
ENDROOT
BRANCH   1   9
HETATM    9  N2  UNL     1       8.895  30.765  12.654  1.00  0.00    -0.375 N
ATOM     10  H2  UNL     1       9.090  31.684  13.052  1.00  0.00     0.161 HD
BRANCH   9  11
HETATM   11  C8  UNL     1       7.534  30.380  12.443  1.00  0.00     0.121 C
BRANCH  11  12
HETATM   12  C7  UNL     1       6.540  31.430  12.895  1.00  0.00     0.020 C
BRANCH  12  13
HETATM   13  C6  UNL     1       5.881  30.932  14.138  1.00  0.00     0.002 C
BRANCH  13  14
HETATM   14  C5  UNL     1       6.618  31.364  15.398  1.00  0.00     0.000 C
BRANCH  14  15
HETATM   15  C4  UNL     1       7.084  32.772  15.195  1.00  0.00     0.001 C
BRANCH  15  16
HETATM   16  C3  UNL     1       8.456  32.965  15.762  1.00  0.00     0.017 C
BRANCH  16  17
HETATM   17  C2  UNL     1       8.437  33.181  17.247  1.00  0.00     0.163 C
BRANCH  17  18
HETATM   18  S1  UNL     1       9.802  34.270  17.652  1.00  0.00     0.226 S
HETATM   19  O1  UNL     1      10.531  33.681  18.807  1.00  0.00    -0.206 OA
HETATM   20  O2  UNL     1      10.661  34.416  16.439  1.00  0.00    -0.206 OA
BRANCH  18  21
HETATM   21  N1  UNL     1       9.200  35.845  18.046  1.00  0.00    -0.324 N
HETATM   22  C1  UNL     1       9.986  36.846  17.350  1.00  0.00     0.159 C
ATOM     23  H1  UNL     1       8.417  36.038  18.671  1.00  0.00     0.171 HD
ENDBRANCH  18  21
ENDBRANCH  17  18
ENDBRANCH  16  17
ENDBRANCH  15  16
ENDBRANCH  14  15
ENDBRANCH  13  14
ENDBRANCH  12  13
ENDBRANCH  11  12
ENDBRANCH   9  11
ENDBRANCH   1   9
BRANCH   8  24
HETATM   24  C13 UNL     1      10.600  30.083  14.715  1.00  0.00     0.083 C
BRANCH  24  25
HETATM   25  C14 UNL     1      11.645  30.940  15.270  1.00  0.00    -0.038 A
HETATM   26  C15 UNL     1      12.544  31.582  14.460  1.00  0.00     0.010 A
HETATM   27  C16 UNL     1      13.519  32.405  15.010  1.00  0.00     0.018 A
HETATM   28  C17 UNL     1      13.555  32.553  16.371  1.00  0.00     0.087 A
HETATM   29  N6  UNL     1      12.673  31.919  17.135  1.00  0.00    -0.375 N
HETATM   30  C18 UNL     1      11.729  31.124  16.628  1.00  0.00     0.095 A
ATOM     31  H6  UNL     1      12.719  32.044  18.146  1.00  0.00     0.164 HD
ENDBRANCH  24  25
ENDBRANCH   8  24
BRANCH   4  32
HETATM   32  N4  UNL     1      11.234  28.353   9.605  1.00  0.00    -0.234 N
ATOM     33  H42 UNL     1      10.480  28.491   8.933  1.00  0.00     0.174 HD
ATOM     34  H41 UNL     1      12.109  27.896   9.346  1.00  0.00     0.174 HD
ENDBRANCH   4  32
TORSDOF 13
ENDMDL