MODEL 4
REMARK VINA RESULT: -6.917524193      1.821      3.049
REMARK  13 active torsions:
REMARK  status: ('A' for Active; 'I' for Inactive)
REMARK    1  A    between atoms: N1_2  and  C3_4
REMARK    2  A    between atoms: C3_4  and  C4_5
REMARK    3  A    between atoms: C4_5  and  O1_6
REMARK    4  A    between atoms: O1_6  and  C5_7
REMARK    5  A    between atoms: C5_7  and  C6_8
REMARK    6  A    between atoms: C6_8  and  C7_9
REMARK    7  A    between atoms: N3_14  and  C10_16
REMARK    8  A    between atoms: C10_16  and  C11_20
REMARK    9  A    between atoms: C11_20  and  C12_21
REMARK   10  A    between atoms: C12_21  and  C13_22
REMARK   11  A    between atoms: C13_22  and  C14_23
REMARK   12  A    between atoms: C14_23  and  C15_24
REMARK   13  A    between atoms: C19_28  and  N5_29
ROOT
HETATM    1  C10 UNL     1       7.942  31.913  16.417  1.00  0.00     0.091 C
HETATM    2  N4  UNL     1       7.752  32.253  17.640  1.00  0.00    -0.388 N
ATOM      3  H41 UNL     1       7.066  32.967  17.885  1.00  0.00     0.157 HD
ATOM      4  H42 UNL     1       8.300  31.788  18.364  1.00  0.00     0.157 HD
ENDROOT
BRANCH   1   5
HETATM    5  N3  UNL     1       8.869  30.947  16.086  1.00  0.00    -0.181 N
HETATM    6  C9  UNL     1      10.114  30.982  15.896  1.00  0.00     0.685 A
HETATM    7  N2  UNL     1      10.793  29.835  15.570  1.00  0.00    -0.200 N
HETATM    8  N7  UNL     1      11.017  31.977  15.945  1.00  0.00    -0.190 N
HETATM    9  C8  UNL     1      12.088  30.117  15.422  1.00  0.00     0.132 A
ATOM     10  H2  UNL     1      10.373  28.912  15.459  1.00  0.00     0.183 HD
HETATM   11  C7  UNL     1      12.239  31.462  15.655  1.00  0.00     0.046 A
HETATM   12  C20 UNL     1      10.733  33.361  16.252  1.00  0.00     0.175 C
ATOM     13  H3  UNL     1       8.465  30.017  15.972  1.00  0.00     0.185 HD
BRANCH  11  14
HETATM   14  C6  UNL     1      13.470  32.278  15.623  1.00  0.00     0.085 C
BRANCH  14  15
HETATM   15  C5  UNL     1      13.993  32.417  14.179  1.00  0.00     0.173 C
BRANCH  15  16
HETATM   16  O1  UNL     1      14.545  33.645  13.971  1.00  0.00    -0.389 OA
BRANCH  16  17
HETATM   17  C4  UNL     1      14.645  34.419  15.096  1.00  0.00     0.198 C
BRANCH  17  18
HETATM   18  C3  UNL     1      14.827  35.863  14.784  1.00  0.00     0.297 C
BRANCH  18  19
HETATM   19  N1  UNL     1      13.977  36.716  15.613  1.00  0.00     0.082 N
HETATM   20  C1  UNL     1      13.431  36.008  16.739  1.00  0.00     0.309 C
HETATM   21  C2  UNL     1      14.735  37.853  16.085  1.00  0.00     0.309 C
ENDBRANCH  18  19
ENDBRANCH  17  18
ENDBRANCH  16  17
ENDBRANCH  15  16
ENDBRANCH  14  15
ENDBRANCH  11  14
ENDBRANCH   1   5
BRANCH   1  22
HETATM   22  C11 UNL     1       7.147  32.588  15.367  1.00  0.00     0.076 C
BRANCH  22  23
HETATM   23  C12 UNL     1       5.936  31.765  14.971  1.00  0.00     0.008 C
BRANCH  23  24
HETATM   24  C13 UNL     1       5.881  31.571  13.474  1.00  0.00     0.006 C
BRANCH  24  25
HETATM   25  C14 UNL     1       7.169  31.944  12.799  1.00  0.00     0.057 C
BRANCH  25  26
HETATM   26  C15 UNL     1       8.087  30.766  12.641  1.00  0.00     0.010 A
HETATM   27  C16 UNL     1       7.670  29.468  12.826  1.00  0.00     0.025 A
HETATM   28  C17 UNL     1       8.533  28.408  12.674  1.00  0.00     0.006 A
HETATM   29  C18 UNL     1       9.852  28.665  12.325  1.00  0.00     0.048 A
HETATM   30  C19 UNL     1      10.270  29.961  12.140  1.00  0.00     0.098 A
HETATM   31  N6  UNL     1       9.386  30.955  12.301  1.00  0.00    -0.346 N
ATOM     32  H6  UNL     1       9.710  31.912  12.161  1.00  0.00     0.167 HD
BRANCH  30  33
HETATM   33  N5  UNL     1      11.496  30.173  11.815  1.00  0.00    -0.385 N
ATOM     34  H52 UNL     1      11.776  30.430  10.869  1.00  0.00     0.157 HD
ATOM     35  H51 UNL     1      12.214  30.077  12.533  1.00  0.00     0.157 HD
ENDBRANCH  30  33
ENDBRANCH  25  26
ENDBRANCH  24  25
ENDBRANCH  23  24
ENDBRANCH  22  23
ENDBRANCH   1  22
TORSDOF 13
ENDMDL