MODEL 1
REMARK VINA RESULT: -7.783993977      0.000      0.000
REMARK  12 active torsions:
REMARK  status: ('A' for Active; 'I' for Inactive)
REMARK    1  A    between atoms: C2_2  and  C3_3
REMARK    2  A    between atoms: C3_3  and  C4_4
REMARK    3  A    between atoms: C8_8  and  C9_9
REMARK    4  A    between atoms: C9_9  and  N1_10
REMARK    5  A    between atoms: N1_10  and  C10_13
REMARK    6  A    between atoms: C10_13  and  C11_14
REMARK    7  A    between atoms: C11_14  and  O1_15
REMARK    8  A    between atoms: C11_14  and  C12_17
REMARK    9  A    between atoms: C12_17  and  O2_18
REMARK   10  A    between atoms: O2_18  and  C13_19
REMARK   11  A    between atoms: C13_19  and  C14_20
REMARK   12  A    between atoms: C14_20  and  C15_21
REMARK       I    between atoms: N3_28  and  C20_30
ROOT
HETATM    1  C11 UNL     1      11.278  29.442  11.553  1.00  0.00     0.167 C
ENDROOT
BRANCH   1   2
HETATM    2  C10 UNL     1       9.918  29.991  11.878  1.00  0.00     0.266 C
BRANCH   2   3
HETATM    3  N1  UNL     1       8.851  29.075  11.657  1.00  0.00    -0.069 N
ATOM      4  H12 UNL     1       9.178  28.192  11.265  1.00  0.00     0.277 HD
ATOM      5  H11 UNL     1       8.249  29.365  10.886  1.00  0.00     0.277 HD
BRANCH   3   6
HETATM    6  C9  UNL     1       8.100  28.883  12.898  1.00  0.00     0.270 C
BRANCH   6   7
HETATM    7  C8  UNL     1       7.294  30.041  13.300  1.00  0.00    -0.032 A
HETATM    8  C7  UNL     1       6.265  30.521  12.547  1.00  0.00     0.009 A
HETATM    9  C6  UNL     1       5.617  31.700  12.941  1.00  0.00     0.001 A
HETATM   10  C5  UNL     1       6.038  32.366  14.101  1.00  0.00     0.007 A
HETATM   11  C4  UNL     1       7.068  31.896  14.866  1.00  0.00    -0.054 A
HETATM   12  C21 UNL     1       7.675  30.739  14.452  1.00  0.00     0.016 A
BRANCH  11  13
HETATM   13  C3  UNL     1       7.650  32.528  16.069  1.00  0.00     0.064 C
BRANCH  13  14
HETATM   14  C2  UNL     1       8.073  31.625  17.131  1.00  0.00    -0.032 C
HETATM   15  C1  UNL     1       7.245  31.354  18.134  1.00  0.00     0.007 C
ENDBRANCH  13  14
ENDBRANCH  11  13
ENDBRANCH   6   7
ENDBRANCH   3   6
ENDBRANCH   2   3
ENDBRANCH   1   2
BRANCH   1  16
HETATM   16  O1  UNL     1      11.931  29.893  10.499  1.00  0.00    -0.392 OA
ATOM     17  H1  UNL     1      12.869  29.757  10.432  1.00  0.00     0.210 HD
ENDBRANCH   1  16
BRANCH   1  18
HETATM   18  C12 UNL     1      11.923  29.070  12.825  1.00  0.00     0.200 C
BRANCH  18  19
HETATM   19  O2  UNL     1      11.069  29.037  13.917  1.00  0.00    -0.388 OA
BRANCH  19  20
HETATM   20  C13 UNL     1      11.752  29.752  14.920  1.00  0.00     0.172 C
BRANCH  20  21
HETATM   21  C14 UNL     1      11.490  31.176  15.073  1.00  0.00     0.068 C
BRANCH  21  22
HETATM   22  C15 UNL     1      12.558  32.165  14.985  1.00  0.00    -0.012 A
HETATM   23  C16 UNL     1      13.699  31.977  14.252  1.00  0.00     0.012 A
HETATM   24  C17 UNL     1      14.714  32.921  14.288  1.00  0.00     0.018 A
HETATM   25  C18 UNL     1      14.526  34.042  15.073  1.00  0.00     0.089 A
HETATM   26  N2  UNL     1      13.373  34.213  15.799  1.00  0.00    -0.352 N
HETATM   27  C19 UNL     1      12.381  33.329  15.792  1.00  0.00     0.115 A
ATOM     28  H2  UNL     1      13.274  35.054  16.368  1.00  0.00     0.166 HD
HETATM   29  N3  UNL     1      11.286  33.406  16.415  1.00  0.00    -0.297 N
HETATM   30  C20 UNL     1      10.783  34.363  17.267  1.00  0.00     0.334 C
ATOM     31  H3  UNL     1      10.661  32.615  16.258  1.00  0.00     0.171 HD
HETATM   32  N4  UNL     1      11.366  34.612  18.553  1.00  0.00    -0.040 NA
HETATM   33  O3  UNL     1       9.793  35.064  16.973  1.00  0.00    -0.251 OA
ENDBRANCH  21  22
ENDBRANCH  20  21
ENDBRANCH  19  20
ENDBRANCH  18  19
ENDBRANCH   1  18
TORSDOF 12
ENDMDL