MODEL 4
REMARK VINA RESULT: -6.982379574      1.911      2.226
REMARK  12 active torsions:
REMARK  status: ('A' for Active; 'I' for Inactive)
REMARK    1  A    between atoms: N1_1  and  C1_4
REMARK    2  A    between atoms: C4_7  and  C5_8
REMARK    3  A    between atoms: C5_8  and  C6_9
REMARK    4  A    between atoms: C6_9  and  S1_10
REMARK    5  A    between atoms: S1_10  and  N2_13
REMARK    6  A    between atoms: N2_13  and  C7_15
REMARK    7  A    between atoms: C7_15  and  C8_16
REMARK    8  A    between atoms: C8_16  and  C9_17
REMARK    9  A    between atoms: C9_17  and  C10_18
REMARK   10  A    between atoms: C10_18  and  C11_19
REMARK   11  A    between atoms: C11_19  and  O3_20
REMARK   12  A    between atoms: O3_20  and  C12_21
ROOT
HETATM    1  N2  UNL     1       9.270  32.225  14.896  1.00  0.00    -0.320 N
ATOM      2  H2  UNL     1       9.196  32.613  13.955  1.00  0.00     0.172 HD
ENDROOT
BRANCH   1   3
HETATM    3  S1  UNL     1      10.707  32.249  15.808  1.00  0.00     0.226 S
HETATM    4  O1  UNL     1      11.108  33.664  16.069  1.00  0.00    -0.206 OA
HETATM    5  O2  UNL     1      10.432  31.603  17.137  1.00  0.00    -0.206 OA
BRANCH   3   6
HETATM    6  C6  UNL     1      12.047  31.421  14.991  1.00  0.00     0.168 C
BRANCH   6   7
HETATM    7  C5  UNL     1      13.156  32.427  14.738  1.00  0.00     0.057 C
BRANCH   7   8
HETATM    8  C4  UNL     1      14.325  32.035  15.564  1.00  0.00    -0.042 A
HETATM    9  C3  UNL     1      15.411  32.871  15.695  1.00  0.00     0.012 A
HETATM   10  C2  UNL     1      16.489  32.491  16.466  1.00  0.00     0.048 A
HETATM   11  C1  UNL     1      16.461  31.259  17.103  1.00  0.00     0.098 A
HETATM   12  N4  UNL     1      15.412  30.438  16.984  1.00  0.00    -0.352 N
HETATM   13  C17 UNL     1      14.362  30.817  16.229  1.00  0.00     0.096 A
ATOM     14  H4  UNL     1      15.406  29.535  17.459  1.00  0.00     0.166 HD
BRANCH  11  15
HETATM   15  N1  UNL     1      17.467  30.923  17.814  1.00  0.00    -0.385 N
ATOM     16  H12 UNL     1      18.258  31.557  17.920  1.00  0.00     0.157 HD
ATOM     17  H11 UNL     1      17.455  30.009  18.265  1.00  0.00     0.157 HD
ENDBRANCH  11  15
ENDBRANCH   7   8
ENDBRANCH   6   7
ENDBRANCH   3   6
ENDBRANCH   1   3
BRANCH   1  18
HETATM   18  C7  UNL     1       8.164  31.597  15.589  1.00  0.00     0.132 C
BRANCH  18  19
HETATM   19  C8  UNL     1       6.874  32.210  15.036  1.00  0.00     0.020 C
BRANCH  19  20
HETATM   20  C9  UNL     1       6.084  31.089  14.443  1.00  0.00     0.004 C
BRANCH  20  21
HETATM   21  C10 UNL     1       6.137  31.043  12.932  1.00  0.00     0.027 C
BRANCH  21  22
HETATM   22  C11 UNL     1       7.139  30.043  12.479  1.00  0.00     0.175 C
BRANCH  22  23
HETATM   23  O3  UNL     1       8.394  30.525  12.217  1.00  0.00    -0.351 OA
BRANCH  23  24
HETATM   24  C12 UNL     1       9.612  29.931  12.091  1.00  0.00     0.075 A
HETATM   25  C13 UNL     1       9.998  29.093  13.140  1.00  0.00     0.054 A
HETATM   26  C14 UNL     1      11.212  28.459  13.081  1.00  0.00     0.094 A
HETATM   27  N3  UNL     1      12.040  28.627  12.036  1.00  0.00    -0.334 N
HETATM   28  C15 UNL     1      11.697  29.418  11.026  1.00  0.00     0.247 A
ATOM     29  H3  UNL     1      12.937  28.143  12.019  1.00  0.00     0.168 HD
HETATM   30  O4  UNL     1      12.450  29.607  10.015  1.00  0.00    -0.268 OA
HETATM   31  C16 UNL     1      10.482  30.073  11.049  1.00  0.00     0.111 A
ENDBRANCH  23  24
ENDBRANCH  22  23
ENDBRANCH  21  22
ENDBRANCH  20  21
ENDBRANCH  19  20
ENDBRANCH  18  19
ENDBRANCH   1  18
TORSDOF 12
ENDMDL