MODEL 5
REMARK VINA RESULT: -6.622216055      2.513      7.267
REMARK  13 active torsions:
REMARK  status: ('A' for Active; 'I' for Inactive)
REMARK    1  A    between atoms: N1_1  and  C1_5
REMARK    2  A    between atoms: C1_5  and  C2_6
REMARK    3  A    between atoms: C2_6  and  C3_7
REMARK    4  A    between atoms: C3_7  and  N2_8
REMARK    5  A    between atoms: N2_8  and  C4_10
REMARK    6  A    between atoms: C4_10  and  C5_11
REMARK    7  A    between atoms: C5_11  and  C6_12
REMARK    8  A    between atoms: C6_12  and  C7_13
REMARK    9  A    between atoms: C7_13  and  N3_14
REMARK   10  A    between atoms: N3_14  and  C8_16
REMARK   11  A    between atoms: C11_19  and  S1_20
REMARK   12  A    between atoms: S1_20  and  N4_23
REMARK   13  A    between atoms: N4_23  and  C12_25
ROOT
HETATM    1  C8  UNL     1      12.780  30.534  16.059  1.00  0.00     0.028 A
HETATM    2  C9  UNL     1      11.535  29.974  16.171  1.00  0.00     0.030 A
HETATM    3  C10 UNL     1      10.762  29.705  15.062  1.00  0.00     0.027 A
HETATM    4  C11 UNL     1      11.223  29.993  13.797  1.00  0.00     0.080 A
HETATM    5  C17 UNL     1      12.479  30.560  13.653  1.00  0.00     0.027 A
HETATM    6  C18 UNL     1      13.227  30.817  14.783  1.00  0.00     0.030 A
ENDROOT
BRANCH   1   7
HETATM    7  N3  UNL     1      13.615  30.819  17.161  1.00  0.00    -0.390 N
ATOM      8  H3  UNL     1      14.620  30.663  17.087  1.00  0.00     0.159 HD
BRANCH   7   9
HETATM    9  C7  UNL     1      13.048  31.337  18.412  1.00  0.00     0.120 C
BRANCH   9  10
HETATM   10  C6  UNL     1      13.169  32.828  18.470  1.00  0.00     0.025 C
BRANCH  10  11
HETATM   11  C5  UNL     1      12.018  33.554  17.885  1.00  0.00     0.046 C
BRANCH  11  12
HETATM   12  C4  UNL     1      12.244  34.231  16.590  1.00  0.00     0.060 C
BRANCH  12  13
HETATM   13  N2  UNL     1      13.060  35.323  16.462  1.00  0.00    -0.382 N
ATOM     14  H2  UNL     1      12.763  36.149  16.981  1.00  0.00     0.163 HD
BRANCH  13  15
HETATM   15  C3  UNL     1      14.219  35.475  15.737  1.00  0.00     0.061 C
BRANCH  15  16
HETATM   16  C2  UNL     1      14.558  34.464  14.714  1.00  0.00     0.072 C
BRANCH  16  17
HETATM   17  C1  UNL     1      15.627  34.899  13.771  1.00  0.00     0.234 C
BRANCH  17  18
HETATM   18  N1  UNL     1      15.209  36.086  13.009  1.00  0.00    -0.079 N
ATOM     19  H13 UNL     1      14.448  35.871  12.365  1.00  0.00     0.274 HD
ATOM     20  H12 UNL     1      14.724  36.760  13.601  1.00  0.00     0.274 HD
ATOM     21  H11 UNL     1      16.001  36.510  12.527  1.00  0.00     0.274 HD
ENDBRANCH  17  18
ENDBRANCH  16  17
ENDBRANCH  15  16
ENDBRANCH  13  15
ENDBRANCH  12  13
ENDBRANCH  11  12
ENDBRANCH  10  11
ENDBRANCH   9  10
ENDBRANCH   7   9
ENDBRANCH   1   7
BRANCH   4  22
HETATM   22  S1  UNL     1      10.200  29.630  12.437  1.00  0.00     0.264 S
HETATM   23  O1  UNL     1      11.083  29.358  11.251  1.00  0.00    -0.200 OA
HETATM   24  O2  UNL     1       9.461  28.336  12.751  1.00  0.00    -0.200 OA
BRANCH  22  25
HETATM   25  N4  UNL     1       9.015  30.818  12.158  1.00  0.00    -0.266 N
ATOM     26  H4  UNL     1       9.117  31.355  11.297  1.00  0.00     0.180 HD
BRANCH  25  27
HETATM   27  C12 UNL     1       8.021  31.121  12.886  1.00  0.00     0.114 A
HETATM   28  C13 UNL     1       6.773  30.584  12.839  1.00  0.00     0.049 A
HETATM   29  C14 UNL     1       5.754  30.973  13.680  1.00  0.00     0.005 A
HETATM   30  C15 UNL     1       6.006  31.954  14.614  1.00  0.00     0.017 A
HETATM   31  C16 UNL     1       7.269  32.485  14.648  1.00  0.00     0.089 A
HETATM   32  N5  UNL     1       8.252  32.093  13.820  1.00  0.00    -0.352 N
ATOM     33  H5  UNL     1       9.175  32.522  13.888  1.00  0.00     0.166 HD
ENDBRANCH  25  27
ENDBRANCH  22  25
ENDBRANCH   4  22
TORSDOF 13
ENDMDL