MODEL 3
REMARK VINA RESULT: -6.814514496      1.382      1.711
REMARK  12 active torsions:
REMARK  status: ('A' for Active; 'I' for Inactive)
REMARK    1  A    between atoms: N2_3  and  N3_5
REMARK    2  A    between atoms: C5_9  and  C6_10
REMARK    3  A    between atoms: C9_13  and  O1_14
REMARK    4  A    between atoms: O1_14  and  C10_15
REMARK    5  A    between atoms: C10_15  and  C11_16
REMARK    6  A    between atoms: C11_16  and  O2_17
REMARK    7  A    between atoms: C11_16  and  C12_19
REMARK    8  A    between atoms: C12_19  and  O3_20
REMARK    9  A    between atoms: O3_20  and  C13_21
REMARK   10  A    between atoms: C13_21  and  C14_22
REMARK   11  A    between atoms: C14_22  and  C15_23
REMARK   12  A    between atoms: C15_23  and  N4_24
REMARK       I    between atoms: N4_24  and  C16_26
ROOT
HETATM    1  N1  UNL     1      12.274  29.775  10.048  1.00  0.00    -0.170 NA
HETATM    2  C1  UNL     1      11.430  29.228  10.621  1.00  0.00     0.198 C
HETATM    3  N2  UNL     1      10.400  28.570  11.308  1.00  0.00    -0.231 N
ATOM      4  H2  UNL     1      10.189  27.590  11.120  1.00  0.00     0.200 HD
ENDROOT
BRANCH   3   5
HETATM    5  N3  UNL     1       9.661  29.302  12.267  1.00  0.00    -0.269 N
HETATM    6  C2  UNL     1       8.360  29.516  12.024  1.00  0.00     0.116 A
HETATM    7  C3  UNL     1       7.657  30.233  12.976  1.00  0.00     0.020 A
HETATM    8  C4  UNL     1       8.264  30.711  14.128  1.00  0.00     0.015 A
HETATM    9  C5  UNL     1       9.605  30.478  14.356  1.00  0.00    -0.008 A
HETATM   10  C19 UNL     1      10.284  29.754  13.381  1.00  0.00     0.128 A
BRANCH   9  11
HETATM   11  C6  UNL     1      10.279  30.965  15.557  1.00  0.00    -0.024 A
HETATM   12  C7  UNL     1      10.889  30.091  16.441  1.00  0.00     0.015 A
HETATM   13  C8  UNL     1      11.516  30.560  17.559  1.00  0.00     0.037 A
HETATM   14  C9  UNL     1      11.579  31.884  17.870  1.00  0.00     0.068 A
HETATM   15  C17 UNL     1      10.976  32.775  16.999  1.00  0.00     0.037 A
HETATM   16  C18 UNL     1      10.333  32.331  15.856  1.00  0.00     0.015 A
BRANCH  14  17
HETATM   17  O1  UNL     1      12.205  32.362  18.989  1.00  0.00    -0.349 OA
BRANCH  17  18
HETATM   18  C10 UNL     1      13.299  33.209  19.027  1.00  0.00     0.209 C
BRANCH  18  19
HETATM   19  C11 UNL     1      14.553  32.372  19.329  1.00  0.00     0.166 C
BRANCH  19  20
HETATM   20  O2  UNL     1      14.112  31.168  19.940  1.00  0.00    -0.391 OA
ATOM     21  H2  UNL     1      14.123  30.495  19.269  1.00  0.00     0.210 HD
ENDBRANCH  19  20
BRANCH  19  22
HETATM   22  C12 UNL     1      15.261  31.981  18.079  1.00  0.00     0.201 C
BRANCH  22  23
HETATM   23  O3  UNL     1      14.829  32.578  16.925  1.00  0.00    -0.388 OA
BRANCH  23  24
HETATM   24  C13 UNL     1      14.562  31.702  15.884  1.00  0.00     0.169 C
BRANCH  24  25
HETATM   25  C14 UNL     1      14.020  32.431  14.667  1.00  0.00     0.046 C
BRANCH  25  26
HETATM   26  C15 UNL     1      15.154  33.254  14.092  1.00  0.00     0.124 C
BRANCH  26  27
HETATM   27  N4  UNL     1      14.969  34.656  14.417  1.00  0.00    -0.365 N
HETATM   28  C16 UNL     1      15.606  35.664  13.663  1.00  0.00     0.181 C
HETATM   29  N5  UNL     1      14.965  36.281  12.747  1.00  0.00    -0.374 N
HETATM   30  N6  UNL     1      16.947  35.990  13.921  1.00  0.00    -0.064 NA
ATOM     31  H52 UNL     1      13.991  36.045  12.559  1.00  0.00     0.158 HD
ATOM     32  H51 UNL     1      15.426  37.010  12.202  1.00  0.00     0.158 HD
ATOM     33  H4  UNL     1      14.371  34.916  15.201  1.00  0.00     0.162 HD
ENDBRANCH  26  27
ENDBRANCH  25  26
ENDBRANCH  24  25
ENDBRANCH  23  24
ENDBRANCH  22  23
ENDBRANCH  19  22
ENDBRANCH  18  19
ENDBRANCH  17  18
ENDBRANCH  14  17
ENDBRANCH   9  11
ENDBRANCH   3   5
TORSDOF 12
ENDMDL