MODEL 2
REMARK VINA RESULT: -3.561764240      2.216      2.900
REMARK  0 active torsions:
REMARK  status: ('A' for Active; 'I' for Inactive)
ROOT
HETATM    1  F1  UNL     1      10.597  -0.187   7.962  1.00  0.00    -0.206 F
HETATM    2  C1  UNL     1       9.629  -1.205   7.963  1.00  0.00     0.245 C
HETATM    3  F2  UNL     1       9.261  -1.316   9.315  1.00  0.00    -0.206 F
HETATM    4  C2  UNL     1       8.453  -0.695   7.232  1.00  0.00     0.089 C
HETATM    5  C3  UNL     1       7.790  -1.785   6.383  1.00  0.00     0.038 C
HETATM    6  C4  UNL     1       7.525  -3.021   7.204  1.00  0.00     0.011 C
HETATM    7  C5  UNL     1       8.566  -4.042   6.795  1.00  0.00     0.011 C
HETATM    8  C6  UNL     1       9.684  -3.109   6.300  1.00  0.00     0.038 C
HETATM    9  C7  UNL     1      10.261  -2.439   7.501  1.00  0.00     0.089 C
HETATM   10  C8  UNL     1       8.886  -2.195   5.438  1.00  0.00     0.003 C
HETATM   11  N1  UNL     1       9.022  -1.819   4.244  1.00  0.00    -0.327 N
ATOM     12  H1  UNL     1       9.808  -2.162   3.690  1.00  0.00     0.174 HD
HETATM   13  S1  UNL     1       7.878  -0.716   3.534  1.00  0.00     0.042 SA
ENDROOT
TORSDOF 0
ENDMDL