MODEL 5
REMARK VINA RESULT: -1.664832658      1.874      3.466
REMARK  0 active torsions:
REMARK  status: ('A' for Active; 'I' for Inactive)
ROOT
HETATM    1  C1  UNL     1      11.294  -3.936   5.758  1.00  0.00     0.046 C
HETATM    2  C2  UNL     1      10.434  -3.463   6.932  1.00  0.00     0.123 C
HETATM    3  C3  UNL     1      10.495  -4.586   7.969  1.00  0.00     0.046 C
HETATM    4  C4  UNL     1       9.048  -3.212   6.441  1.00  0.00     0.100 C
HETATM    5  C5  UNL     1       8.723  -1.805   6.864  1.00  0.00     0.225 C
HETATM    6  F1  UNL     1       8.720  -0.974   5.754  1.00  0.00    -0.224 F
HETATM    7  C6  UNL     1       7.471  -1.738   7.594  1.00  0.00     0.106 C
HETATM    8  N1  UNL     1       6.456  -1.665   8.186  1.00  0.00    -0.194 NA
HETATM    9  C7  UNL     1       9.841  -1.374   7.761  1.00  0.00     0.168 C
HETATM   10  C8  UNL     1       9.434  -1.270   9.204  1.00  0.00     0.050 C
HETATM   11  C9  UNL     1      10.373   0.018   7.381  1.00  0.00     0.050 C
HETATM   12  N2  UNL     1      10.934  -2.283   7.546  1.00  0.00    -0.054 N
ATOM     13  H21 UNL     1      11.695  -1.860   7.013  1.00  0.00     0.279 HD
ATOM     14  H22 UNL     1      11.453  -2.479   8.402  1.00  0.00     0.279 HD
ENDROOT
TORSDOF 0
ENDMDL