MODEL 1
REMARK VINA RESULT: -3.495506927      0.000      0.000
REMARK  1 active torsions:
REMARK  status: ('A' for Active; 'I' for Inactive)
REMARK    1  A    between atoms: N1_1  and  C1_5
ROOT
HETATM    1  C1  UNL     1       9.994  -1.008   7.917  1.00  0.00     0.252 C
HETATM    2 CL1  UNL     1      10.154   0.655   7.380  1.00  0.00    -0.076 Cl
HETATM    3  S1  UNL     1       8.869  -2.037   6.917  1.00  0.00    -0.109 SA
HETATM    4  C2  UNL     1       7.976  -1.737   8.424  1.00  0.00     0.059 C
HETATM    5  C3  UNL     1       7.023  -0.550   8.263  1.00  0.00     0.016 C
HETATM    6  C4  UNL     1       6.446  -0.320   9.644  1.00  0.00     0.001 C
HETATM    7  C5  UNL     1       7.552   0.043  10.572  1.00  0.00     0.001 C
HETATM    8  C6  UNL     1       8.918  -0.063  10.020  1.00  0.00     0.010 C
HETATM    9  C7  UNL     1       9.191  -1.241   9.161  1.00  0.00     0.062 C
ENDROOT
BRANCH   1  10
HETATM   10  N1  UNL     1      11.312  -1.655   7.906  1.00  0.00    -0.047 N
ATOM     11  H13 UNL     1      11.588  -1.953   6.970  1.00  0.00     0.277 HD
ATOM     12  H12 UNL     1      12.069  -0.992   8.077  1.00  0.00     0.277 HD
ATOM     13  H11 UNL     1      11.318  -2.426   8.574  1.00  0.00     0.277 HD
ENDBRANCH   1  10
TORSDOF 1
ENDMDL