MODEL 5
REMARK VINA RESULT: -2.244786658      2.407      3.565
REMARK  1 active torsions:
REMARK  status: ('A' for Active; 'I' for Inactive)
REMARK    1  A    between atoms: C7_10  and  O1_12
ROOT
HETATM    1  C1  UNL     1       9.049  -4.985   6.507  1.00  0.00     0.314 C
HETATM    2  N1  UNL     1       9.447  -3.678   7.002  1.00  0.00     0.119 N
HETATM    3  C2  UNL     1       8.968  -2.710   6.064  1.00  0.00     0.281 C
HETATM    4  C3  UNL     1       9.023  -1.299   6.501  1.00  0.00     0.109 C
HETATM    5  C4  UNL     1       9.390  -1.115   7.948  1.00  0.00     0.245 C
HETATM    6  F1  UNL     1       9.015   0.156   8.380  1.00  0.00    -0.206 F
HETATM    7  F2  UNL     1       8.841  -2.025   8.788  1.00  0.00    -0.206 F
HETATM    8  C5  UNL     1      10.919  -1.219   7.983  1.00  0.00     0.084 C
HETATM    9  C6  UNL     1      11.279  -2.638   8.285  1.00  0.00     0.077 C
HETATM   10  C7  UNL     1      10.835  -3.635   7.278  1.00  0.00     0.254 C
HETATM   11  C8  UNL     1      11.259  -4.998   7.807  1.00  0.00     0.081 C
ENDROOT
BRANCH  10  12
HETATM   12  O1  UNL     1      11.595  -3.429   6.103  1.00  0.00    -0.363 OA
ATOM     13  H1  UNL     1      11.883  -2.527   6.025  1.00  0.00     0.212 HD
ENDBRANCH  10  12
TORSDOF 1
ENDMDL