MODEL 1
REMARK VINA RESULT: -4.297006832      0.000      0.000
REMARK  1 active torsions:
REMARK  status: ('A' for Active; 'I' for Inactive)
REMARK    1  A    between atoms: C9_12  and  O1_13
ROOT
HETATM    1  N1  UNL     1      10.556  -4.987   7.415  1.00  0.00    -0.197 NA
HETATM    2  C1  UNL     1       9.823  -4.216   6.978  1.00  0.00     0.065 C
HETATM    3  C2  UNL     1       8.892  -3.268   6.448  1.00  0.00     0.115 C
HETATM    4  C3  UNL     1       9.306  -2.601   5.138  1.00  0.00     0.100 C
HETATM    5  C4  UNL     1       8.445  -1.428   5.634  1.00  0.00     0.256 C
HETATM    6  F1  UNL     1       8.907  -0.198   5.300  1.00  0.00    -0.205 F
HETATM    7  F2  UNL     1       7.108  -1.671   5.456  1.00  0.00    -0.205 F
HETATM    8  C5  UNL     1       8.842  -1.909   7.039  1.00  0.00     0.068 C
HETATM    9  C6  UNL     1       7.774  -1.647   8.057  1.00  0.00     0.019 C
HETATM   10  C7  UNL     1       8.410  -0.882   9.169  1.00  0.00     0.004 C
HETATM   11  C8  UNL     1       9.880  -0.805   8.905  1.00  0.00     0.033 C
HETATM   12  C9  UNL     1      10.097  -1.266   7.472  1.00  0.00     0.134 C
ENDROOT
BRANCH  12  13
HETATM   13  O1  UNL     1      11.229  -2.046   7.384  1.00  0.00    -0.395 OA
ATOM     14  H1  UNL     1      11.908  -1.722   6.805  1.00  0.00     0.210 HD
ENDBRANCH  12  13
TORSDOF 1
ENDMDL