MODEL 4
REMARK VINA RESULT: -3.336217684      2.419      3.014
REMARK  1 active torsions:
REMARK  status: ('A' for Active; 'I' for Inactive)
REMARK    1  A    between atoms: C6_7  and  O1_8
ROOT
HETATM    1  C1  UNL     1       9.045  -3.486   6.428  1.00  0.00     0.033 C
HETATM    2  C2  UNL     1       8.722  -2.004   6.648  1.00  0.00     0.069 C
HETATM    3  C3  UNL     1       8.671  -1.296   5.288  1.00  0.00     0.033 C
HETATM    4  S1  UNL     1      10.078  -1.289   7.571  1.00  0.00    -0.153 SA
HETATM    5  C4  UNL     1       9.598  -0.603   9.154  1.00  0.00     0.077 C
HETATM    6  C5  UNL     1       8.141  -0.901   9.494  1.00  0.00     0.048 C
HETATM    7  C6  UNL     1       7.291  -0.727   8.270  1.00  0.00     0.192 C
HETATM    8  C7  UNL     1       7.390  -1.880   7.307  1.00  0.00     0.284 C
HETATM    9  F1  UNL     1       6.432  -1.606   6.316  1.00  0.00    -0.202 F
HETATM   10  F2  UNL     1       6.971  -3.070   7.884  1.00  0.00    -0.202 F
ENDROOT
BRANCH   7  11
HETATM   11  O1  UNL     1       5.945  -0.524   8.573  1.00  0.00    -0.389 OA
ATOM     12  H1  UNL     1       5.504   0.027   7.937  1.00  0.00     0.210 HD
ENDBRANCH   7  11
TORSDOF 1
ENDMDL