MODEL 4
REMARK VINA RESULT: -3.842094012      2.392      3.535
REMARK  0 active torsions:
REMARK  status: ('A' for Active; 'I' for Inactive)
ROOT
HETATM    1  N1  UNL     1       8.489  -1.023   3.607  1.00  0.00    -0.088 NA
HETATM    2  C1  UNL     1       8.683  -1.476   4.968  1.00  0.00     0.095 C
HETATM    3  N2  UNL     1       8.576  -0.813   6.042  1.00  0.00    -0.367 N
ATOM      4  H2  UNL     1       8.326   0.176   6.048  1.00  0.00     0.161 HD
HETATM    5  C2  UNL     1       8.831  -1.544   7.249  1.00  0.00     0.097 C
HETATM    6  C3  UNL     1       7.792  -1.290   8.314  1.00  0.00     0.037 C
HETATM    7  C4  UNL     1       8.445  -0.882   9.614  1.00  0.00     0.003 C
HETATM    8  C5  UNL     1       9.225   0.401   9.478  1.00  0.00     0.000 C
HETATM    9  C6  UNL     1      10.042   0.333   8.210  1.00  0.00     0.003 C
HETATM   10  C7  UNL     1      10.186  -1.110   7.761  1.00  0.00     0.037 C
HETATM   11  C8  UNL     1       8.815  -2.975   6.801  1.00  0.00     0.274 C
HETATM   12  F1  UNL     1       9.792  -3.731   7.413  1.00  0.00    -0.203 F
HETATM   13  F2  UNL     1       7.588  -3.561   6.997  1.00  0.00    -0.203 F
HETATM   14  C9  UNL     1       9.055  -2.870   5.315  1.00  0.00     0.154 C
ENDROOT
TORSDOF 0
ENDMDL