MODEL 4
REMARK VINA RESULT: -5.033699815      3.073      4.379
REMARK  2 active torsions:
REMARK  status: ('A' for Active; 'I' for Inactive)
REMARK    1  A    between atoms: C6_6  and  C7_7
REMARK    2  A    between atoms: C8_10  and  O1_11
ROOT
HETATM    1  C1  UNL     1       9.310  -3.501   5.657  1.00  0.00     0.014 C
HETATM    2  C2  UNL     1       9.520  -2.999   7.090  1.00  0.00     0.031 C
HETATM    3  C3  UNL     1      10.965  -2.906   7.342  1.00  0.00     0.008 C
HETATM    4  C4  UNL     1      11.395  -1.993   8.443  1.00  0.00     0.001 C
HETATM    5  C5  UNL     1      10.527  -0.811   8.670  1.00  0.00     0.014 C
HETATM    6  C6  UNL     1       9.085  -1.290   8.724  1.00  0.00     0.100 C
HETATM    7  C8  UNL     1       8.762  -1.686   7.306  1.00  0.00     0.158 C
HETATM    8  C9  UNL     1       7.369  -1.865   7.036  1.00  0.00     0.098 C
HETATM    9  N1  UNL     1       6.247  -2.017   6.799  1.00  0.00    -0.194 NA
ENDROOT
BRANCH   7  10
HETATM   10  O1  UNL     1       9.373  -0.767   6.430  1.00  0.00    -0.374 OA
ATOM     11  H1  UNL     1      10.267  -0.691   6.740  1.00  0.00     0.212 HD
ENDBRANCH   7  10
BRANCH   6  12
HETATM   12  C7  UNL     1       8.165  -0.260   9.305  1.00  0.00     0.361 C
HETATM   13  F1  UNL     1       8.876   0.950   9.324  1.00  0.00    -0.214 F
HETATM   14  F2  UNL     1       7.982  -0.563  10.648  1.00  0.00    -0.214 F
ENDBRANCH   6  12
TORSDOF 2
ENDMDL