MODEL 5
REMARK VINA RESULT: -5.673178976      2.513      3.641
REMARK  1 active torsions:
REMARK  status: ('A' for Active; 'I' for Inactive)
REMARK    1  A    between atoms: C5_9  and  N2_10
ROOT
HETATM    1  F1  UNL     1       6.589  -3.031   7.594  1.00  0.00    -0.198 F
HETATM    2  C1  UNL     1       7.117  -1.772   7.361  1.00  0.00     0.300 C
HETATM    3  F2  UNL     1       7.005  -1.537   6.003  1.00  0.00    -0.198 F
HETATM    4  C2  UNL     1       6.308  -0.720   8.074  1.00  0.00     0.089 C
HETATM    5  C3  UNL     1       6.701  -0.554   9.513  1.00  0.00     0.026 C
HETATM    6  C4  UNL     1       8.178  -0.300   9.638  1.00  0.00     0.121 C
HETATM    7  N1  UNL     1       8.973  -1.111   8.770  1.00  0.00    -0.375 N
ATOM      8  H1  UNL     1       9.971  -1.171   8.971  1.00  0.00     0.160 HD
HETATM    9  C5  UNL     1       8.536  -1.771   7.759  1.00  0.00     0.148 C
ENDROOT
BRANCH   9  10
HETATM   10  N2  UNL     1       9.438  -2.542   6.976  1.00  0.00    -0.366 N
HETATM   11  C6  UNL     1      10.763  -2.977   7.421  1.00  0.00     0.124 C
HETATM   12  C7  UNL     1      10.739  -4.431   6.931  1.00  0.00     0.021 C
HETATM   13  C8  UNL     1      10.216  -4.250   5.536  1.00  0.00     0.021 C
HETATM   14  C9  UNL     1       9.297  -3.059   5.642  1.00  0.00     0.124 C
ENDBRANCH   9  10
TORSDOF 1
ENDMDL