MODEL 1
REMARK VINA RESULT: -5.049947836      0.000      0.000
REMARK  1 active torsions:
REMARK  status: ('A' for Active; 'I' for Inactive)
REMARK    1  A    between atoms: C2_2  and  N1_5
ROOT
HETATM    1  N1  UNL     1       8.630  -1.072   8.936  1.00  0.00    -0.226 NA
HETATM    2  C5  UNL     1       9.159  -0.578  10.170  1.00  0.00     0.116 C
HETATM    3  C6  UNL     1       8.567   0.777  10.460  1.00  0.00     0.095 C
HETATM    4  C7  UNL     1       7.294   0.731  11.237  1.00  0.00     0.246 C
HETATM    5  F1  UNL     1       7.548   0.124  12.460  1.00  0.00    -0.206 F
HETATM    6  F2  UNL     1       6.948   2.052  11.514  1.00  0.00    -0.206 F
HETATM    7  C8  UNL     1       6.132   0.112  10.557  1.00  0.00     0.096 C
HETATM    8  C9  UNL     1       6.435  -0.753   9.382  1.00  0.00     0.135 C
HETATM    9  N2  UNL     1       7.541  -0.313   8.581  1.00  0.00    -0.164 NA
ENDROOT
BRANCH   1  10
HETATM   10  C2  UNL     1       9.571  -1.353   7.914  1.00  0.00     0.018 C
HETATM   11  C1  UNL     1      10.844  -1.997   8.378  1.00  0.00     0.033 C
HETATM   12  C3  UNL     1       8.899  -2.206   6.859  1.00  0.00     0.033 C
HETATM   13  C4  UNL     1       9.908  -0.036   7.223  1.00  0.00     0.033 C
ENDBRANCH   1  10
TORSDOF 1
ENDMDL