MODEL 2
REMARK VINA RESULT: -4.683749857      0.991      1.048
REMARK  1 active torsions:
REMARK  status: ('A' for Active; 'I' for Inactive)
REMARK    1  A    between atoms: C2_2  and  C3_3
ROOT
HETATM    1  C3  UNL     1      50.619 -51.815  17.631  1.00  0.00     0.283 C
HETATM    2  C4  UNL     1      50.138 -53.083  18.251  1.00  0.00     0.079 C
HETATM    3  N1  UNL     1      51.457 -51.069  18.546  1.00  0.00    -0.039 N
ATOM      4  H11 UNL     1      51.790 -51.623  19.335  1.00  0.00     0.280 HD
ATOM      5  H12 UNL     1      50.947 -50.372  19.089  1.00  0.00     0.280 HD
HETATM    6  C5  UNL     1      52.536 -50.501  17.735  1.00  0.00     0.268 C
HETATM    7  C6  UNL     1      52.750 -51.599  16.723  1.00  0.00     0.210 C
HETATM    8  C7  UNL     1      53.243 -51.002  15.426  1.00  0.00     0.042 C
HETATM    9  N2  UNL     1      51.471 -52.182  16.502  1.00  0.00    -0.035 N
ATOM     10  H21 UNL     1      51.068 -51.927  15.601  1.00  0.00     0.280 HD
ATOM     11  H22 UNL     1      51.514 -53.190  16.349  1.00  0.00     0.280 HD
ENDROOT
BRANCH   1  12
HETATM   12  C2  UNL     1      49.537 -50.930  17.101  1.00  0.00     0.064 C
HETATM   13  C1  UNL     1      48.496 -50.563  18.118  1.00  0.00     0.009 C
ENDBRANCH   1  12
TORSDOF 1
ENDMDL