MODEL 1
REMARK VINA RESULT: -4.868934626      0.000      0.000
REMARK  2 active torsions:
REMARK  status: ('A' for Active; 'I' for Inactive)
REMARK    1  A    between atoms: C2_2  and  C3_3
REMARK    2  A    between atoms: C3_3  and  N1_4
ROOT
HETATM    1  C3  UNL     1      50.597 -51.306  17.706  1.00  0.00     0.138 C
HETATM    2  C4  UNL     1      51.413 -50.063  17.911  1.00  0.00     0.042 C
HETATM    3  C5  UNL     1      51.975 -49.643  16.569  1.00  0.00     0.022 C
HETATM    4  C6  UNL     1      52.931 -50.777  16.181  1.00  0.00     0.114 C
HETATM    5  N2  UNL     1      52.121 -51.912  15.866  1.00  0.00    -0.419 N
ATOM      6  H2  UNL     1      52.169 -52.375  14.959  1.00  0.00     0.153 HD
HETATM    7  C7  UNL     1      51.250 -52.354  16.888  1.00  0.00     0.152 C
ENDROOT
BRANCH   1   8
HETATM    8  C2  UNL     1      49.245 -50.876  17.162  1.00  0.00     0.036 C
HETATM    9  C1  UNL     1      48.329 -50.381  18.235  1.00  0.00     0.007 C
ENDBRANCH   1   8
BRANCH   1  10
HETATM   10  N1  UNL     1      50.387 -51.882  19.046  1.00  0.00    -0.069 N
ATOM     11  H13 UNL     1      49.530 -52.431  19.109  1.00  0.00     0.275 HD
ATOM     12  H12 UNL     1      51.046 -52.630  19.261  1.00  0.00     0.275 HD
ATOM     13  H11 UNL     1      50.418 -51.120  19.724  1.00  0.00     0.275 HD
ENDBRANCH   1  10
TORSDOF 2
ENDMDL