MODEL 4
REMARK VINA RESULT: -4.603065953      1.811      2.621
REMARK  2 active torsions:
REMARK  status: ('A' for Active; 'I' for Inactive)
REMARK    1  A    between atoms: C2_2  and  C4_4
REMARK    2  A    between atoms: C7_10  and  N2_11
ROOT
HETATM    1  C4  UNL     1      50.472 -50.615  16.874  1.00  0.00     0.219 C
HETATM    2  N1  UNL     1      50.761 -51.357  15.661  1.00  0.00    -0.069 N
ATOM      3  H11 UNL     1      50.706 -50.801  14.808  1.00  0.00     0.277 HD
ATOM      4  H12 UNL     1      50.041 -52.031  15.403  1.00  0.00     0.277 HD
HETATM    5  C5  UNL     1      52.083 -51.954  15.905  1.00  0.00     0.235 C
HETATM    6  C6  UNL     1      52.790 -50.757  16.532  1.00  0.00     0.062 C
HETATM    7  C7  UNL     1      51.749 -50.411  17.603  1.00  0.00     0.216 C
ENDROOT
BRANCH   7   8
HETATM    8  N2  UNL     1      51.987 -49.044  17.996  1.00  0.00    -0.073 N
ATOM      9  H23 UNL     1      52.515 -48.551  17.276  1.00  0.00     0.274 HD
ATOM     10  H22 UNL     1      51.120 -48.508  17.972  1.00  0.00     0.274 HD
ATOM     11  H21 UNL     1      52.443 -48.948  18.904  1.00  0.00     0.274 HD
ENDBRANCH   7   8
BRANCH   1  12
HETATM   12  C2  UNL     1      49.465 -51.424  17.658  1.00  0.00     0.010 C
HETATM   13  C1  UNL     1      50.048 -52.124  18.836  1.00  0.00     0.011 C
HETATM   14  C3  UNL     1      48.315 -50.555  18.108  1.00  0.00     0.011 C
ENDBRANCH   1  12
TORSDOF 2
ENDMDL