MODEL 5
REMARK VINA RESULT: -4.529699913      1.379      3.407
REMARK  1 active torsions:
REMARK  status: ('A' for Active; 'I' for Inactive)
REMARK    1  A    between atoms: C2_2  and  C3_3
ROOT
HETATM    1  C3  UNL     1      51.594 -50.707  17.680  1.00  0.00     0.187 C
HETATM    2  C4  UNL     1      50.977 -49.429  17.203  1.00  0.00     0.060 C
HETATM    3  C5  UNL     1      49.708 -49.054  17.872  1.00  0.00     0.234 C
HETATM    4  N1  UNL     1      49.000 -50.116  18.499  1.00  0.00    -0.073 N
ATOM      5  H11 UNL     1      48.149 -49.767  18.938  1.00  0.00     0.277 HD
ATOM      6  H12 UNL     1      49.502 -50.441  19.324  1.00  0.00     0.277 HD
HETATM    7  C6  UNL     1      48.701 -51.212  17.633  1.00  0.00     0.259 C
HETATM    8  C7  UNL     1      49.801 -52.257  17.854  1.00  0.00     0.260 C
HETATM    9  N2  UNL     1      50.974 -51.882  17.103  1.00  0.00    -0.069 N
ATOM     10  H21 UNL     1      51.633 -52.655  17.019  1.00  0.00     0.277 HD
ATOM     11  H22 UNL     1      50.763 -51.752  16.114  1.00  0.00     0.277 HD
ENDROOT
BRANCH   1  12
HETATM   12  C2  UNL     1      53.063 -50.662  17.247  1.00  0.00     0.028 C
HETATM   13  C1  UNL     1      53.259 -51.122  15.845  1.00  0.00     0.007 C
ENDBRANCH   1  12
TORSDOF 1
ENDMDL