MODEL 1
REMARK VINA RESULT: -5.993199559      0.000      0.000
REMARK  3 active torsions:
REMARK  status: ('A' for Active; 'I' for Inactive)
REMARK    1  A    between atoms: C2_2  and  C3_3
REMARK    2  A    between atoms: C6_6  and  N1_7
REMARK    3  A    between atoms: C7_11  and  N2_12
ROOT
HETATM    1  C3  UNL     1      49.852 -50.750  17.469  1.00  0.00    -0.013 C
HETATM    2  C4  UNL     1      50.562 -49.554  16.960  1.00  0.00     0.007 C
HETATM    3  C5  UNL     1      51.992 -49.868  16.615  1.00  0.00     0.035 C
HETATM    4  C6  UNL     1      52.210 -51.257  16.125  1.00  0.00     0.213 C
HETATM    5  C7  UNL     1      51.625 -52.327  16.978  1.00  0.00     0.214 C
HETATM    6  C8  UNL     1      50.866 -51.670  18.123  1.00  0.00     0.039 C
ENDROOT
BRANCH   4   7
HETATM    7  N1  UNL     1      53.652 -51.482  16.057  1.00  0.00    -0.073 N
ATOM      8  H13 UNL     1      54.192 -50.626  16.181  1.00  0.00     0.274 HD
ATOM      9  H12 UNL     1      54.013 -51.989  16.866  1.00  0.00     0.274 HD
ATOM     10  H11 UNL     1      53.850 -51.953  15.174  1.00  0.00     0.274 HD
ENDBRANCH   4   7
BRANCH   5  11
HETATM   11  N2  UNL     1      52.544 -53.325  17.414  1.00  0.00    -0.073 N
ATOM     12  H23 UNL     1      52.379 -54.197  16.912  1.00  0.00     0.274 HD
ATOM     13  H22 UNL     1      53.484 -53.104  17.086  1.00  0.00     0.274 HD
ATOM     14  H21 UNL     1      52.554 -53.495  18.420  1.00  0.00     0.274 HD
ENDBRANCH   5  11
BRANCH   1  15
HETATM   15  C2  UNL     1      48.676 -50.462  18.351  1.00  0.00     0.000 C
HETATM   16  C1  UNL     1      48.201 -49.059  18.324  1.00  0.00     0.005 C
ENDBRANCH   1  15
TORSDOF 3
ENDMDL