MODEL 2
REMARK VINA RESULT: -5.162247526      1.512      1.996
REMARK  1 active torsions:
REMARK  status: ('A' for Active; 'I' for Inactive)
REMARK    1  A    between atoms: C2_2  and  C3_3
ROOT
HETATM    1  C3  UNL     1      49.903 -51.418  17.518  1.00  0.00     0.241 C
HETATM    2  C4  UNL     1      49.963 -52.849  18.001  1.00  0.00     0.083 C
HETATM    3  N1  UNL     1      51.021 -50.636  18.020  1.00  0.00    -0.034 N
ATOM      4  H11 UNL     1      51.049 -50.519  19.033  1.00  0.00     0.281 HD
ATOM      5  H12 UNL     1      50.982 -49.639  17.812  1.00  0.00     0.281 HD
HETATM    6  C5  UNL     1      52.137 -51.336  17.455  1.00  0.00     0.209 C
HETATM    7  C6  UNL     1      53.320 -50.466  17.180  1.00  0.00     0.042 C
HETATM    8  C7  UNL     1      51.559 -51.779  16.109  1.00  0.00     0.204 C
HETATM    9  O1  UNL     1      50.210 -51.444  16.149  1.00  0.00    -0.349 OA
ENDROOT
BRANCH   1  10
HETATM   10  C2  UNL     1      48.598 -50.805  17.791  1.00  0.00     0.030 C
HETATM   11  C1  UNL     1      48.510 -49.542  18.169  1.00  0.00     0.012 C
ENDBRANCH   1  10
TORSDOF 1
ENDMDL