MODEL 4
REMARK VINA RESULT: -5.114235001      1.458      2.422
REMARK  1 active torsions:
REMARK  status: ('A' for Active; 'I' for Inactive)
REMARK    1  A    between atoms: C2_2  and  C3_3
ROOT
HETATM    1  C1  UNL     1      50.101 -53.111  18.225  1.00  0.00     0.021 C
HETATM    2  C2  UNL     1      50.345 -51.699  17.792  1.00  0.00    -0.005 C
HETATM    3  C4  UNL     1      50.521 -51.577  16.280  1.00  0.00     0.047 C
HETATM    4  C5  UNL     1      51.979 -51.223  16.047  1.00  0.00     0.187 C
HETATM    5  C6  UNL     1      52.604 -51.867  17.299  1.00  0.00     0.040 C
HETATM    6  C7  UNL     1      51.657 -51.144  18.274  1.00  0.00     0.026 C
HETATM    7  C8  UNL     1      51.770 -49.735  17.752  1.00  0.00     0.238 C
HETATM    8  N2  UNL     1      52.210 -49.835  16.361  1.00  0.00    -0.070 N
ATOM      9  H21 UNL     1      51.765 -49.175  15.724  1.00  0.00     0.277 HD
ATOM     10  H22 UNL     1      53.163 -49.513  16.191  1.00  0.00     0.277 HD
ENDROOT
BRANCH   2  11
HETATM   11  C3  UNL     1      49.268 -50.810  18.293  1.00  0.00     0.062 C
HETATM   12  N1  UNL     1      48.171 -50.620  17.677  1.00  0.00    -0.410 N
ATOM     13  H12 UNL     1      48.041 -51.112  16.793  1.00  0.00     0.155 HD
ATOM     14  H11 UNL     1      47.431 -50.008  18.022  1.00  0.00     0.155 HD
ENDBRANCH   2  11
TORSDOF 1
ENDMDL