MODEL 3
REMARK VINA RESULT: -5.349700713      1.346      2.146
REMARK  2 active torsions:
REMARK  status: ('A' for Active; 'I' for Inactive)
REMARK    1  A    between atoms: C2_2  and  C3_3
REMARK    2  A    between atoms: C5_5  and  N1_6
ROOT
HETATM    1  C3  UNL     1      50.614 -50.472  17.723  1.00  0.00     0.130 C
HETATM    2  C4  UNL     1      52.066 -50.502  17.957  1.00  0.00     0.077 C
HETATM    3  C5  UNL     1      52.159 -51.511  16.803  1.00  0.00     0.130 C
HETATM    4  C6  UNL     1      51.767 -52.884  17.238  1.00  0.00     0.066 C
HETATM    5  C7  UNL     1      50.832 -52.766  18.412  1.00  0.00     0.235 C
HETATM    6  N2  UNL     1      49.991 -51.602  18.355  1.00  0.00    -0.066 N
ATOM      7  H21 UNL     1      49.103 -51.821  17.905  1.00  0.00     0.278 HD
ATOM      8  H22 UNL     1      49.654 -51.354  19.286  1.00  0.00     0.278 HD
HETATM    9  C8  UNL     1      50.904 -50.834  16.257  1.00  0.00     0.077 C
ENDROOT
BRANCH   3  10
HETATM   10  N1  UNL     1      53.321 -51.415  15.997  1.00  0.00    -0.070 N
ATOM     11  H13 UNL     1      53.409 -50.469  15.624  1.00  0.00     0.275 HD
ATOM     12  H12 UNL     1      54.156 -51.457  16.581  1.00  0.00     0.275 HD
ATOM     13  H11 UNL     1      53.391 -52.096  15.240  1.00  0.00     0.275 HD
ENDBRANCH   3  10
BRANCH   1  14
HETATM   14  C2  UNL     1      49.846 -49.220  17.817  1.00  0.00     0.034 C
HETATM   15  C1  UNL     1      48.422 -49.305  18.180  1.00  0.00     0.007 C
ENDBRANCH   1  14
TORSDOF 2
ENDMDL