MODEL 1
REMARK VINA RESULT: -5.243097306      0.000      0.000
REMARK  2 active torsions:
REMARK  status: ('A' for Active; 'I' for Inactive)
REMARK    1  A    between atoms: C2_2  and  C4_4
REMARK    2  A    between atoms: C6_6  and  N1_7
ROOT
HETATM    1  C4  UNL     1      49.778 -51.655  16.997  1.00  0.00     0.086 C
HETATM    2  C5  UNL     1      50.987 -51.383  16.162  1.00  0.00     0.058 C
HETATM    3  C6  UNL     1      52.289 -51.666  16.899  1.00  0.00     0.190 C
HETATM    4  C7  UNL     1      52.163 -53.137  17.304  1.00  0.00     0.077 C
HETATM    5  C8  UNL     1      51.106 -53.185  18.349  1.00  0.00     0.058 C
HETATM    6  N2  UNL     1      49.923 -52.485  18.104  1.00  0.00    -0.397 N
ATOM      7  H2  UNL     1      49.144 -52.586  18.754  1.00  0.00     0.159 HD
ENDROOT
BRANCH   3   8
HETATM    8  N1  UNL     1      53.396 -51.431  16.030  1.00  0.00    -0.075 N
ATOM      9  H13 UNL     1      53.276 -51.884  15.125  1.00  0.00     0.274 HD
ATOM     10  H12 UNL     1      53.432 -50.464  15.708  1.00  0.00     0.274 HD
ATOM     11  H11 UNL     1      54.261 -51.715  16.490  1.00  0.00     0.274 HD
ENDBRANCH   3   8
BRANCH   1  12
HETATM   12  C2  UNL     1      49.184 -50.278  17.329  1.00  0.00     0.000 C
HETATM   13  C1  UNL     1      48.123 -50.445  18.389  1.00  0.00     0.011 C
HETATM   14  C3  UNL     1      50.230 -49.309  17.771  1.00  0.00     0.011 C
ENDBRANCH   1  12
TORSDOF 2
ENDMDL