MODEL 5
REMARK VINA RESULT: -4.153446682      1.530      2.279
REMARK  2 active torsions:
REMARK  status: ('A' for Active; 'I' for Inactive)
REMARK    1  A    between atoms: C2_2  and  C3_3
REMARK    2  A    between atoms: C4_7  and  N2_9
ROOT
HETATM    1  C3  UNL     1      49.979 -50.706  17.187  1.00  0.00     0.323 C
HETATM    2  N1  UNL     1      50.986 -51.099  18.119  1.00  0.00    -0.015 N
ATOM      3  H11 UNL     1      51.061 -52.113  18.203  1.00  0.00     0.283 HD
ATOM      4  H12 UNL     1      50.723 -50.893  19.083  1.00  0.00     0.283 HD
HETATM    5  C4  UNL     1      52.226 -50.492  17.752  1.00  0.00     0.285 C
HETATM    6  C5  UNL     1      53.387 -50.928  18.614  1.00  0.00     0.078 C
HETATM    7  C6  UNL     1      52.489 -50.793  16.301  1.00  0.00     0.095 C
HETATM    8  C7  UNL     1      51.486 -51.786  15.814  1.00  0.00     0.174 C
HETATM    9  O1  UNL     1      50.172 -51.374  15.994  1.00  0.00    -0.359 OA
ENDROOT
BRANCH   5  10
HETATM   10  N2  UNL     1      52.126 -49.044  17.878  1.00  0.00    -0.045 N
ATOM     11  H23 UNL     1      52.919 -48.568  17.446  1.00  0.00     0.277 HD
ATOM     12  H22 UNL     1      51.385 -48.660  17.292  1.00  0.00     0.277 HD
ATOM     13  H21 UNL     1      52.012 -48.787  18.859  1.00  0.00     0.277 HD
ENDBRANCH   5  10
BRANCH   1  14
HETATM   14  C2  UNL     1      48.566 -50.876  17.722  1.00  0.00     0.057 C
HETATM   15  C1  UNL     1      48.056 -49.584  18.313  1.00  0.00     0.009 C
ENDBRANCH   1  14
TORSDOF 2
ENDMDL