MODEL 4
REMARK VINA RESULT: -5.804107896      1.819      2.583
REMARK  4 active torsions:
REMARK  status: ('A' for Active; 'I' for Inactive)
REMARK    1  A    between atoms: N1_1  and  N2_4
REMARK    2  A    between atoms: N2_4  and  N3_5
REMARK    3  A    between atoms: N4_8  and  C3_9
REMARK    4  A    between atoms: N6_16  and  O1_17
ROOT
HETATM    1  N3  UNL     1       9.317   3.342  21.931  1.00  0.00    -0.309 N
HETATM    2  C1  UNL     1       9.678   2.050  21.482  1.00  0.00     0.160 C
HETATM    3  C2  UNL     1       8.427   1.167  21.519  1.00  0.00     0.162 C
HETATM    4  N4  UNL     1       7.371   1.889  20.776  1.00  0.00    -0.212 N
HETATM    5  C7  UNL     1       7.041   3.234  21.205  1.00  0.00     0.162 C
HETATM    6  C8  UNL     1       8.005   3.552  22.366  1.00  0.00     0.160 C
ENDROOT
BRANCH   4   7
HETATM    7  C3  UNL     1       6.761   1.205  19.699  1.00  0.00     0.706 A
HETATM    8  N5  UNL     1       5.935   0.145  19.927  1.00  0.00    -0.198 N
HETATM    9  C4  UNL     1       5.336  -0.533  18.937  1.00  0.00     0.131 A
ATOM     10  H5  UNL     1       5.767  -0.146  20.890  1.00  0.00     0.183 HD
HETATM   11  C5  UNL     1       5.565  -0.144  17.635  1.00  0.00     0.068 A
HETATM   12 CL1  UNL     1       4.789  -1.017  16.315  1.00  0.00    -0.081 Cl
HETATM   13  C6  UNL     1       6.393   0.919  17.426  1.00  0.00     0.167 A
HETATM   14  N6  UNL     1       6.994   1.597  18.446  1.00  0.00    -0.062 N
BRANCH  14  15
HETATM   15  O1  UNL     1       7.827   2.672  18.135  1.00  0.00    -0.270 OA
ATOM     16  H1  UNL     1       8.736   2.712  18.407  1.00  0.00     0.245 HD
ENDBRANCH  14  15
ENDBRANCH   4   7
BRANCH   1  17
HETATM   17  N2  UNL     1      10.308   4.119  22.458  1.00  0.00    -0.032 NA
BRANCH  17  18
HETATM   18  N1  UNL     1      10.451   5.271  21.672  1.00  0.00    -0.329 N
ATOM     19  H12 UNL     1      11.223   5.934  21.748  1.00  0.00     0.174 HD
ATOM     20  H11 UNL     1       9.666   5.331  21.025  1.00  0.00     0.174 HD
ENDBRANCH  17  18
ENDBRANCH   1  17
TORSDOF 4
ENDMDL