MODEL 5
REMARK VINA RESULT: -5.886766960      2.216      5.084
REMARK  3 active torsions:
REMARK  status: ('A' for Active; 'I' for Inactive)
REMARK       I    between atoms: N2_3  and  C2_5
REMARK    1  A    between atoms: N4_7  and  C3_9
REMARK    2  A    between atoms: C3_9  and  C4_10
REMARK    3  A    between atoms: C4_10  and  N5_11
ROOT
HETATM    1  N1  UNL     1       4.581  -1.619  18.653  1.00  0.00    -0.172 NA
HETATM    2  C1  UNL     1       5.308  -0.787  19.009  1.00  0.00     0.184 C
HETATM    3  N2  UNL     1       6.172   0.227  19.450  1.00  0.00    -0.267 N
ATOM      4  H2  UNL     1       6.461   0.294  20.425  1.00  0.00     0.180 HD
HETATM    5  C2  UNL     1       6.624   1.155  18.479  1.00  0.00     0.201 C
HETATM    6  N3  UNL     1       5.786   1.482  17.378  1.00  0.00    -0.062 NA
HETATM    7  N4  UNL     1       7.782   1.693  18.598  1.00  0.00    -0.339 N
ATOM      8  H4  UNL     1       8.114   2.362  17.903  1.00  0.00     0.168 HD
ENDROOT
BRANCH   7   9
HETATM    9  C3  UNL     1       8.589   1.349  19.700  1.00  0.00     0.108 C
BRANCH   9  10
HETATM   10  C4  UNL     1       8.877   2.242  20.614  1.00  0.00     0.114 C
BRANCH  10  11
HETATM   11  N5  UNL     1       8.350   2.128  21.930  1.00  0.00    -0.325 N
HETATM   12  C5  UNL     1       8.221   3.181  22.784  1.00  0.00     0.188 A
HETATM   13  N6  UNL     1       7.693   2.691  23.918  1.00  0.00    -0.345 N
HETATM   14  C6  UNL     1       7.488   1.381  23.804  1.00  0.00     0.096 A
ATOM     15  H6  UNL     1       7.480   3.245  24.748  1.00  0.00     0.167 HD
HETATM   16 BR1  UNL     1       6.751   0.299  25.184  1.00  0.00    -0.030 Br
HETATM   17  C7  UNL     1       7.901   1.015  22.546  1.00  0.00     0.134 A
ENDBRANCH  10  11
ENDBRANCH   9  10
ENDBRANCH   7   9
TORSDOF 3
ENDMDL