MODEL 1
REMARK VINA RESULT: -5.781620504      0.000      0.000
REMARK  4 active torsions:
REMARK  status: ('A' for Active; 'I' for Inactive)
REMARK    1  A    between atoms: C4_6  and  O1_7
REMARK    2  A    between atoms: C4_6  and  C5_9
REMARK    3  A    between atoms: C5_9  and  S1_10
REMARK    4  A    between atoms: S1_10  and  N2_11
ROOT
HETATM    1  N1  UNL     1       5.630   0.467  16.316  1.00  0.00    -0.193 NA
HETATM    2  C1  UNL     1       5.866   0.747  17.414  1.00  0.00     0.115 C
HETATM    3  C2  UNL     1       6.186   1.089  18.795  1.00  0.00     0.229 C
HETATM    4 CL1  UNL     1       5.574  -0.213  19.845  1.00  0.00    -0.072 Cl
HETATM    5  C3  UNL     1       7.694   1.208  18.967  1.00  0.00     0.112 C
HETATM    6  C4  UNL     1       7.724   2.013  20.276  1.00  0.00     0.096 C
HETATM    7  C6  UNL     1       6.549   2.920  20.035  1.00  0.00     0.210 C
HETATM    8  O3  UNL     1       5.646   2.271  19.213  1.00  0.00    -0.349 OA
ENDROOT
BRANCH   6   9
HETATM    9  O1  UNL     1       7.490   1.098  21.291  1.00  0.00    -0.387 OA
ATOM     10  H1  UNL     1       7.316   1.613  22.071  1.00  0.00     0.210 HD
ENDBRANCH   6   9
BRANCH   6  11
HETATM   11  C5  UNL     1       9.037   2.714  20.443  1.00  0.00     0.169 C
BRANCH  11  12
HETATM   12  S1  UNL     1       9.139   3.417  22.064  1.00  0.00     0.088 S
HETATM   13  O2  UNL     1      10.112   4.585  21.994  1.00  0.00    -0.238 OA
HETATM   14  S2  UNL     1       9.823   2.313  23.182  1.00  0.00     0.029 SA
BRANCH  12  15
HETATM   15  N2  UNL     1       7.643   4.023  22.612  1.00  0.00    -0.351 N
ATOM     16  H22 UNL     1       6.758   3.541  22.452  1.00  0.00     0.166 HD
ATOM     17  H21 UNL     1       7.737   4.908  23.110  1.00  0.00     0.166 HD
ENDBRANCH  12  15
ENDBRANCH  11  12
ENDBRANCH   6  11
TORSDOF 4
ENDMDL