MODEL 1
REMARK VINA RESULT: -6.778814030      0.000      0.000
REMARK  2 active torsions:
REMARK  status: ('A' for Active; 'I' for Inactive)
REMARK    1  A    between atoms: N3_4  and  C2_6
REMARK    2  A    between atoms: N4_9  and  N5_10
ROOT
HETATM    1  C2  UNL     1       6.011   1.068  19.086  1.00  0.00     0.087 C
HETATM    2  C3  UNL     1       6.833   2.348  18.883  1.00  0.00     0.046 C
HETATM    3  C4  UNL     1       6.817   3.154  20.193  1.00  0.00     0.146 C
HETATM    4  N4  UNL     1       7.401   2.294  21.200  1.00  0.00    -0.309 N
HETATM    5  C7  UNL     1       7.778   0.954  20.831  1.00  0.00     0.146 C
HETATM    6  C8  UNL     1       6.674   0.204  20.105  1.00  0.00     0.046 C
ENDROOT
BRANCH   4   7
HETATM    7  N5  UNL     1       7.601   2.731  22.491  1.00  0.00    -0.191 N
HETATM    8  C5  UNL     1       8.223   2.081  23.474  1.00  0.00     0.177 A
HETATM    9  C6  UNL     1       8.206   2.876  24.618  1.00  0.00     0.135 A
HETATM   10 CL1  UNL     1       8.890   2.488  26.190  1.00  0.00    -0.062 Cl
HETATM   11  N6  UNL     1       7.550   4.001  24.245  1.00  0.00    -0.271 N
HETATM   12  N7  UNL     1       7.196   3.898  22.971  1.00  0.00     0.001 NA
ATOM     13  H6  UNL     1       7.359   4.801  24.848  1.00  0.00     0.185 HD
ENDBRANCH   4   7
BRANCH   1  14
HETATM   14  N3  UNL     1       5.793   0.469  17.812  1.00  0.00    -0.362 N
HETATM   15  C1  UNL     1       5.101  -0.578  17.618  1.00  0.00     0.197 C
HETATM   16  N1  UNL     1       4.944  -1.107  16.265  1.00  0.00    -0.067 NA
HETATM   17  N2  UNL     1       4.424  -1.346  18.598  1.00  0.00    -0.067 NA
ATOM     18  H3  UNL     1       6.222   0.912  16.999  1.00  0.00     0.162 HD
ENDBRANCH   1  14
TORSDOF 2
ENDMDL