MODEL 5
REMARK VINA RESULT: -5.306369045      2.057      2.787
REMARK  5 active torsions:
REMARK  status: ('A' for Active; 'I' for Inactive)
REMARK    1  A    between atoms: C3_5  and  N2_6
REMARK    2  A    between atoms: N2_6  and  N3_8
REMARK    3  A    between atoms: C6_15  and  C7_16
REMARK    4  A    between atoms: C8_17  and  O1_18
REMARK    5  A    between atoms: C8_17  and  O2_20
ROOT
HETATM    1  C1  UNL     1      10.128   3.314  21.246  1.00  0.00     0.044 C
HETATM    2  C2  UNL     1       9.144   2.460  21.351  1.00  0.00     0.053 A
HETATM    3  N1  UNL     1       8.451   2.136  20.216  1.00  0.00    -0.190 N
ATOM      4  H1  UNL     1       8.737   2.571  19.339  1.00  0.00     0.184 HD
HETATM    5  C3  UNL     1       7.430   1.290  20.187  1.00  0.00     0.699 A
HETATM    6  N4  UNL     1       7.080   0.738  21.344  1.00  0.00    -0.179 N
ATOM      7  H4  UNL     1       6.298   0.083  21.360  1.00  0.00     0.185 HD
HETATM    8  C5  UNL     1       7.731   1.017  22.516  1.00  0.00     0.132 A
HETATM    9 CL1  UNL     1       7.132   0.213  23.944  1.00  0.00    -0.063 Cl
HETATM   10  C6  UNL     1       8.789   1.883  22.586  1.00  0.00     0.034 A
ENDROOT
BRANCH  10  11
HETATM   11  C7  UNL     1       9.475   2.205  23.651  1.00  0.00     0.080 C
HETATM   12  C8  UNL     1       9.229   2.807  24.903  1.00  0.00     0.178 C
BRANCH  12  13
HETATM   13  O1  UNL     1      10.314   2.929  25.687  1.00  0.00    -0.341 OA
ATOM     14  H1  UNL     1      10.142   2.839  26.617  1.00  0.00     0.220 HD
ENDBRANCH  12  13
BRANCH  12  15
HETATM   15  O2  UNL     1       8.154   3.311  25.549  1.00  0.00    -0.336 OA
HETATM   16  C9  UNL     1       7.166   4.142  24.971  1.00  0.00     0.212 C
ENDBRANCH  12  15
ENDBRANCH  10  11
BRANCH   5  17
HETATM   17  N2  UNL     1       6.760   0.972  18.970  1.00  0.00    -0.135 N
HETATM   18  C4  UNL     1       6.923   1.809  17.815  1.00  0.00     0.197 C
BRANCH  17  19
HETATM   19  N3  UNL     1       5.933  -0.146  18.888  1.00  0.00    -0.329 N
ATOM     20  H32 UNL     1       4.922  -0.016  18.841  1.00  0.00     0.177 HD
ATOM     21  H31 UNL     1       6.331  -1.086  18.882  1.00  0.00     0.177 HD
ENDBRANCH  17  19
ENDBRANCH   5  17
TORSDOF 5
ENDMDL