MODEL 2
REMARK VINA RESULT: -5.900530943      2.253      2.394
REMARK  3 active torsions:
REMARK  status: ('A' for Active; 'I' for Inactive)
REMARK    1  A    between atoms: C1_2  and  C2_4
REMARK    2  A    between atoms: C3_6  and  S2_7
REMARK    3  A    between atoms: S2_7  and  N2_8
ROOT
HETATM    1  C2  UNL     1       7.139   1.823  18.773  1.00  0.00     0.111 A
HETATM    2  S1  UNL     1       8.097   2.983  19.597  1.00  0.00    -0.050 SA
HETATM    3  C3  UNL     1       7.910   2.371  21.191  1.00  0.00     0.193 A
HETATM    4  N3  UNL     1       7.133   1.325  20.998  1.00  0.00    -0.329 N
ATOM      5  H3  UNL     1       6.848   0.752  21.793  1.00  0.00     0.168 HD
HETATM    6  C4  UNL     1       6.729   1.020  19.807  1.00  0.00     0.127 A
HETATM    7 CL1  UNL     1       5.676  -0.381  19.468  1.00  0.00    -0.063 Cl
ENDROOT
BRANCH   3   8
HETATM    8  S2  UNL     1       8.604   3.016  22.674  1.00  0.00     0.279 S
HETATM    9  O2  UNL     1       9.913   3.661  22.426  1.00  0.00    -0.199 OA
HETATM   10  O3  UNL     1       8.799   1.882  23.630  1.00  0.00    -0.199 OA
BRANCH   8  11
HETATM   11  N2  UNL     1       7.459   4.098  23.380  1.00  0.00    -0.323 N
ATOM     12  H22 UNL     1       7.479   4.424  24.345  1.00  0.00     0.169 HD
ATOM     13  H21 UNL     1       6.772   4.344  22.668  1.00  0.00     0.169 HD
ENDBRANCH   8  11
ENDBRANCH   3   8
BRANCH   1  14
HETATM   14  C1  UNL     1       6.828   1.703  17.338  1.00  0.00     0.275 C
HETATM   15  N1  UNL     1       5.631   1.074  16.921  1.00  0.00    -0.057 NA
HETATM   16  O1  UNL     1       7.603   2.145  16.473  1.00  0.00    -0.270 OA
ENDBRANCH   1  14
TORSDOF 3
ENDMDL