MODEL 5
REMARK VINA RESULT: -5.871322316      4.834      5.910
REMARK  3 active torsions:
REMARK  status: ('A' for Active; 'I' for Inactive)
REMARK    1  A    between atoms: C1_2  and  C2_4
REMARK    2  A    between atoms: C3_7  and  S1_8
REMARK    3  A    between atoms: S1_8  and  N3_9
ROOT
HETATM    1  C2  UNL     1       7.670   3.290  22.532  1.00  0.00     0.128 A
HETATM    2  N2  UNL     1       7.216   4.161  23.376  1.00  0.00    -0.334 N
ATOM      3  H2  UNL     1       6.764   5.010  23.037  1.00  0.00     0.167 HD
HETATM    4  C3  UNL     1       7.336   3.955  24.671  1.00  0.00     0.193 A
HETATM    5  S2  UNL     1       8.134   2.453  24.737  1.00  0.00    -0.044 SA
HETATM    6  C4  UNL     1       8.271   2.166  23.060  1.00  0.00     0.109 A
HETATM    7 CL1  UNL     1       8.989   0.796  22.189  1.00  0.00    -0.074 Cl
ENDROOT
BRANCH   4   8
HETATM    8  S1  UNL     1       6.816   4.963  26.023  1.00  0.00     0.279 S
HETATM    9  O2  UNL     1       6.538   4.086  27.228  1.00  0.00    -0.199 OA
HETATM   10  O3  UNL     1       5.538   5.658  25.646  1.00  0.00    -0.199 OA
BRANCH   8  11
HETATM   11  N3  UNL     1       7.999   6.103  26.470  1.00  0.00    -0.323 N
ATOM     12  H32 UNL     1       8.660   5.949  27.231  1.00  0.00     0.169 HD
ATOM     13  H31 UNL     1       7.963   6.944  25.892  1.00  0.00     0.169 HD
ENDBRANCH   8  11
ENDBRANCH   4   8
BRANCH   1  14
HETATM   14  C1  UNL     1       7.574   3.445  21.070  1.00  0.00     0.283 C
HETATM   15  N1  UNL     1       8.673   3.789  20.250  1.00  0.00    -0.056 NA
HETATM   16  O1  UNL     1       6.462   3.263  20.530  1.00  0.00    -0.269 OA
ENDBRANCH   1  14
TORSDOF 3
ENDMDL