MODEL 3
REMARK VINA RESULT: -5.490649988      5.293      7.151
REMARK  4 active torsions:
REMARK  status: ('A' for Active; 'I' for Inactive)
REMARK    1  A    between atoms: N1_3  and  N2_5
REMARK    2  A    between atoms: C3_7  and  C4_8
REMARK    3  A    between atoms: N4_13  and  O1_14
REMARK    4  A    between atoms: N5_18  and  O2_19
ROOT
HETATM    1  C1  UNL     1      10.148   4.353  21.656  1.00  0.00     0.124 C
HETATM    2  C2  UNL     1       9.739   3.219  21.845  1.00  0.00    -0.059 C
HETATM    3  N1  UNL     1       9.280   1.916  22.081  1.00  0.00    -0.270 N
ATOM      4  H1  UNL     1       9.507   1.471  22.971  1.00  0.00     0.196 HD
ENDROOT
BRANCH   3   5
HETATM    5  N2  UNL     1       8.529   1.206  21.151  1.00  0.00    -0.303 N
HETATM    6  C3  UNL     1       7.629   1.719  20.407  1.00  0.00     0.140 C
ATOM      7  H2  UNL     1       8.710   0.206  21.059  1.00  0.00     0.186 HD
BRANCH   6   8
HETATM    8  C4  UNL     1       6.814   1.052  19.426  1.00  0.00     0.091 A
HETATM    9  C5  UNL     1       6.836   1.414  18.109  1.00  0.00     0.012 A
HETATM   10  C6  UNL     1       7.691   2.502  17.620  1.00  0.00     0.054 C
HETATM   11  C7  UNL     1       6.031   0.750  17.162  1.00  0.00     0.155 A
HETATM   12  N3  UNL     1       6.057   1.128  15.792  1.00  0.00    -0.080 NA
HETATM   13  N4  UNL     1       5.240  -0.247  17.578  1.00  0.00    -0.180 N
HETATM   14  C8  UNL     1       5.213  -0.608  18.872  1.00  0.00     0.234 A
HETATM   15 CL1  UNL     1       4.194  -1.904  19.447  1.00  0.00    -0.040 Cl
HETATM   16  N5  UNL     1       5.984   0.029  19.771  1.00  0.00    -0.193 N
BRANCH  13  17
HETATM   17  O1  UNL     1       4.444  -0.914  16.681  1.00  0.00    -0.279 OA
ATOM     18  H1  UNL     1       4.265  -1.839  16.799  1.00  0.00     0.245 HD
ENDBRANCH  13  17
BRANCH  16  19
HETATM   19  O2  UNL     1       5.979  -0.319  21.110  1.00  0.00    -0.280 OA
ATOM     20  H2  UNL     1       6.348  -1.169  21.318  1.00  0.00     0.245 HD
ENDBRANCH  16  19
ENDBRANCH   6   8
ENDBRANCH   3   5
TORSDOF 4
ENDMDL