MODEL 4
REMARK VINA RESULT: -5.247246252      2.160      2.461
REMARK  3 active torsions:
REMARK  status: ('A' for Active; 'I' for Inactive)
REMARK    1  A    between atoms: N1_2  and  N2_3
REMARK       I    between atoms: N2_3  and  C2_5
REMARK    2  A    between atoms: C2_5  and  C3_7
REMARK    3  A    between atoms: N4_13  and  O3_14
ROOT
HETATM    1  C3  UNL     1       8.097   1.720  20.751  1.00  0.00     0.194 A
HETATM    2  C4  UNL     1       7.191   1.530  19.726  1.00  0.00     0.140 A
HETATM    3 BR1  UNL     1       5.908   0.128  19.569  1.00  0.00    -0.026 Br
HETATM    4  N3  UNL     1       7.378   2.520  18.830  1.00  0.00    -0.230 N
ATOM      5  H3  UNL     1       6.863   2.656  17.960  1.00  0.00     0.197 HD
HETATM    6  O2  UNL     1       8.350   3.276  19.288  1.00  0.00    -0.127 OA
HETATM    7  N4  UNL     1       8.798   2.832  20.417  1.00  0.00    -0.094 N
ENDROOT
BRANCH   1   8
HETATM    8  C2  UNL     1       8.271   0.921  21.943  1.00  0.00     0.291 C
HETATM    9  N2  UNL     1       7.231   0.743  22.892  1.00  0.00    -0.269 N
ATOM     10  H2  UNL     1       6.338   1.205  22.725  1.00  0.00     0.185 HD
HETATM   11  O1  UNL     1       9.377   0.333  22.194  1.00  0.00    -0.264 OA
BRANCH   9  12
HETATM   12  N1  UNL     1       7.372  -0.030  24.041  1.00  0.00    -0.143 NA
HETATM   13  C1  UNL     1       6.653   0.530  25.174  1.00  0.00     0.159 C
ENDBRANCH   9  12
ENDBRANCH   1   8
BRANCH   7  14
HETATM   14  O3  UNL     1       9.827   3.420  21.106  1.00  0.00    -0.261 OA
ATOM     15  H3  UNL     1      10.245   4.255  20.933  1.00  0.00     0.247 HD
ENDBRANCH   7  14
TORSDOF 3
ENDMDL