MODEL 4
REMARK VINA RESULT: -5.647789632      4.203      5.351
REMARK  4 active torsions:
REMARK  status: ('A' for Active; 'I' for Inactive)
REMARK    1  A    between atoms: C2_2  and  C3_4
REMARK    2  A    between atoms: C4_7  and  N2_8
REMARK    3  A    between atoms: N2_8  and  N3_10
REMARK    4  A    between atoms: C5_15  and  N5_16
ROOT
HETATM    1  C3  UNL     1       6.803   2.208  19.211  1.00  0.00     0.068 A
HETATM    2  N1  UNL     1       6.321   2.880  20.199  1.00  0.00    -0.193 N
ATOM      3  H1  UNL     1       5.326   2.973  20.401  1.00  0.00     0.184 HD
HETATM    4  C4  UNL     1       7.344   3.468  20.964  1.00  0.00     0.699 A
HETATM    5  N4  UNL     1       8.469   3.167  20.458  1.00  0.00    -0.190 N
ATOM      6  H4  UNL     1       9.376   3.465  20.818  1.00  0.00     0.180 HD
HETATM    7  C5  UNL     1       8.265   2.340  19.299  1.00  0.00     0.344 A
ENDROOT
BRANCH   4   8
HETATM    8  N2  UNL     1       7.102   4.277  22.129  1.00  0.00    -0.072 N
ATOM      9  H2  UNL     1       6.638   5.179  22.023  1.00  0.00     0.212 HD
BRANCH   8  10
HETATM   10  N3  UNL     1       7.484   3.856  23.391  1.00  0.00    -0.024 N
HETATM   11  O1  UNL     1       6.740   4.148  24.350  1.00  0.00    -0.516 OA
HETATM   12  O2  UNL     1       8.618   3.143  23.664  1.00  0.00    -0.516 OA
ENDBRANCH   8  10
ENDBRANCH   4   8
BRANCH   1  13
HETATM   13  C2  UNL     1       6.003   1.459  18.203  1.00  0.00     0.104 C
HETATM   14  C1  UNL     1       6.683   1.502  16.831  1.00  0.00     0.028 C
HETATM   15 BR1  UNL     1       5.676  -0.361  18.752  1.00  0.00    -0.085 Br
ENDBRANCH   1  13
BRANCH   7  16
HETATM   16  N5  UNL     1       8.935   1.060  19.416  1.00  0.00    -0.052 N
ATOM     17  H53 UNL     1       9.529   1.032  20.244  1.00  0.00     0.277 HD
ATOM     18  H52 UNL     1       8.275   0.322  19.661  1.00  0.00     0.277 HD
ATOM     19  H51 UNL     1       9.464   0.815  18.578  1.00  0.00     0.277 HD
ENDBRANCH   7  16
TORSDOF 4
ENDMDL