MODEL 4
REMARK VINA RESULT: -4.166866087      2.968      4.515
REMARK  2 active torsions:
REMARK  status: ('A' for Active; 'I' for Inactive)
REMARK       I    between atoms: N1_2  and  C2_4
REMARK    1  A    between atoms: C2_4  and  O2_6
REMARK    2  A    between atoms: O2_6  and  C3_7
ROOT
HETATM    1  C1  UNL     1      18.349  -2.181  12.857  1.00  0.00     0.151 C
HETATM    2  N1  UNL     1      18.636  -1.536  11.592  1.00  0.00    -0.341 N
ATOM      3  H1  UNL     1      18.515  -0.526  11.515  1.00  0.00     0.164 HD
HETATM    4  C2  UNL     1      19.082  -2.261  10.451  1.00  0.00     0.363 C
HETATM    5  O1  UNL     1      19.246  -3.523  10.502  1.00  0.00    -0.238 OA
ENDROOT
BRANCH   4   6
HETATM    6  O2  UNL     1      19.362  -1.665   9.235  1.00  0.00    -0.247 OA
BRANCH   6   7
HETATM    7  C3  UNL     1      20.695  -1.546   8.745  1.00  0.00     0.306 C
HETATM    8 CL1  UNL     1      21.294  -3.120   8.160  1.00  0.00    -0.053 Cl
HETATM    9 CL2  UNL     1      20.676  -0.394   7.402  1.00  0.00    -0.053 Cl
HETATM   10 CL3  UNL     1      21.813  -0.957   9.970  1.00  0.00    -0.053 Cl
ENDBRANCH   6   7
ENDBRANCH   4   6
TORSDOF 2
ENDMDL