MODEL 3
REMARK VINA RESULT: -2.789989197      2.479      3.000
REMARK  1 active torsions:
REMARK  status: ('A' for Active; 'I' for Inactive)
REMARK    1  A    between atoms: C6_7  and  O1_8
ROOT
HETATM    1  N1  UNL     1      23.666  -3.981   4.535  1.00  0.00    -0.197 NA
HETATM    2  C1  UNL     1      23.090  -4.527   5.384  1.00  0.00     0.067 C
HETATM    3  C2  UNL     1      22.378  -5.234   6.457  1.00  0.00     0.134 C
HETATM    4  C3  UNL     1      22.456  -4.477   7.731  1.00  0.00     0.022 C
HETATM    5  C4  UNL     1      23.650  -4.717   8.570  1.00  0.00     0.004 C
HETATM    6  C5  UNL     1      24.319  -6.027   8.425  1.00  0.00     0.035 C
HETATM    7  C6  UNL     1      24.409  -6.434   6.961  1.00  0.00     0.158 C
HETATM    8  C7  UNL     1      22.950  -6.624   6.526  1.00  0.00     0.154 C
HETATM    9 CL1  UNL     1      22.120  -7.596   7.767  1.00  0.00    -0.097 Cl
HETATM   10 CL2  UNL     1      22.835  -7.441   4.986  1.00  0.00    -0.097 Cl
ENDROOT
BRANCH   7  11
HETATM   11  O1  UNL     1      25.156  -7.572   6.782  1.00  0.00    -0.392 OA
ATOM     12  H1  UNL     1      25.223  -8.089   7.576  1.00  0.00     0.210 HD
ENDBRANCH   7  11
TORSDOF 1
ENDMDL