MODEL 2
REMARK VINA RESULT: -4.883346287      5.025      6.107
REMARK  1 active torsions:
REMARK  status: ('A' for Active; 'I' for Inactive)
REMARK    1  A    between atoms: N1_5  and  N2_7
ROOT
HETATM    1  C1  UNL     1      22.184  -5.054   7.996  1.00  0.00     0.050 C
HETATM    2  C2  UNL     1      22.151  -4.521   6.625  1.00  0.00    -0.011 C
HETATM    3  C3  UNL     1      21.328  -3.520   6.295  1.00  0.00     0.035 C
HETATM    4  C4  UNL     1      21.277  -2.976   4.950  1.00  0.00     0.033 C
HETATM    5  N1  UNL     1      20.747  -1.859   4.726  1.00  0.00    -0.311 N
ATOM      6  H1  UNL     1      20.751  -1.545   3.756  1.00  0.00     0.186 HD
HETATM    7  C5  UNL     1      21.860  -3.758   3.837  1.00  0.00     0.002 C
HETATM    8  C6  UNL     1      23.062  -2.966   3.318  1.00  0.00     0.021 C
HETATM    9  C7  UNL     1      20.878  -3.966   2.701  1.00  0.00     0.021 C
HETATM   10  C8  UNL     1      22.315  -5.125   4.302  1.00  0.00     0.099 C
HETATM   11  C9  UNL     1      23.058  -5.109   5.596  1.00  0.00     0.268 C
HETATM   12  F1  UNL     1      23.349  -6.411   5.935  1.00  0.00    -0.201 F
HETATM   13  F2  UNL     1      24.235  -4.394   5.524  1.00  0.00    -0.201 F
ENDROOT
BRANCH   5  14
HETATM   14  N2  UNL     1      20.161  -1.007   5.640  1.00  0.00    -0.345 N
ATOM     15  H22 UNL     1      19.714  -1.466   6.434  1.00  0.00     0.176 HD
ATOM     16  H21 UNL     1      20.129   0.012   5.608  1.00  0.00     0.176 HD
ENDBRANCH   5  14
TORSDOF 1
ENDMDL