MODEL 5
REMARK VINA RESULT: -3.109871470      5.088      6.010
REMARK  1 active torsions:
REMARK  status: ('A' for Active; 'I' for Inactive)
REMARK    1  A    between atoms: N1_9  and  O1_10
ROOT
HETATM    1  C1  UNL     1      23.727  -3.939   5.054  1.00  0.00     0.029 C
HETATM    2  C2  UNL     1      23.713  -5.199   5.874  1.00  0.00     0.085 C
HETATM    3  C3  UNL     1      23.175  -6.385   5.138  1.00  0.00     0.022 C
HETATM    4  C4  UNL     1      23.330  -7.596   6.035  1.00  0.00     0.006 C
HETATM    5  C5  UNL     1      23.896  -7.267   7.371  1.00  0.00     0.061 C
HETATM    6  C6  UNL     1      23.316  -6.043   8.010  1.00  0.00     0.190 C
HETATM    7 CL1  UNL     1      24.640  -5.355   9.021  1.00  0.00    -0.082 Cl
HETATM    8 CL2  UNL     1      22.005  -6.477   9.116  1.00  0.00    -0.082 Cl
HETATM    9  N1  UNL     1      22.958  -5.012   7.081  1.00  0.00    -0.156 NA
ENDROOT
BRANCH   9  10
HETATM   10  O1  UNL     1      21.664  -4.815   6.918  1.00  0.00    -0.310 OA
ATOM     11  H1  UNL     1      21.115  -5.580   7.040  1.00  0.00     0.237 HD
ENDBRANCH   9  10
TORSDOF 1
ENDMDL