MODEL 5
REMARK VINA RESULT: -4.609941600      3.177      3.549
REMARK  1 active torsions:
REMARK  status: ('A' for Active; 'I' for Inactive)
REMARK    1  A    between atoms: C2_2  and  C3_5
ROOT
HETATM    1  C3  UNL     1      20.852  -3.595   8.041  1.00  0.00     0.394 C
HETATM    2  N1  UNL     1      21.661  -4.443   8.860  1.00  0.00    -0.032 N
ATOM      3  H11 UNL     1      21.129  -4.969   9.553  1.00  0.00     0.281 HD
ATOM      4  H12 UNL     1      22.250  -3.934   9.518  1.00  0.00     0.281 HD
HETATM    5  C4  UNL     1      22.394  -5.268   7.960  1.00  0.00     0.150 C
HETATM    6  C5  UNL     1      23.880  -5.153   8.227  1.00  0.00     0.041 C
HETATM    7  C6  UNL     1      24.424  -6.263   7.373  1.00  0.00     0.003 C
HETATM    8  C7  UNL     1      23.410  -7.354   7.487  1.00  0.00     0.003 C
HETATM    9  C8  UNL     1      22.176  -6.743   8.151  1.00  0.00     0.041 C
HETATM   10  C9  UNL     1      22.034  -4.789   6.578  1.00  0.00     0.209 C
HETATM   11  O1  UNL     1      21.522  -3.522   6.820  1.00  0.00    -0.352 OA
ENDROOT
BRANCH   1  12
HETATM   12  C2  UNL     1      20.747  -2.194   8.659  1.00  0.00     0.290 C
HETATM   13  C1  UNL     1      20.438  -1.221   7.546  1.00  0.00     0.095 C
HETATM   14  F1  UNL     1      19.779  -2.209   9.638  1.00  0.00    -0.202 F
HETATM   15  F2  UNL     1      21.932  -1.816   9.225  1.00  0.00    -0.202 F
ENDBRANCH   1  12
TORSDOF 1
ENDMDL