MODEL 4
REMARK VINA RESULT: -4.436903200      4.681      5.861
REMARK  1 active torsions:
REMARK  status: ('A' for Active; 'I' for Inactive)
REMARK    1  A    between atoms: C2_2  and  C5_5
ROOT
HETATM    1  C5  UNL     1      20.523  -0.040   7.976  1.00  0.00     0.236 C
HETATM    2  O1  UNL     1      21.706   0.708   7.820  1.00  0.00    -0.290 OA
HETATM    3  C6  UNL     1      21.450   1.546   6.717  1.00  0.00     0.365 C
HETATM    4  O2  UNL     1      22.044   2.623   6.418  1.00  0.00    -0.238 OA
HETATM    5  N1  UNL     1      20.387   0.999   5.946  1.00  0.00    -0.272 N
ATOM      6  H1  UNL     1      19.929   1.412   5.134  1.00  0.00     0.170 HD
HETATM    7  C7  UNL     1      20.093  -0.293   6.576  1.00  0.00     0.353 C
HETATM    8  F1  UNL     1      18.740  -0.506   6.438  1.00  0.00    -0.179 F
HETATM    9  F2  UNL     1      20.816  -1.231   5.905  1.00  0.00    -0.179 F
ENDROOT
BRANCH   1  10
HETATM   10  C2  UNL     1      20.798  -1.237   8.804  1.00  0.00    -0.017 C
HETATM   11  C1  UNL     1      19.682  -1.661   9.699  1.00  0.00     0.017 C
HETATM   12  C3  UNL     1      21.004  -2.403   7.819  1.00  0.00     0.017 C
HETATM   13  C4  UNL     1      22.059  -1.145   9.614  1.00  0.00     0.017 C
ENDBRANCH   1  10
TORSDOF 1
ENDMDL