MODEL 5
REMARK VINA RESULT: -4.295636571      3.778      5.648
REMARK  1 active torsions:
REMARK  status: ('A' for Active; 'I' for Inactive)
REMARK    1  A    between atoms: C2_3  and  C3_5
ROOT
HETATM    1  C3  UNL     1      20.517  -2.578   7.468  1.00  0.00     0.251 C
HETATM    2  C4  UNL     1      21.394  -3.401   8.426  1.00  0.00     0.057 C
HETATM    3  C5  UNL     1      21.707  -4.552   7.559  1.00  0.00     0.080 C
HETATM    4  S1  UNL     1      23.338  -5.288   7.761  1.00  0.00    -0.162 SA
HETATM    5  C6  UNL     1      23.710  -5.393   5.953  1.00  0.00     0.076 C
HETATM    6  C7  UNL     1      22.412  -4.833   5.341  1.00  0.00     0.044 C
HETATM    7  C8  UNL     1      22.052  -3.766   6.272  1.00  0.00     0.201 C
HETATM    8  N1  UNL     1      20.875  -3.027   6.113  1.00  0.00    -0.059 N
ATOM      9  H11 UNL     1      20.952  -2.270   5.434  1.00  0.00     0.278 HD
ATOM     10  H12 UNL     1      20.130  -3.536   5.636  1.00  0.00     0.278 HD
ENDROOT
BRANCH   1  11
HETATM   11  C2  UNL     1      20.692  -1.140   7.647  1.00  0.00     0.151 C
HETATM   12  C1  UNL     1      20.083  -0.309   6.808  1.00  0.00     0.228 C
HETATM   13  F1  UNL     1      19.297  -0.775   5.782  1.00  0.00    -0.216 F
HETATM   14  F2  UNL     1      21.443  -0.575   8.625  1.00  0.00    -0.206 F
ENDBRANCH   1  11
TORSDOF 1
ENDMDL