MODEL 5
REMARK VINA RESULT: -2.024634357      2.459      3.156
REMARK  1 active torsions:
REMARK  status: ('A' for Active; 'I' for Inactive)
REMARK    1  A    between atoms: C2_2  and  O1_3
ROOT
HETATM    1  C1  UNL     1      24.794  -5.624   5.638  1.00  0.00     0.053 C
HETATM    2  C2  UNL     1      23.528  -6.191   6.231  1.00  0.00     0.128 C
HETATM    3  C3  UNL     1      22.403  -5.901   5.300  1.00  0.00     0.117 C
HETATM    4  S1  UNL     1      22.436  -4.232   4.616  1.00  0.00    -0.166 SA
HETATM    5  C4  UNL     1      21.706  -3.007   5.705  1.00  0.00     0.074 C
HETATM    6  C5  UNL     1      20.882  -3.654   6.760  1.00  0.00     0.010 C
HETATM    7  C6  UNL     1      21.594  -3.968   8.025  1.00  0.00     0.007 C
HETATM    8  C7  UNL     1      23.045  -4.328   7.847  1.00  0.00     0.082 C
HETATM    9  C8  UNL     1      23.295  -5.777   7.648  1.00  0.00     0.274 C
HETATM   10  F1  UNL     1      24.427  -6.155   8.374  1.00  0.00    -0.203 F
HETATM   11  F2  UNL     1      22.256  -6.546   8.150  1.00  0.00    -0.203 F
ENDROOT
BRANCH   2  12
HETATM   12  O1  UNL     1      23.701  -7.596   6.244  1.00  0.00    -0.383 OA
ATOM     13  H1  UNL     1      23.565  -7.884   5.349  1.00  0.00     0.210 HD
ENDBRANCH   2  12
TORSDOF 1
ENDMDL