MODEL 2
REMARK VINA RESULT: -4.748513251      5.116      5.904
REMARK  0 active torsions:
REMARK  status: ('A' for Active; 'I' for Inactive)
ROOT
HETATM    1  C1  UNL     1      21.325  -3.999   8.434  1.00  0.00     0.012 C
HETATM    2  C2  UNL     1      20.487  -2.851   7.904  1.00  0.00     0.006 C
HETATM    3  C3  UNL     1      20.999  -2.343   6.609  1.00  0.00     0.128 C
HETATM    4  N1  UNL     1      20.370  -1.102   6.229  1.00  0.00    -0.351 N
ATOM      5  H1  UNL     1      19.742  -1.135   5.426  1.00  0.00     0.163 HD
HETATM    6  C4  UNL     1      20.535   0.170   6.861  1.00  0.00     0.285 C
HETATM    7  O1  UNL     1      19.953   1.156   6.297  1.00  0.00    -0.260 OA
HETATM    8  S1  UNL     1      21.468   0.516   8.347  1.00  0.00     0.008 SA
HETATM    9  C5  UNL     1      21.358  -0.994   9.390  1.00  0.00     0.300 C
HETATM   10  F1  UNL     1      22.563  -1.611   9.496  1.00  0.00    -0.193 F
HETATM   11  F2  UNL     1      21.052  -0.505  10.672  1.00  0.00    -0.193 F
HETATM   12  C6  UNL     1      20.227  -1.840   8.962  1.00  0.00     0.097 C
ENDROOT
TORSDOF 0
ENDMDL