MODEL 2
REMARK VINA RESULT: -5.093098514      6.088      8.107
REMARK  3 active torsions:
REMARK  status: ('A' for Active; 'I' for Inactive)
REMARK    1  A    between atoms: C5_5  and  C6_6
REMARK    2  A    between atoms: C7_7  and  C8_8
REMARK    3  A    between atoms: N1_12  and  O1_13
ROOT
HETATM    1  C1  UNL     1      22.361  -7.461   7.896  1.00  0.00     0.038 C
HETATM    2  C2  UNL     1      23.276  -6.260   7.916  1.00  0.00     0.050 C
HETATM    3  C3  UNL     1      24.298  -6.349   9.023  1.00  0.00     0.038 C
HETATM    4  C4  UNL     1      22.411  -5.056   8.058  1.00  0.00     0.017 C
HETATM    5  C5  UNL     1      22.175  -4.593   6.840  1.00  0.00     0.009 C
HETATM    6  C9  UNL     1      22.870  -5.465   5.856  1.00  0.00     0.169 C
HETATM    7  N1  UNL     1      23.932  -6.014   6.673  1.00  0.00    -0.182 NA
ENDROOT
BRANCH   5   8
HETATM    8  C6  UNL     1      21.375  -3.437   6.548  1.00  0.00    -0.065 C
HETATM    9  C7  UNL     1      20.717  -2.453   6.307  1.00  0.00    -0.032 C
BRANCH   9  10
HETATM   10  C8  UNL     1      19.928  -1.239   6.015  1.00  0.00     0.432 C
HETATM   11  F1  UNL     1      20.722  -0.387   5.269  1.00  0.00    -0.200 F
HETATM   12  F2  UNL     1      19.526  -0.622   7.203  1.00  0.00    -0.200 F
ENDBRANCH   9  10
ENDBRANCH   5   8
BRANCH   7  13
HETATM   13  O1  UNL     1      24.553  -7.053   6.134  1.00  0.00    -0.312 OA
ATOM     14  H1  UNL     1      25.500  -6.993   6.093  1.00  0.00     0.237 HD
ENDBRANCH   7  13
TORSDOF 3
ENDMDL