MODEL 2
REMARK VINA RESULT: -4.371762609      3.444      4.778
REMARK  1 active torsions:
REMARK  status: ('A' for Active; 'I' for Inactive)
REMARK    1  A    between atoms: C6_6  and  O1_7
ROOT
HETATM    1  C1  UNL     1       3.609  37.783 -12.832  1.00  0.00     0.010 C
HETATM    2  C2  UNL     1       4.879  37.265 -13.511  1.00  0.00    -0.016 C
HETATM    3  C3  UNL     1       4.597  36.242 -14.553  1.00  0.00     0.004 C
HETATM    4  C4  UNL     1       4.612  36.767 -15.959  1.00  0.00     0.003 C
HETATM    5  C5  UNL     1       5.882  37.457 -16.337  1.00  0.00     0.032 C
HETATM    6  C6  UNL     1       6.574  38.084 -15.134  1.00  0.00     0.118 C
HETATM    7  C7  UNL     1       5.513  38.497 -14.158  1.00  0.00     0.035 C
ENDROOT
BRANCH   6   8
HETATM    8  O1  UNL     1       7.422  37.091 -14.620  1.00  0.00    -0.396 OA
ATOM      9  H1  UNL     1       7.335  36.348 -15.203  1.00  0.00     0.210 HD
ENDBRANCH   6   8
TORSDOF 1
ENDMDL