MODEL 1
REMARK VINA RESULT: -4.195156588      0.000      0.000
REMARK  1 active torsions:
REMARK  status: ('A' for Active; 'I' for Inactive)
REMARK    1  A    between atoms: C5_6  and  O2_8
ROOT
HETATM    1  C1  UNL     1       3.158  35.957 -13.537  1.00  0.00     0.015 C
HETATM    2  C2  UNL     1       4.347  35.791 -14.430  1.00  0.00     0.045 C
HETATM    3  C3  UNL     1       3.941  35.672 -15.863  1.00  0.00     0.036 C
HETATM    4  C4  UNL     1       4.810  36.642 -16.583  1.00  0.00     0.172 C
HETATM    5  O1  UNL     1       5.681  37.216 -15.708  1.00  0.00    -0.355 OA
HETATM    6  C5  UNL     1       5.302  36.926 -14.419  1.00  0.00     0.161 C
HETATM    7  C6  UNL     1       4.783  38.173 -13.760  1.00  0.00     0.079 C
ENDROOT
BRANCH   6   8
HETATM    8  O2  UNL     1       6.462  36.545 -13.702  1.00  0.00    -0.365 OA
ATOM      9  H2  UNL     1       6.330  36.731 -12.779  1.00  0.00     0.213 HD
ENDBRANCH   6   8
TORSDOF 1
ENDMDL