MODEL 3
REMARK VINA RESULT: -3.778806055      5.587      7.116
REMARK  1 active torsions:
REMARK  status: ('A' for Active; 'I' for Inactive)
REMARK    1  A    between atoms: C6_7  and  O2_8
ROOT
HETATM    1  C1  UNL     1       6.754  36.641 -13.701  1.00  0.00     0.048 C
HETATM    2  C2  UNL     1       5.383  36.978 -14.262  1.00  0.00     0.079 C
HETATM    3  C3  UNL     1       5.017  38.389 -13.826  1.00  0.00     0.048 C
HETATM    4  O1  UNL     1       5.472  36.971 -15.625  1.00  0.00    -0.378 OA
HETATM    5  C4  UNL     1       4.422  36.266 -16.152  1.00  0.00     0.171 C
HETATM    6  C5  UNL     1       3.922  35.311 -15.094  1.00  0.00     0.061 C
HETATM    7  C6  UNL     1       4.319  36.035 -13.826  1.00  0.00     0.153 C
ENDROOT
BRANCH   7   8
HETATM    8  O2  UNL     1       3.156  36.690 -13.370  1.00  0.00    -0.392 OA
ATOM      9  H2  UNL     1       2.542  36.882 -14.068  1.00  0.00     0.210 HD
ENDBRANCH   7   8
TORSDOF 1
ENDMDL