MODEL 3
REMARK VINA RESULT: -3.958018066      4.908      5.699
REMARK  1 active torsions:
REMARK  status: ('A' for Active; 'I' for Inactive)
REMARK    1  A    between atoms: C6_7  and  N2_8
ROOT
HETATM    1  C1  UNL     1       4.789  37.089 -16.950  1.00  0.00     0.145 C
HETATM    2  N1  UNL     1       5.289  36.638 -15.715  1.00  0.00    -0.391 N
HETATM    3  C2  UNL     1       4.413  35.900 -14.887  1.00  0.00     0.118 C
HETATM    4  C3  UNL     1       3.680  36.664 -13.853  1.00  0.00     0.020 C
HETATM    5  C4  UNL     1       4.399  37.793 -13.229  1.00  0.00     0.005 C
HETATM    6  C5  UNL     1       5.548  38.349 -13.965  1.00  0.00     0.054 C
HETATM    7  C6  UNL     1       6.157  37.496 -15.007  1.00  0.00     0.279 C
ENDROOT
BRANCH   7   8
HETATM    8  N2  UNL     1       6.905  38.362 -15.922  1.00  0.00    -0.059 N
ATOM      9  H23 UNL     1       6.295  38.783 -16.624  1.00  0.00     0.276 HD
ATOM     10  H22 UNL     1       7.220  39.215 -15.460  1.00  0.00     0.276 HD
ATOM     11  H21 UNL     1       7.680  37.858 -16.351  1.00  0.00     0.276 HD
ENDBRANCH   7   8
TORSDOF 1
ENDMDL