MODEL 4
REMARK VINA RESULT: -4.503580397      7.239      7.886
REMARK  1 active torsions:
REMARK  status: ('A' for Active; 'I' for Inactive)
REMARK    1  A    between atoms: O1_1  and  C1_3
ROOT
HETATM    1  C1  UNL     1       5.151  37.121 -17.555  1.00  0.00     0.189 A
HETATM    2  C2  UNL     1       4.363  36.240 -16.681  1.00  0.00     0.071 C
HETATM    3  C3  UNL     1       4.581  36.346 -15.229  1.00  0.00     0.006 C
HETATM    4  C4  UNL     1       5.189  37.608 -14.733  1.00  0.00     0.003 C
HETATM    5  C5  UNL     1       6.232  38.200 -15.609  1.00  0.00     0.037 C
HETATM    6  C6  UNL     1       5.893  38.184 -17.074  1.00  0.00     0.187 A
HETATM    7  O2  UNL     1       4.619  38.512 -17.502  1.00  0.00    -0.342 OA
ENDROOT
BRANCH   1   8
HETATM    8  O1  UNL     1       5.291  36.680 -18.882  1.00  0.00    -0.363 OA
ATOM      9  H1  UNL     1       5.950  37.135 -19.393  1.00  0.00     0.213 HD
ENDBRANCH   1   8
TORSDOF 1
ENDMDL