MODEL 4
REMARK VINA RESULT: -5.006922196      1.828      2.821
REMARK  1 active torsions:
REMARK  status: ('A' for Active; 'I' for Inactive)
REMARK    1  A    between atoms: C5_5  and  N1_6
ROOT
HETATM    1  C1  UNL     1      -2.351  35.831 -16.906  1.00  0.00     0.010 C
HETATM    2  C2  UNL     1      -1.370  35.067 -16.009  1.00  0.00    -0.019 C
HETATM    3  C3  UNL     1      -0.161  34.773 -16.861  1.00  0.00     0.006 C
HETATM    4  C4  UNL     1       0.846  34.047 -16.017  1.00  0.00     0.033 C
HETATM    5  C5  UNL     1       1.312  34.946 -14.917  1.00  0.00     0.183 C
HETATM    6  C6  UNL     1       0.227  35.606 -14.146  1.00  0.00     0.033 C
HETATM    7  C7  UNL     1      -0.972  35.996 -14.911  1.00  0.00     0.006 C
ENDROOT
BRANCH   5   8
HETATM    8  N1  UNL     1       2.069  34.114 -13.973  1.00  0.00    -0.075 N
ATOM      9  H13 UNL     1       2.938  34.549 -13.663  1.00  0.00     0.274 HD
ATOM     10  H12 UNL     1       1.626  34.042 -13.058  1.00  0.00     0.274 HD
ATOM     11  H11 UNL     1       2.212  33.209 -14.420  1.00  0.00     0.274 HD
ENDBRANCH   5   8
TORSDOF 1
ENDMDL