MODEL 3
REMARK VINA RESULT: -4.595236170      0.996      2.372
REMARK  1 active torsions:
REMARK  status: ('A' for Active; 'I' for Inactive)
REMARK    1  A    between atoms: C5_6  and  O2_7
ROOT
HETATM    1  C1  UNL     1      -0.263  35.646 -14.279  1.00  0.00     0.010 C
HETATM    2  C2  UNL     1      -1.572  36.024 -14.871  1.00  0.00    -0.012 C
HETATM    3  C3  UNL     1      -1.947  37.481 -14.585  1.00  0.00     0.031 C
HETATM    4  C4  UNL     1      -3.280  37.777 -15.212  1.00  0.00     0.171 C
HETATM    5  O1  UNL     1      -3.399  37.388 -16.514  1.00  0.00    -0.361 OA
HETATM    6  C5  UNL     1      -3.064  36.087 -16.778  1.00  0.00     0.257 C
HETATM    7  C6  UNL     1      -1.587  35.920 -16.396  1.00  0.00     0.065 C
ENDROOT
BRANCH   6   8
HETATM    8  O2  UNL     1      -3.149  35.838 -18.132  1.00  0.00    -0.371 OA
ATOM      9  H2  UNL     1      -2.282  35.825 -18.519  1.00  0.00     0.212 HD
ENDBRANCH   6   8
TORSDOF 1
ENDMDL