MODEL 2
REMARK VINA RESULT: -4.063828815      2.227      2.763
REMARK  1 active torsions:
REMARK  status: ('A' for Active; 'I' for Inactive)
REMARK    1  A    between atoms: C6_6  and  N1_7
ROOT
HETATM    1  C1  UNL     1       6.125  36.397 -13.460  1.00  0.00     0.045 C
HETATM    2  C2  UNL     1       4.872  36.935 -14.116  1.00  0.00     0.056 C
HETATM    3  C3  UNL     1       4.841  38.442 -13.911  1.00  0.00     0.045 C
HETATM    4  C4  UNL     1       4.854  36.566 -15.577  1.00  0.00     0.041 C
HETATM    5  C5  UNL     1       3.765  35.510 -15.620  1.00  0.00     0.064 C
HETATM    6  C6  UNL     1       3.730  35.106 -14.138  1.00  0.00     0.319 C
HETATM    7  O1  UNL     1       3.712  36.367 -13.553  1.00  0.00    -0.349 OA
ENDROOT
BRANCH   6   8
HETATM    8  N1  UNL     1       2.550  34.344 -13.934  1.00  0.00    -0.053 N
ATOM      9  H13 UNL     1       2.576  33.788 -13.079  1.00  0.00     0.277 HD
ATOM     10  H12 UNL     1       1.742  34.918 -13.693  1.00  0.00     0.277 HD
ATOM     11  H11 UNL     1       2.403  33.781 -14.771  1.00  0.00     0.277 HD
ENDBRANCH   6   8
TORSDOF 1
ENDMDL