MODEL 3
REMARK VINA RESULT: -4.207599528      1.049      1.138
REMARK  1 active torsions:
REMARK  status: ('A' for Active; 'I' for Inactive)
REMARK    1  A    between atoms: C4_4  and  O1_5
ROOT
HETATM    1  C1  UNL     1      -2.316  37.420 -14.903  1.00  0.00     0.039 C
HETATM    2  C2  UNL     1      -1.984  35.982 -15.149  1.00  0.00     0.120 C
HETATM    3  C3  UNL     1      -1.743  35.659 -16.602  1.00  0.00     0.065 C
HETATM    4  C4  UNL     1      -0.533  34.723 -16.469  1.00  0.00     0.149 C
HETATM    5  C5  UNL     1       0.181  35.445 -15.317  1.00  0.00     0.146 C
HETATM    6  C6  UNL     1       1.295  34.633 -14.754  1.00  0.00     0.042 C
HETATM    7  O2  UNL     1      -0.854  35.658 -14.445  1.00  0.00    -0.379 OA
ENDROOT
BRANCH   4   8
HETATM    8  O1  UNL     1       0.242  34.710 -17.599  1.00  0.00    -0.393 OA
ATOM      9  H1  UNL     1      -0.193  35.116 -18.340  1.00  0.00     0.210 HD
ENDBRANCH   4   8
TORSDOF 1
ENDMDL