MODEL 2
REMARK VINA RESULT: -5.018271105      1.142      2.926
REMARK  1 active torsions:
REMARK  status: ('A' for Active; 'I' for Inactive)
REMARK    1  A    between atoms: C6_6  and  O1_7
ROOT
HETATM    1  C1  UNL     1       0.336  34.616 -16.938  1.00  0.00     0.039 C
HETATM    2  C2  UNL     1      -1.001  34.933 -16.266  1.00  0.00     0.120 C
HETATM    3  C3  UNL     1      -0.740  35.751 -15.047  1.00  0.00     0.032 C
HETATM    4  C4  UNL     1      -1.826  36.695 -14.661  1.00  0.00     0.007 C
HETATM    5  C5  UNL     1      -2.711  37.151 -15.761  1.00  0.00     0.060 C
HETATM    6  C6  UNL     1      -2.741  36.336 -16.982  1.00  0.00     0.257 C
HETATM    7  O2  UNL     1      -1.822  35.400 -17.193  1.00  0.00    -0.357 OA
ENDROOT
BRANCH   6   8
HETATM    8  O1  UNL     1      -4.010  35.700 -17.056  1.00  0.00    -0.371 OA
ATOM      9  H1  UNL     1      -4.656  36.289 -16.685  1.00  0.00     0.212 HD
ENDBRANCH   6   8
TORSDOF 1
ENDMDL