MODEL 2
REMARK VINA RESULT: -5.696395943      0.791      2.234
REMARK  11 active torsions:
REMARK  status: ('A' for Active; 'I' for Inactive)
REMARK    1  A    between atoms: C2_2  and  C3_3
REMARK    2  A    between atoms: C3_3  and  C4_4
REMARK    3  A    between atoms: C4_4  and  C5_5
REMARK    4  A    between atoms: C5_5  and  C6_6
REMARK    5  A    between atoms: C6_6  and  C7_7
REMARK    6  A    between atoms: C7_7  and  C8_8
REMARK    7  A    between atoms: C7_7  and  N1_11
REMARK    8  A    between atoms: C8_8  and  C9_9
REMARK    9  A    between atoms: N1_11  and  C11_14
REMARK   10  A    between atoms: C11_14  and  C12_15
REMARK   11  A    between atoms: C12_15  and  C13_16
ROOT
HETATM    1  C7  UNL     1       4.146   0.019   7.694  1.00  0.00     0.185 C
ENDROOT
BRANCH   1   2
HETATM    2  C6  UNL     1       4.214  -0.566   9.034  1.00  0.00     0.033 C
BRANCH   2   3
HETATM    3  C5  UNL     1       3.329  -1.724   9.336  1.00  0.00     0.002 C
BRANCH   3   4
HETATM    4  C4  UNL     1       2.262  -1.345  10.384  1.00  0.00     0.000 C
BRANCH   4   5
HETATM    5  C3  UNL     1       2.472   0.053  10.902  1.00  0.00    -0.000 C
BRANCH   5   6
HETATM    6  C2  UNL     1       1.099   0.583  11.286  1.00  0.00    -0.005 C
HETATM    7  C1  UNL     1       0.067  -0.528  11.257  1.00  0.00     0.005 C
ENDBRANCH   5   6
ENDBRANCH   4   5
ENDBRANCH   3   4
ENDBRANCH   2   3
ENDBRANCH   1   2
BRANCH   1   8
HETATM    8  C8  UNL     1       2.884   0.220   6.978  1.00  0.00     0.032 C
BRANCH   8   9
HETATM    9  C9  UNL     1       1.852   1.119   7.531  1.00  0.00    -0.002 C
HETATM   10  C10 UNL     1       0.496   0.384   7.636  1.00  0.00     0.005 C
ENDBRANCH   8   9
ENDBRANCH   1   8
BRANCH   1  11
HETATM   11  N1  UNL     1       5.172  -0.533   6.755  1.00  0.00    -0.071 N
ATOM     12  H12 UNL     1       6.056  -0.027   6.814  1.00  0.00     0.277 HD
ATOM     13  H11 UNL     1       5.507  -1.451   7.051  1.00  0.00     0.277 HD
BRANCH  11  14
HETATM   14  C11 UNL     1       4.652  -0.556   5.418  1.00  0.00     0.233 C
BRANCH  14  15
HETATM   15  C12 UNL     1       5.609  -1.271   4.467  1.00  0.00     0.032 C
BRANCH  15  16
HETATM   16  C13 UNL     1       6.010  -0.218   3.428  1.00  0.00    -0.013 A
HETATM   17  C14 UNL     1       7.286   0.572   3.690  1.00  0.00     0.005 A
HETATM   18  C15 UNL     1       7.284  -0.486   2.635  1.00  0.00     0.005 A
ENDBRANCH  15  16
ENDBRANCH  14  15
ENDBRANCH  11  14
ENDBRANCH   1  11
TORSDOF 11
ENDMDL