MODEL 3
REMARK VINA RESULT: -6.746456652      1.242      1.669
REMARK  12 active torsions:
REMARK  status: ('A' for Active; 'I' for Inactive)
REMARK    1  A    between atoms: C2_2  and  C3_3
REMARK    2  A    between atoms: C3_3  and  C4_4
REMARK    3  A    between atoms: C5_5  and  C6_6
REMARK    4  A    between atoms: C6_6  and  C7_7
REMARK    5  A    between atoms: C8_8  and  C9_9
REMARK    6  A    between atoms: C9_9  and  C10_10
REMARK    7  A    between atoms: C10_10  and  C11_11
REMARK    8  A    between atoms: C11_11  and  C12_12
REMARK    9  A    between atoms: C12_12  and  C13_13
REMARK   10  A    between atoms: C13_13  and  C14_14
REMARK   11  A    between atoms: C14_14  and  C15_15
REMARK   12  A    between atoms: C15_15  and  O1_16
ROOT
HETATM    1  C9  UNL     1       3.811   0.507   8.163  1.00  0.00     0.027 C
ENDROOT
BRANCH   1   2
HETATM    2  C8  UNL     1       4.303  -0.423   7.110  1.00  0.00    -0.030 C
HETATM    3  C7  UNL     1       5.509  -0.299   6.582  1.00  0.00    -0.027 C
BRANCH   3   4
HETATM    4  C6  UNL     1       6.011  -1.227   5.526  1.00  0.00     0.053 C
BRANCH   4   5
HETATM    5  C5  UNL     1       5.297  -0.971   4.263  1.00  0.00    -0.027 C
HETATM    6  C4  UNL     1       5.701  -0.099   3.375  1.00  0.00    -0.027 C
BRANCH   6   7
HETATM    7  C3  UNL     1       6.898   0.757   3.468  1.00  0.00     0.053 C
BRANCH   7   8
HETATM    8  C2  UNL     1       8.003   0.078   2.720  1.00  0.00    -0.033 C
HETATM    9  C1  UNL     1       9.209   0.611   2.713  1.00  0.00     0.007 C
ENDBRANCH   7   8
ENDBRANCH   6   7
ENDBRANCH   4   5
ENDBRANCH   3   4
ENDBRANCH   1   2
BRANCH   1  10
HETATM   10  C10 UNL     1       3.994  -0.155   9.555  1.00  0.00     0.004 C
BRANCH  10  11
HETATM   11  C11 UNL     1       3.376  -1.493   9.435  1.00  0.00     0.000 C
BRANCH  11  12
HETATM   12  C12 UNL     1       2.048  -1.671  10.008  1.00  0.00     0.000 C
BRANCH  12  13
HETATM   13  C13 UNL     1       0.842  -1.377   9.231  1.00  0.00     0.002 C
BRANCH  13  14
HETATM   14  C14 UNL     1      -0.291  -0.659   9.873  1.00  0.00     0.026 C
BRANCH  14  15
HETATM   15  C15 UNL     1       0.181  -0.173  11.285  1.00  0.00     0.164 C
BRANCH  15  16
HETATM   16  O1  UNL     1      -0.797  -0.611  12.167  1.00  0.00    -0.401 OA
ATOM     17  H1  UNL     1      -1.120   0.175  12.593  1.00  0.00     0.209 HD
ENDBRANCH  15  16
ENDBRANCH  14  15
ENDBRANCH  13  14
ENDBRANCH  12  13
ENDBRANCH  11  12
ENDBRANCH  10  11
ENDBRANCH   1  10
TORSDOF 12
ENDMDL