MODEL 3
REMARK VINA RESULT: -5.714411477      1.236      1.553
REMARK  12 active torsions:
REMARK  status: ('A' for Active; 'I' for Inactive)
REMARK    1  A    between atoms: C2_2  and  C3_3
REMARK    2  A    between atoms: C3_3  and  N1_4
REMARK    3  A    between atoms: N1_4  and  C4_7
REMARK    4  A    between atoms: C4_7  and  C5_8
REMARK    5  A    between atoms: C4_7  and  C10_13
REMARK    6  A    between atoms: C5_8  and  C6_9
REMARK    7  A    between atoms: C6_9  and  C7_10
REMARK    8  A    between atoms: C7_10  and  C8_11
REMARK    9  A    between atoms: C10_13  and  C11_14
REMARK   10  A    between atoms: C11_14  and  C12_15
REMARK   11  A    between atoms: C12_15  and  C13_16
REMARK   12  A    between atoms: C13_16  and  C14_17
ROOT
HETATM    1  C4  UNL     1       2.996   0.022   7.327  1.00  0.00     0.186 C
ENDROOT
BRANCH   1   2
HETATM    2  N1  UNL     1       2.071  -1.026   6.952  1.00  0.00    -0.068 N
ATOM      3  H12 UNL     1       2.405  -1.564   6.152  1.00  0.00     0.277 HD
ATOM      4  H11 UNL     1       1.218  -0.654   6.534  1.00  0.00     0.277 HD
BRANCH   2   5
HETATM    5  C3  UNL     1       1.797  -1.860   8.084  1.00  0.00     0.259 C
BRANCH   5   6
HETATM    6  C2  UNL     1       3.137  -2.170   8.710  1.00  0.00    -0.010 C
HETATM    7  C1  UNL     1       3.293  -2.225  10.013  1.00  0.00     0.008 C
ENDBRANCH   5   6
ENDBRANCH   2   5
ENDBRANCH   1   2
BRANCH   1   8
HETATM    8  C5  UNL     1       2.232   1.260   7.816  1.00  0.00     0.033 C
BRANCH   8   9
HETATM    9  C6  UNL     1       2.464   1.504   9.297  1.00  0.00     0.002 C
BRANCH   9  10
HETATM   10  C7  UNL     1       1.162   1.303  10.067  1.00  0.00    -0.000 C
BRANCH  10  11
HETATM   11  C8  UNL     1       1.334   0.522  11.329  1.00  0.00    -0.005 C
HETATM   12  C9  UNL     1       0.257  -0.553  11.380  1.00  0.00     0.005 C
ENDBRANCH  10  11
ENDBRANCH   9  10
ENDBRANCH   8   9
ENDBRANCH   1   8
BRANCH   1  13
HETATM   13  C10 UNL     1       3.797   0.432   6.144  1.00  0.00     0.033 C
BRANCH  13  14
HETATM   14  C11 UNL     1       4.732  -0.670   5.624  1.00  0.00     0.002 C
BRANCH  14  15
HETATM   15  C12 UNL     1       4.610  -0.752   4.155  1.00  0.00     0.000 C
BRANCH  15  16
HETATM   16  C13 UNL     1       5.560   0.052   3.381  1.00  0.00     0.004 C
BRANCH  16  17
HETATM   17  C14 UNL     1       7.005  -0.070   3.451  1.00  0.00    -0.014 A
HETATM   18  C15 UNL     1       7.803  -0.574   2.272  1.00  0.00     0.005 A
HETATM   19  C16 UNL     1       7.959   0.812   2.733  1.00  0.00     0.005 A
ENDBRANCH  16  17
ENDBRANCH  15  16
ENDBRANCH  14  15
ENDBRANCH  13  14
ENDBRANCH   1  13
TORSDOF 12
ENDMDL