MODEL 1
REMARK VINA RESULT: -6.300806748      0.000      0.000
REMARK  12 active torsions:
REMARK  status: ('A' for Active; 'I' for Inactive)
REMARK    1  A    between atoms: C2_2  and  C3_3
REMARK    2  A    between atoms: C3_3  and  C4_4
REMARK    3  A    between atoms: C4_4  and  C5_5
REMARK    4  A    between atoms: C5_5  and  C6_6
REMARK    5  A    between atoms: C7_7  and  C8_8
REMARK    6  A    between atoms: C8_8  and  C9_9
REMARK    7  A    between atoms: C9_9  and  C10_10
REMARK    8  A    between atoms: C12_12  and  C13_13
REMARK    9  A    between atoms: C13_13  and  C14_14
REMARK   10  A    between atoms: C14_14  and  C15_15
REMARK   11  A    between atoms: C15_15  and  C16_16
REMARK   12  A    between atoms: C16_16  and  N1_17
ROOT
HETATM    1  C10 UNL     1       4.566   0.574   6.703  1.00  0.00    -0.010 A
HETATM    2  C11 UNL     1       5.765  -0.228   6.985  1.00  0.00     0.010 A
HETATM    3  C12 UNL     1       4.448  -0.705   7.452  1.00  0.00    -0.010 A
ENDROOT
BRANCH   1   4
HETATM    4  C9  UNL     1       3.951   0.835   5.394  1.00  0.00     0.009 C
BRANCH   4   5
HETATM    5  C8  UNL     1       4.788   1.139   4.211  1.00  0.00     0.027 C
BRANCH   5   6
HETATM    6  C7  UNL     1       5.290   0.019   3.419  1.00  0.00    -0.031 C
HETATM    7  C6  UNL     1       6.539  -0.238   3.182  1.00  0.00    -0.031 C
BRANCH   7   8
HETATM    8  C5  UNL     1       7.734   0.501   3.631  1.00  0.00     0.027 C
BRANCH   8   9
HETATM    9  C4  UNL     1       8.395   1.197   2.454  1.00  0.00     0.004 C
BRANCH   9  10
HETATM   10  C3  UNL     1       9.837   0.799   2.302  1.00  0.00    -0.000 C
BRANCH  10  11
HETATM   11  C2  UNL     1      10.022  -0.515   1.617  1.00  0.00    -0.005 C
HETATM   12  C1  UNL     1       9.127  -0.545   0.396  1.00  0.00     0.005 C
ENDBRANCH  10  11
ENDBRANCH   9  10
ENDBRANCH   8   9
ENDBRANCH   7   8
ENDBRANCH   5   6
ENDBRANCH   4   5
ENDBRANCH   1   4
BRANCH   3  13
HETATM   13  C13 UNL     1       4.104  -0.617   8.937  1.00  0.00     0.005 C
BRANCH  13  14
HETATM   14  C14 UNL     1       3.065  -1.597   9.368  1.00  0.00     0.002 C
BRANCH  14  15
HETATM   15  C15 UNL     1       1.908  -1.530   8.390  1.00  0.00     0.027 C
BRANCH  15  16
HETATM   16  C16 UNL     1       0.876  -0.512   8.781  1.00  0.00     0.229 C
BRANCH  16  17
HETATM   17  N1  UNL     1       0.847   0.486   7.702  1.00  0.00    -0.079 N
ATOM     18  H13 UNL     1       1.477   1.272   7.862  1.00  0.00     0.274 HD
ATOM     19  H12 UNL     1       1.272   0.157   6.835  1.00  0.00     0.274 HD
ATOM     20  H11 UNL     1      -0.129   0.765   7.593  1.00  0.00     0.274 HD
ENDBRANCH  16  17
ENDBRANCH  15  16
ENDBRANCH  14  15
ENDBRANCH  13  14
ENDBRANCH   3  13
TORSDOF 12
ENDMDL