MODEL 5
REMARK VINA RESULT: -6.357855966      1.083      1.477
REMARK  11 active torsions:
REMARK  status: ('A' for Active; 'I' for Inactive)
REMARK    1  A    between atoms: C2_2  and  C3_3
REMARK    2  A    between atoms: C3_3  and  N1_4
REMARK    3  A    between atoms: N1_4  and  C4_7
REMARK    4  A    between atoms: C4_7  and  C5_8
REMARK    5  A    between atoms: C5_8  and  C6_9
REMARK    6  A    between atoms: C6_9  and  C7_10
REMARK    7  A    between atoms: C7_10  and  C8_11
REMARK    8  A    between atoms: C8_11  and  C9_12
REMARK    9  A    between atoms: C9_12  and  C10_13
REMARK   10  A    between atoms: C10_13  and  C11_14
REMARK   11  A    between atoms: C11_14  and  C12_15
ROOT
HETATM    1  C7  UNL     1       5.611  -0.212   6.866  1.00  0.00     0.000 C
ENDROOT
BRANCH   1   2
HETATM    2  C6  UNL     1       4.215  -0.630   6.444  1.00  0.00     0.002 C
BRANCH   2   3
HETATM    3  C5  UNL     1       3.285   0.481   6.868  1.00  0.00     0.027 C
BRANCH   3   4
HETATM    4  C4  UNL     1       3.294   0.747   8.344  1.00  0.00     0.232 C
BRANCH   4   5
HETATM    5  N1  UNL     1       2.005   1.160   8.795  1.00  0.00    -0.072 N
ATOM      6  H12 UNL     1       1.850   2.152   8.615  1.00  0.00     0.277 HD
ATOM      7  H11 UNL     1       1.955   1.172   9.814  1.00  0.00     0.277 HD
BRANCH   5   8
HETATM    8  C3  UNL     1       0.942   0.349   8.225  1.00  0.00     0.259 C
BRANCH   8   9
HETATM    9  C2  UNL     1       0.702  -0.851   9.057  1.00  0.00    -0.010 C
HETATM   10  C1  UNL     1      -0.223  -0.910   9.998  1.00  0.00     0.008 C
ENDBRANCH   8   9
ENDBRANCH   5   8
ENDBRANCH   4   5
ENDBRANCH   3   4
ENDBRANCH   2   3
ENDBRANCH   1   2
BRANCH   1  11
HETATM   11  C8  UNL     1       6.641  -0.603   5.821  1.00  0.00     0.000 C
BRANCH  11  12
HETATM   12  C9  UNL     1       5.878  -1.100   4.613  1.00  0.00     0.000 C
BRANCH  12  13
HETATM   13  C10 UNL     1       6.334  -0.440   3.330  1.00  0.00     0.004 C
BRANCH  13  14
HETATM   14  C11 UNL     1       7.417   0.560   3.715  1.00  0.00     0.034 C
BRANCH  14  15
HETATM   15  C12 UNL     1       8.576   0.481   2.765  1.00  0.00    -0.084 C
HETATM   16  C13 UNL     1       9.651   1.224   2.704  1.00  0.00    -0.024 C
HETATM   17  C14 UNL     1      10.540   0.795   1.603  1.00  0.00     0.027 C
HETATM   18  C15 UNL     1      10.134  -0.615   1.334  1.00  0.00     0.008 C
HETATM   19  C16 UNL     1       8.645  -0.559   1.674  1.00  0.00     0.034 C
ENDBRANCH  14  15
ENDBRANCH  13  14
ENDBRANCH  12  13
ENDBRANCH  11  12
ENDBRANCH   1  11
TORSDOF 11
ENDMDL