MODEL 2
REMARK VINA RESULT: -6.233512437      0.911      1.102
REMARK  11 active torsions:
REMARK  status: ('A' for Active; 'I' for Inactive)
REMARK    1  A    between atoms: C2_2  and  C3_3
REMARK    2  A    between atoms: C3_3  and  C4_4
REMARK    3  A    between atoms: C4_4  and  C5_5
REMARK    4  A    between atoms: C6_6  and  C7_7
REMARK    5  A    between atoms: C7_7  and  C8_8
REMARK    6  A    between atoms: C9_9  and  C10_10
REMARK    7  A    between atoms: C10_10  and  C11_11
REMARK    8  A    between atoms: C11_11  and  C12_12
REMARK    9  A    between atoms: C12_12  and  C13_13
REMARK   10  A    between atoms: C13_13  and  C14_14
REMARK   11  A    between atoms: C14_14  and  O1_15
ROOT
HETATM    1  C8  UNL     1       4.683   0.557   6.848  1.00  0.00    -0.027 C
HETATM    2  C9  UNL     1       4.006   0.234   7.940  1.00  0.00    -0.030 C
ENDROOT
BRANCH   1   3
HETATM    3  C7  UNL     1       5.951  -0.121   6.462  1.00  0.00     0.053 C
BRANCH   3   4
HETATM    4  C6  UNL     1       5.696  -1.321   5.660  1.00  0.00    -0.027 C
HETATM    5  C5  UNL     1       5.623  -1.329   4.369  1.00  0.00    -0.030 C
BRANCH   5   6
HETATM    6  C4  UNL     1       5.763  -0.220   3.407  1.00  0.00     0.027 C
BRANCH   6   7
HETATM    7  C3  UNL     1       7.134  -0.375   2.771  1.00  0.00     0.003 C
BRANCH   7   8
HETATM    8  C2  UNL     1       8.041   0.792   3.086  1.00  0.00    -0.004 C
HETATM    9  C1  UNL     1       9.465   0.530   2.708  1.00  0.00     0.005 C
ENDBRANCH   7   8
ENDBRANCH   6   7
ENDBRANCH   5   6
ENDBRANCH   3   4
ENDBRANCH   1   3
BRANCH   2  10
HETATM   10  C10 UNL     1       2.744   0.897   8.339  1.00  0.00     0.027 C
BRANCH  10  11
HETATM   11  C11 UNL     1       1.548   0.239   7.626  1.00  0.00     0.004 C
BRANCH  11  12
HETATM   12  C12 UNL     1       1.458  -1.147   8.176  1.00  0.00     0.002 C
BRANCH  12  13
HETATM   13  C13 UNL     1       0.931  -1.296   9.555  1.00  0.00     0.026 C
BRANCH  13  14
HETATM   14  C14 UNL     1      -0.343  -0.606   9.873  1.00  0.00     0.167 C
BRANCH  14  15
HETATM   15  O1  UNL     1      -0.420   0.012  11.096  1.00  0.00    -0.396 OA
HETATM   16  C15 UNL     1       0.726   0.666  11.464  1.00  0.00     0.201 C
ENDBRANCH  14  15
ENDBRANCH  13  14
ENDBRANCH  12  13
ENDBRANCH  11  12
ENDBRANCH  10  11
ENDBRANCH   2  10
TORSDOF 11
ENDMDL