MODEL 3
REMARK VINA RESULT: -6.212193519      1.172      1.698
REMARK  11 active torsions:
REMARK  status: ('A' for Active; 'I' for Inactive)
REMARK    1  A    between atoms: C2_2  and  C3_3
REMARK    2  A    between atoms: C3_3  and  C4_4
REMARK    3  A    between atoms: C4_4  and  C5_5
REMARK    4  A    between atoms: C6_6  and  C7_7
REMARK    5  A    between atoms: C7_7  and  C8_8
REMARK    6  A    between atoms: C8_8  and  C9_9
REMARK    7  A    between atoms: C9_9  and  C10_10
REMARK    8  A    between atoms: C10_10  and  C11_11
REMARK    9  A    between atoms: C10_10  and  C14_14
REMARK   10  A    between atoms: C11_11  and  C12_12
REMARK   11  A    between atoms: C14_14  and  C15_15
ROOT
HETATM    1  C8  UNL     1       3.807   1.143   8.194  1.00  0.00     0.008 C
ENDROOT
BRANCH   1   2
HETATM    2  C7  UNL     1       4.075   0.610   6.755  1.00  0.00     0.027 C
BRANCH   2   3
HETATM    3  C6  UNL     1       5.175  -0.349   6.721  1.00  0.00    -0.031 C
HETATM    4  C5  UNL     1       5.478  -1.037   5.654  1.00  0.00    -0.031 C
BRANCH   4   5
HETATM    5  C4  UNL     1       4.763  -0.930   4.387  1.00  0.00     0.027 C
BRANCH   5   6
HETATM    6  C3  UNL     1       5.426   0.040   3.417  1.00  0.00     0.003 C
BRANCH   6   7
HETATM    7  C2  UNL     1       6.811  -0.455   3.034  1.00  0.00    -0.004 C
HETATM    8  C1  UNL     1       7.847   0.642   3.270  1.00  0.00     0.005 C
ENDBRANCH   6   7
ENDBRANCH   5   6
ENDBRANCH   4   5
ENDBRANCH   2   3
ENDBRANCH   1   2
BRANCH   1   9
HETATM    9  C9  UNL     1       2.373   1.283   8.434  1.00  0.00     0.034 C
BRANCH   9  10
HETATM   10  C10 UNL     1       1.698   0.411   9.375  1.00  0.00    -0.079 C
BRANCH  10  11
HETATM   11  C11 UNL     1       0.823  -0.641   8.603  1.00  0.00     0.034 C
BRANCH  11  12
HETATM   12  C12 UNL     1       1.636  -1.748   8.044  1.00  0.00    -0.000 C
HETATM   13  C13 UNL     1       2.702  -2.104   9.093  1.00  0.00     0.005 C
ENDBRANCH  11  12
ENDBRANCH  10  11
BRANCH  10  14
HETATM   14  C14 UNL     1       1.053   0.732  10.636  1.00  0.00     0.017 C
BRANCH  14  15
HETATM   15  C15 UNL     1       0.647  -0.210  11.680  1.00  0.00     0.100 C
HETATM   16  N1  UNL     1      -0.686  -0.514  11.974  1.00  0.00    -0.115 NA
ENDBRANCH  14  15
ENDBRANCH  10  14
ENDBRANCH   9  10
ENDBRANCH   1   9
TORSDOF 11
ENDMDL