MODEL 2
REMARK VINA RESULT: -6.581190427      1.186      1.455
REMARK  11 active torsions:
REMARK  status: ('A' for Active; 'I' for Inactive)
REMARK    1  A    between atoms: C2_2  and  C3_3
REMARK    2  A    between atoms: C3_3  and  C4_4
REMARK    3  A    between atoms: C4_4  and  N1_5
REMARK    4  A    between atoms: N1_5  and  C5_8
REMARK    5  A    between atoms: C5_8  and  C6_9
REMARK    6  A    between atoms: C6_9  and  C7_10
REMARK    7  A    between atoms: C7_10  and  C8_11
REMARK    8  A    between atoms: C8_11  and  C9_12
REMARK    9  A    between atoms: C9_12  and  C10_13
REMARK   10  A    between atoms: C10_13  and  C11_14
REMARK   11  A    between atoms: C11_14  and  C12_15
ROOT
HETATM    1  C7  UNL     1       5.752  -1.306   5.491  1.00  0.00     0.002 C
ENDROOT
BRANCH   1   2
HETATM    2  C6  UNL     1       5.811  -0.154   6.453  1.00  0.00     0.027 C
BRANCH   2   3
HETATM    3  C5  UNL     1       4.494   0.176   7.062  1.00  0.00     0.232 C
BRANCH   3   4
HETATM    4  N1  UNL     1       3.847  -0.938   7.690  1.00  0.00    -0.075 N
ATOM      5  H12 UNL     1       4.274  -1.824   7.419  1.00  0.00     0.277 HD
ATOM      6  H11 UNL     1       2.914  -1.096   7.310  1.00  0.00     0.277 HD
BRANCH   4   7
HETATM    7  C4  UNL     1       3.823  -0.772   9.116  1.00  0.00     0.236 C
BRANCH   7   8
HETATM    8  C3  UNL     1       2.786  -1.683   9.752  1.00  0.00     0.054 C
BRANCH   8   9
HETATM    9  C2  UNL     1       1.535  -1.598   8.985  1.00  0.00    -0.035 C
HETATM   10  C1  UNL     1       0.463  -1.005   9.460  1.00  0.00     0.007 C
ENDBRANCH   8   9
ENDBRANCH   7   8
ENDBRANCH   4   7
ENDBRANCH   3   4
ENDBRANCH   2   3
ENDBRANCH   1   2
BRANCH   1  11
HETATM   11  C8  UNL     1       4.920  -0.966   4.287  1.00  0.00     0.000 C
BRANCH  11  12
HETATM   12  C9  UNL     1       5.575   0.137   3.455  1.00  0.00     0.000 C
BRANCH  12  13
HETATM   13  C10 UNL     1       6.893  -0.420   2.952  1.00  0.00     0.000 C
BRANCH  13  14
HETATM   14  C11 UNL     1       7.961   0.615   3.030  1.00  0.00     0.004 C
BRANCH  14  15
HETATM   15  C12 UNL     1       9.290   0.063   2.603  1.00  0.00    -0.014 C
HETATM   16  C13 UNL     1       9.150  -0.719   1.338  1.00  0.00     0.004 C
HETATM   17  C14 UNL     1       9.375   0.241   0.217  1.00  0.00     0.000 C
HETATM   18  C15 UNL     1       9.761   1.544   0.818  1.00  0.00     0.000 C
HETATM   19  C16 UNL     1      10.152   1.271   2.236  1.00  0.00     0.004 C
ENDBRANCH  14  15
ENDBRANCH  13  14
ENDBRANCH  12  13
ENDBRANCH  11  12
ENDBRANCH   1  11
TORSDOF 11
ENDMDL