MODEL 5
REMARK VINA RESULT: -3.927968270      1.839      3.954
REMARK  9 active torsions:
REMARK  status: ('A' for Active; 'I' for Inactive)
REMARK    1  A    between atoms: C2_2  and  C3_3
REMARK    2  A    between atoms: C3_3  and  C4_4
REMARK    3  A    between atoms: C6_6  and  C7_7
REMARK    4  A    between atoms: C7_7  and  O1_8
REMARK    5  A    between atoms: C7_7  and  C8_10
REMARK    6  A    between atoms: C11_13  and  O2_14
REMARK    7  A    between atoms: O2_14  and  C12_15
REMARK    8  A    between atoms: C14_17  and  C15_18
REMARK    9  A    between atoms: C16_19  and  C17_20
ROOT
HETATM    1  C4  UNL     1      13.240   1.431  -1.736  1.00  0.00    -0.041 A
HETATM    2  C5  UNL     1      12.264   1.294  -0.633  1.00  0.00     0.022 A
HETATM    3  C6  UNL     1      11.125   0.494  -0.881  1.00  0.00     0.000 A
HETATM    4  C10 UNL     1      11.006  -0.105  -2.094  1.00  0.00     0.052 A
HETATM    5  C11 UNL     1      11.948   0.027  -3.131  1.00  0.00     0.080 A
HETATM    6  C14 UNL     1      13.027   0.818  -2.877  1.00  0.00     0.004 A
ENDROOT
BRANCH   3   7
HETATM    7  C7  UNL     1      10.162   0.486   0.080  1.00  0.00     0.075 C
BRANCH   7   8
HETATM    8  O1  UNL     1       9.795   1.699   0.697  1.00  0.00    -0.360 OA
ATOM      9  H1  UNL     1       9.681   1.724   1.639  1.00  0.00     0.217 HD
ENDBRANCH   7   8
BRANCH   7  10
HETATM   10  C8  UNL     1       9.267  -0.508   0.752  1.00  0.00     0.027 C
HETATM   11  C9  UNL     1       8.529  -0.443   1.759  1.00  0.00     0.014 C
ENDBRANCH   7  10
ENDBRANCH   3   7
BRANCH   1  12
HETATM   12  C3  UNL     1      14.484   2.096  -1.317  1.00  0.00     0.066 C
BRANCH  12  13
HETATM   13  C2  UNL     1      15.554   1.190  -0.880  1.00  0.00    -0.032 C
HETATM   14  C1  UNL     1      16.749   1.312  -0.474  1.00  0.00     0.007 C
ENDBRANCH  12  13
ENDBRANCH   1  12
BRANCH   5  15
HETATM   15  O2  UNL     1      11.758  -0.642  -4.361  1.00  0.00    -0.351 OA
BRANCH  15  16
HETATM   16  C12 UNL     1      11.825  -2.085  -4.238  1.00  0.00     0.171 C
HETATM   17  C13 UNL     1      11.423  -2.679  -5.612  1.00  0.00     0.034 C
ENDBRANCH  15  16
ENDBRANCH   5  15
BRANCH   6  18
HETATM   18  C15 UNL     1      13.925   1.038  -4.082  1.00  0.00     0.011 C
HETATM   19  C16 UNL     1      14.998   0.592  -4.562  1.00  0.00    -0.026 C
BRANCH  19  20
HETATM   20  C17 UNL     1      15.468   1.247  -5.873  1.00  0.00     0.022 C
HETATM   21  C18 UNL     1      16.745   0.612  -6.354  1.00  0.00     0.009 C
ENDBRANCH  19  20
ENDBRANCH   6  18
TORSDOF 9
ENDMDL