MODEL 2
REMARK VINA RESULT: -6.409238792      1.342      1.656
REMARK  9 active torsions:
REMARK  status: ('A' for Active; 'I' for Inactive)
REMARK    1  A    between atoms: O1_2  and  C2_3
REMARK    2  A    between atoms: C9_10  and  C10_11
REMARK    3  A    between atoms: C10_11  and  C11_12
REMARK    4  A    between atoms: C11_12  and  C12_13
REMARK    5  A    between atoms: C12_13  and  C13_14
REMARK    6  A    between atoms: C13_14  and  C14_15
REMARK    7  A    between atoms: C14_15  and  C15_16
REMARK    8  A    between atoms: C15_16  and  C16_17
REMARK    9  A    between atoms: C16_17  and  O2_20
ROOT
HETATM    1  C10 UNL     1       5.687   1.346   5.955  1.00  0.00     0.041 C
ENDROOT
BRANCH   1   2
HETATM    2  C9  UNL     1       4.692   0.536   6.712  1.00  0.00    -0.024 A
HETATM    3  C2  UNL     1       4.692  -0.835   6.719  1.00  0.00     0.075 A
HETATM    4  C3  UNL     1       3.737  -1.500   7.449  1.00  0.00     0.044 A
HETATM    5  C4  UNL     1       2.760  -0.852   8.188  1.00  0.00    -0.053 A
HETATM    6  C5  UNL     1       1.735  -1.585   8.971  1.00  0.00     0.049 C
HETATM    7  C6  UNL     1       2.785   0.521   8.162  1.00  0.00    -0.055 A
HETATM    8  C7  UNL     1       1.745   1.256   8.948  1.00  0.00     0.049 C
HETATM    9  C8  UNL     1       3.732   1.199   7.438  1.00  0.00     0.017 A
BRANCH   3  10
HETATM   10  O1  UNL     1       5.643  -1.535   6.001  1.00  0.00    -0.355 OA
HETATM   11  C1  UNL     1       5.347  -2.013   4.694  1.00  0.00     0.210 C
ENDBRANCH   3  10
ENDBRANCH   1   2
BRANCH   1  12
HETATM   12  C11 UNL     1       5.159   1.710   4.600  1.00  0.00     0.005 C
BRANCH  12  13
HETATM   13  C12 UNL     1       5.942   1.099   3.478  1.00  0.00     0.000 C
BRANCH  13  14
HETATM   14  C13 UNL     1       7.354   0.693   3.872  1.00  0.00     0.000 C
BRANCH  14  15
HETATM   15  C14 UNL     1       8.060  -0.108   2.843  1.00  0.00     0.003 C
BRANCH  15  16
HETATM   16  C15 UNL     1       9.466   0.197   2.532  1.00  0.00     0.037 C
BRANCH  16  17
HETATM   17  C16 UNL     1       9.835   0.700   1.197  1.00  0.00     0.051 C
HETATM   18  C17 UNL     1       9.321   2.162   1.133  1.00  0.00     0.045 C
HETATM   19  C18 UNL     1       9.268   0.041  -0.010  1.00  0.00     0.045 C
BRANCH  17  20
HETATM   20  O2  UNL     1      11.222   0.796   1.011  1.00  0.00    -0.391 OA
ATOM     21  H2  UNL     1      11.713   0.196   1.560  1.00  0.00     0.210 HD
ENDBRANCH  17  20
ENDBRANCH  16  17
ENDBRANCH  15  16
ENDBRANCH  14  15
ENDBRANCH  13  14
ENDBRANCH  12  13
ENDBRANCH   1  12
TORSDOF 9
ENDMDL