MODEL 1
REMARK VINA RESULT: -5.481180568      0.000      0.000
REMARK  10 active torsions:
REMARK  status: ('A' for Active; 'I' for Inactive)
REMARK    1  A    between atoms: C2_2  and  C3_3
REMARK    2  A    between atoms: C3_3  and  C4_4
REMARK    3  A    between atoms: C6_6  and  C7_7
REMARK    4  A    between atoms: C10_10  and  C11_11
REMARK    5  A    between atoms: C11_11  and  O1_12
REMARK    6  A    between atoms: O1_12  and  C12_13
REMARK    7  A    between atoms: C12_13  and  C14_15
REMARK    8  A    between atoms: C14_15  and  O2_16
REMARK    9  A    between atoms: C14_15  and  C15_18
REMARK   10  A    between atoms: C15_18  and  C16_19
ROOT
HETATM    1  C4  UNL     1       1.298   0.004   8.258  1.00  0.00    -0.057 A
HETATM    2  C5  UNL     1       1.959  -1.141   8.686  1.00  0.00     0.014 A
HETATM    3  C6  UNL     1       3.183  -1.527   8.198  1.00  0.00    -0.057 A
HETATM    4  C9  UNL     1       3.758  -0.719   7.236  1.00  0.00     0.016 A
HETATM    5  C10 UNL     1       3.163   0.431   6.763  1.00  0.00    -0.034 A
HETATM    6  C18 UNL     1       1.921   0.772   7.296  1.00  0.00     0.016 A
ENDROOT
BRANCH   5   7
HETATM    7  C11 UNL     1       3.822   1.269   5.726  1.00  0.00     0.207 C
BRANCH   7   8
HETATM    8  O1  UNL     1       4.566   0.451   4.908  1.00  0.00    -0.379 OA
BRANCH   8   9
HETATM    9  C12 UNL     1       5.851   0.886   4.690  1.00  0.00     0.146 C
HETATM   10  C13 UNL     1       6.501   1.462   5.928  1.00  0.00     0.042 C
BRANCH   9  11
HETATM   11  C14 UNL     1       6.685  -0.339   4.297  1.00  0.00     0.146 C
BRANCH  11  12
HETATM   12  O2  UNL     1       5.835  -1.424   4.296  1.00  0.00    -0.393 OA
ATOM     13  H2  UNL     1       6.274  -2.124   4.764  1.00  0.00     0.210 HD
ENDBRANCH  11  12
BRANCH  11  14
HETATM   14  C15 UNL     1       7.172  -0.092   2.882  1.00  0.00     0.034 C
BRANCH  14  15
HETATM   15  C16 UNL     1       8.603   0.393   2.952  1.00  0.00    -0.002 C
HETATM   16  C17 UNL     1       8.869   1.509   1.977  1.00  0.00     0.005 C
ENDBRANCH  14  15
ENDBRANCH  11  14
ENDBRANCH   9  11
ENDBRANCH   8   9
ENDBRANCH   7   8
ENDBRANCH   5   7
BRANCH   3  17
HETATM   17  C7  UNL     1       3.859  -2.742   8.670  1.00  0.00     0.034 C
HETATM   18  C8  UNL     1       3.793  -2.944  10.144  1.00  0.00     0.010 C
ENDBRANCH   3  17
BRANCH   1  19
HETATM   19  C3  UNL     1      -0.018   0.348   8.834  1.00  0.00     0.038 C
BRANCH  19  20
HETATM   20  C2  UNL     1      -0.195  -0.257  10.219  1.00  0.00     0.000 C
HETATM   21  C1  UNL     1       0.567   0.553  11.259  1.00  0.00     0.005 C
ENDBRANCH  19  20
ENDBRANCH   1  19
TORSDOF 10
ENDMDL