MODEL 2
REMARK VINA RESULT: -7.402487622      1.334      2.169
REMARK  9 active torsions:
REMARK  status: ('A' for Active; 'I' for Inactive)
REMARK    1  A    between atoms: C2_2  and  C3_3
REMARK    2  A    between atoms: C3_3  and  C4_4
REMARK    3  A    between atoms: C4_4  and  C5_5
REMARK    4  A    between atoms: C4_4  and  C8_8
REMARK    5  A    between atoms: C5_5  and  C6_6
REMARK    6  A    between atoms: C8_8  and  C9_10
REMARK    7  A    between atoms: C9_10  and  C10_11
REMARK    8  A    between atoms: C10_11  and  C11_12
REMARK    9  A    between atoms: C14_15  and  C15_16
ROOT
HETATM    1  C9  UNL     1       4.235   1.048   6.769  1.00  0.00     0.083 C
ENDROOT
BRANCH   1   2
HETATM    2  C8  UNL     1       4.958   1.136   5.495  1.00  0.00     0.132 C
HETATM    3  O1  UNL     1       4.325   1.519   4.472  1.00  0.00    -0.298 OA
BRANCH   2   4
HETATM    4  C4  UNL     1       6.379   0.833   5.220  1.00  0.00     0.062 C
BRANCH   4   5
HETATM    5  C3  UNL     1       6.632   0.865   3.705  1.00  0.00     0.038 C
BRANCH   5   6
HETATM    6  C2  UNL     1       8.027   0.590   3.334  1.00  0.00    -0.036 C
HETATM    7  C1  UNL     1       8.279  -0.136   2.249  1.00  0.00     0.007 C
ENDBRANCH   5   6
ENDBRANCH   4   5
BRANCH   4   8
HETATM    8  C5  UNL     1       6.853  -0.516   5.689  1.00  0.00     0.038 C
BRANCH   8   9
HETATM    9  C6  UNL     1       5.849  -1.584   5.456  1.00  0.00    -0.036 C
HETATM   10  C7  UNL     1       5.770  -2.206   4.298  1.00  0.00     0.007 C
ENDBRANCH   8   9
ENDBRANCH   4   8
ENDBRANCH   2   4
ENDBRANCH   1   2
BRANCH   1  11
HETATM   11  C10 UNL     1       3.146   0.051   6.806  1.00  0.00     0.046 C
BRANCH  11  12
HETATM   12  C11 UNL     1       2.467  -0.018   8.132  1.00  0.00    -0.052 A
HETATM   13  C12 UNL     1       1.673   1.014   8.563  1.00  0.00     0.008 A
HETATM   14  C13 UNL     1       1.025   1.019   9.779  1.00  0.00     0.015 A
HETATM   15  C14 UNL     1       1.195  -0.091  10.601  1.00  0.00     0.002 A
HETATM   16  C16 UNL     1       1.994  -1.125  10.159  1.00  0.00     0.021 A
HETATM   17  C17 UNL     1       2.643  -1.129   8.941  1.00  0.00    -0.055 A
HETATM   18  C18 UNL     1       3.493  -2.251   8.488  1.00  0.00     0.049 C
BRANCH  15  19
HETATM   19  C15 UNL     1       0.543  -0.152  11.896  1.00  0.00     0.269 C
HETATM   20  O2  UNL     1      -0.651  -0.513  12.021  1.00  0.00    -0.301 OA
ENDBRANCH  15  19
ENDBRANCH  11  12
ENDBRANCH   1  11
TORSDOF 9
ENDMDL