MODEL 1
REMARK VINA RESULT: -7.130796502      0.000      0.000
REMARK  9 active torsions:
REMARK  status: ('A' for Active; 'I' for Inactive)
REMARK    1  A    between atoms: C2_2  and  C3_3
REMARK    2  A    between atoms: C3_3  and  C6_6
REMARK    3  A    between atoms: C6_6  and  C7_7
REMARK    4  A    between atoms: C7_7  and  O1_8
REMARK    5  A    between atoms: C7_7  and  C8_10
REMARK    6  A    between atoms: C8_10  and  C9_11
REMARK    7  A    between atoms: C9_11  and  C10_12
REMARK    8  A    between atoms: C10_12  and  O2_13
REMARK    9  A    between atoms: O2_13  and  C11_14
ROOT
HETATM    1  C9  UNL     1       5.373  -0.534   5.768  1.00  0.00     0.029 C
ENDROOT
BRANCH   1   2
HETATM    2  C8  UNL     1       5.714  -0.904   4.344  1.00  0.00     0.034 C
BRANCH   2   3
HETATM    3  C7  UNL     1       6.161   0.289   3.531  1.00  0.00     0.122 C
BRANCH   3   4
HETATM    4  C6  UNL     1       7.651   0.405   3.694  1.00  0.00     0.070 C
BRANCH   4   5
HETATM    5  C3  UNL     1       8.437   0.401   2.467  1.00  0.00    -0.061 C
HETATM    6  C4  UNL     1       8.594  -0.656   1.709  1.00  0.00    -0.024 C
HETATM    7  C5  UNL     1       9.413  -0.539   0.457  1.00  0.00     0.036 C
BRANCH   5   8
HETATM    8  C2  UNL     1       9.068   1.659   2.067  1.00  0.00    -0.004 C
HETATM    9  C1  UNL     1       8.418   2.546   1.345  1.00  0.00     0.012 C
ENDBRANCH   5   8
ENDBRANCH   4   5
ENDBRANCH   3   4
BRANCH   3  10
HETATM   10  O1  UNL     1       5.576   1.468   3.974  1.00  0.00    -0.395 OA
ATOM     11  H1  UNL     1       4.691   1.511   3.632  1.00  0.00     0.210 HD
ENDBRANCH   3  10
ENDBRANCH   2   3
ENDBRANCH   1   2
BRANCH   1  12
HETATM   12  C10 UNL     1       3.920  -0.612   6.074  1.00  0.00     0.175 C
BRANCH  12  13
HETATM   13  O2  UNL     1       3.700  -1.149   7.321  1.00  0.00    -0.351 OA
BRANCH  13  14
HETATM   14  C11 UNL     1       2.982  -0.805   8.412  1.00  0.00     0.075 A
HETATM   15  C12 UNL     1       1.618  -0.861   8.547  1.00  0.00     0.044 A
HETATM   16  C13 UNL     1       0.937  -0.488   9.705  1.00  0.00    -0.059 A
HETATM   17  C14 UNL     1      -0.547  -0.569   9.800  1.00  0.00     0.048 C
HETATM   18  C15 UNL     1       1.702  -0.040  10.759  1.00  0.00     0.007 A
HETATM   19  C16 UNL     1       3.069   0.023  10.639  1.00  0.00     0.010 A
HETATM   20  C17 UNL     1       3.739  -0.343   9.503  1.00  0.00    -0.029 A
HETATM   21  C18 UNL     1       5.232  -0.255   9.426  1.00  0.00     0.051 C
ENDBRANCH  13  14
ENDBRANCH  12  13
ENDBRANCH   1  12
TORSDOF 9
ENDMDL