MODEL 2
REMARK VINA RESULT: -5.753869973      0.577      1.035
REMARK  10 active torsions:
REMARK  status: ('A' for Active; 'I' for Inactive)
REMARK    1  A    between atoms: C2_2  and  C3_3
REMARK    2  A    between atoms: C5_5  and  C6_6
REMARK    3  A    between atoms: C6_6  and  C7_7
REMARK    4  A    between atoms: C7_7  and  C8_8
REMARK    5  A    between atoms: C14_14  and  O1_15
REMARK    6  A    between atoms: O1_15  and  C15_16
REMARK    7  A    between atoms: C15_16  and  C16_17
REMARK    8  A    between atoms: C16_17  and  C17_18
REMARK    9  A    between atoms: C17_18  and  C18_19
REMARK   10  A    between atoms: C18_19  and  O2_20
ROOT
HETATM    1  C8  UNL     1       4.774   0.320   6.137  1.00  0.00    -0.024 A
HETATM    2  C9  UNL     1       6.135   0.308   6.328  1.00  0.00     0.010 A
HETATM    3  C10 UNL     1       6.727  -0.017   7.516  1.00  0.00     0.001 A
HETATM    4  C11 UNL     1       5.930  -0.348   8.566  1.00  0.00     0.009 A
HETATM    5  C12 UNL     1       4.536  -0.342   8.400  1.00  0.00    -0.028 A
HETATM    6  C13 UNL     1       3.780  -0.715   9.611  1.00  0.00     0.051 C
HETATM    7  C14 UNL     1       3.922  -0.016   7.213  1.00  0.00     0.081 A
ENDROOT
BRANCH   1   8
HETATM    8  C7  UNL     1       4.313   0.628   4.774  1.00  0.00     0.045 C
BRANCH   8   9
HETATM    9  C6  UNL     1       5.379   1.343   3.961  1.00  0.00     0.032 C
BRANCH   9  10
HETATM   10  C5  UNL     1       6.130   0.330   3.176  1.00  0.00    -0.024 C
HETATM   11  C3  UNL     1       7.413   0.363   2.902  1.00  0.00    -0.088 C
HETATM   12  C4  UNL     1       8.000  -0.768   2.080  1.00  0.00     0.043 C
BRANCH  11  13
HETATM   13  C2  UNL     1       8.378   1.403   3.312  1.00  0.00     0.029 C
HETATM   14  C1  UNL     1       9.725   1.277   2.613  1.00  0.00     0.010 C
ENDBRANCH  11  13
ENDBRANCH   9  10
ENDBRANCH   8   9
ENDBRANCH   1   8
BRANCH   7  15
HETATM   15  O1  UNL     1       2.629   0.015   6.999  1.00  0.00    -0.350 OA
BRANCH  15  16
HETATM   16  C15 UNL     1       1.378   0.179   7.360  1.00  0.00     0.176 C
BRANCH  16  17
HETATM   17  C16 UNL     1       0.853   0.683   8.640  1.00  0.00     0.029 C
BRANCH  17  18
HETATM   18  C17 UNL     1       0.200  -0.298   9.560  1.00  0.00     0.028 C
BRANCH  18  19
HETATM   19  C18 UNL     1       0.392   0.086  11.025  1.00  0.00     0.164 C
BRANCH  19  20
HETATM   20  O2  UNL     1      -0.561  -0.488  11.847  1.00  0.00    -0.401 OA
ATOM     21  H2  UNL     1      -0.529  -1.438  11.826  1.00  0.00     0.209 HD
ENDBRANCH  19  20
ENDBRANCH  18  19
ENDBRANCH  17  18
ENDBRANCH  16  17
ENDBRANCH  15  16
ENDBRANCH   7  15
TORSDOF 10
ENDMDL