MODEL 5
REMARK VINA RESULT: -4.131514172      1.811      6.672
REMARK  10 active torsions:
REMARK  status: ('A' for Active; 'I' for Inactive)
REMARK    1  A    between atoms: C2_2  and  C3_3
REMARK    2  A    between atoms: C3_3  and  C4_4
REMARK    3  A    between atoms: C4_4  and  C5_5
REMARK    4  A    between atoms: C5_5  and  O1_6
REMARK    5  A    between atoms: O1_6  and  C6_7
REMARK    6  A    between atoms: C9_10  and  C10_11
REMARK    7  A    between atoms: C10_11  and  O2_13
REMARK    8  A    between atoms: C13_16  and  C14_17
REMARK    9  A    between atoms: C14_17  and  C16_19
REMARK   10  A    between atoms: C16_19  and  C17_20
ROOT
HETATM    1  C6  UNL     1       4.311  -0.568   7.583  1.00  0.00     0.075 A
HETATM    2  C7  UNL     1       5.668  -0.314   7.529  1.00  0.00     0.038 A
HETATM    3  C8  UNL     1       6.185   0.138   6.324  1.00  0.00     0.012 A
HETATM    4  C9  UNL     1       5.365   0.323   5.226  1.00  0.00    -0.029 A
HETATM    5  C12 UNL     1       4.017   0.045   5.356  1.00  0.00     0.020 A
HETATM    6  C13 UNL     1       3.449  -0.409   6.535  1.00  0.00    -0.020 A
ENDROOT
BRANCH   1   7
HETATM    7  O1  UNL     1       3.786  -0.993   8.810  1.00  0.00    -0.351 OA
BRANCH   7   8
HETATM    8  C5  UNL     1       4.179  -0.323  10.009  1.00  0.00     0.175 C
BRANCH   8   9
HETATM    9  C4  UNL     1       2.909  -0.024  10.806  1.00  0.00     0.027 C
BRANCH   9  10
HETATM   10  C3  UNL     1       2.033  -1.264  10.754  1.00  0.00     0.002 C
BRANCH  10  11
HETATM   11  C2  UNL     1       0.585  -0.998  11.075  1.00  0.00    -0.004 C
HETATM   12  C1  UNL     1       0.234   0.442  11.240  1.00  0.00     0.005 C
ENDBRANCH  10  11
ENDBRANCH   9  10
ENDBRANCH   8   9
ENDBRANCH   7   8
ENDBRANCH   1   7
BRANCH   6  13
HETATM   13  C14 UNL     1       2.064  -0.897   6.633  1.00  0.00     0.017 C
HETATM   14  C15 UNL     1       2.142  -2.258   7.412  1.00  0.00     0.015 C
BRANCH  13  15
HETATM   15  C16 UNL     1       1.271   0.002   7.608  1.00  0.00     0.009 C
BRANCH  15  16
HETATM   16  C17 UNL     1       1.407   1.454   7.294  1.00  0.00    -0.004 C
HETATM   17  C18 UNL     1       1.983   2.178   8.486  1.00  0.00     0.005 C
ENDBRANCH  15  16
ENDBRANCH  13  15
ENDBRANCH   6  13
BRANCH   4  18
HETATM   18  C10 UNL     1       6.023   0.790   4.010  1.00  0.00     0.147 C
HETATM   19  C11 UNL     1       7.536   0.517   4.128  1.00  0.00     0.044 C
BRANCH  18  20
HETATM   20  O2  UNL     1       5.596   0.099   2.875  1.00  0.00    -0.391 OA
ATOM     21  H2  UNL     1       4.945   0.583   2.381  1.00  0.00     0.210 HD
ENDBRANCH  18  20
ENDBRANCH   4  18
TORSDOF 10
ENDMDL