MODEL 2
REMARK VINA RESULT: -5.046894895     14.347     15.783
REMARK  5 active torsions:
REMARK  status: ('A' for Active; 'I' for Inactive)
REMARK    1  A    between atoms: C2_2  and  C5_5
REMARK    2  A    between atoms: C6_10  and  O1_11
REMARK    3  A    between atoms: C7_13  and  C8_14
REMARK    4  A    between atoms: C8_14  and  C9_15
REMARK    5  A    between atoms: C9_15  and  C10_16
ROOT
HETATM    1  C10 UNL     1       5.568  -0.107   6.746  1.00  0.00     0.123 A
HETATM    2  N3  UNL     1       6.936  -0.169   6.868  1.00  0.00    -0.284 N
ATOM      3  H3  UNL     1       7.448  -0.235   7.748  1.00  0.00     0.188 HD
HETATM    4  N4  UNL     1       7.479  -0.130   5.680  1.00  0.00    -0.285 N
ATOM      5  H4  UNL     1       8.481  -0.161   5.493  1.00  0.00     0.188 HD
HETATM    6  C11 UNL     1       6.525  -0.043   4.745  1.00  0.00     0.136 A
HETATM    7  N5  UNL     1       5.360  -0.026   5.399  1.00  0.00    -0.317 N
HETATM    8  C12 UNL     1       4.130   0.096   4.667  1.00  0.00     0.159 C
HETATM    9  C13 UNL     1       4.353   0.362   3.226  1.00  0.00     0.254 C
HETATM   10  N6  UNL     1       5.433  -0.326   2.623  1.00  0.00    -0.058 N
ATOM     11  H61 UNL     1       5.473  -0.152   1.619  1.00  0.00     0.278 HD
ATOM     12  H62 UNL     1       5.270  -1.332   2.603  1.00  0.00     0.278 HD
HETATM   13  C14 UNL     1       6.703  -0.002   3.272  1.00  0.00     0.184 C
HETATM   14  C15 UNL     1       7.680  -1.077   2.864  1.00  0.00     0.047 C
HETATM   15  C16 UNL     1       8.729  -0.477   1.922  1.00  0.00     0.003 C
HETATM   16  C17 UNL     1       9.465   0.571   2.722  1.00  0.00     0.000 C
HETATM   17  C18 UNL     1       8.529   1.701   3.003  1.00  0.00     0.003 C
HETATM   18  C19 UNL     1       7.086   1.377   2.794  1.00  0.00     0.047 C
ENDROOT
BRANCH   1  19
HETATM   19  C9  UNL     1       4.655  -0.128   7.875  1.00  0.00     0.051 C
BRANCH  19  20
HETATM   20  C8  UNL     1       3.784   0.745   8.242  1.00  0.00     0.022 C
BRANCH  20  21
HETATM   21  C7  UNL     1       2.336   0.607   8.175  1.00  0.00     0.041 A
HETATM   22  C5  UNL     1       1.551  -0.093   9.101  1.00  0.00     0.048 A
HETATM   23  N1  UNL     1       0.289   0.017   8.686  1.00  0.00    -0.301 N
HETATM   24  N2  UNL     1       0.230   0.718   7.595  1.00  0.00    -0.279 N
ATOM     25  H1  UNL     1      -0.517  -0.392   9.160  1.00  0.00     0.186 HD
HETATM   26  C6  UNL     1       1.490   1.115   7.226  1.00  0.00     0.167 A
ATOM     27  H2  UNL     1      -0.626   0.941   7.087  1.00  0.00     0.189 HD
BRANCH  22  28
HETATM   28  C2  UNL     1       2.067  -0.787  10.271  1.00  0.00    -0.006 C
HETATM   29  C1  UNL     1       0.881  -1.188  11.153  1.00  0.00     0.021 C
HETATM   30  C3  UNL     1       2.932   0.134  11.136  1.00  0.00     0.021 C
HETATM   31  C4  UNL     1       2.796  -2.073   9.945  1.00  0.00     0.021 C
ENDBRANCH  22  28
BRANCH  26  32
HETATM   32  O1  UNL     1       1.760   1.887   6.090  1.00  0.00    -0.344 OA
ATOM     33  H1  UNL     1       2.612   1.932   5.675  1.00  0.00     0.219 HD
ENDBRANCH  26  32
ENDBRANCH  20  21
ENDBRANCH  19  20
ENDBRANCH   1  19
TORSDOF 5
ENDMDL