MODEL 4
REMARK VINA RESULT: -5.963914425      0.841      1.950
REMARK  7 active torsions:
REMARK  status: ('A' for Active; 'I' for Inactive)
REMARK    1  A    between atoms: C2_2  and  C3_3
REMARK    2  A    between atoms: C3_3  and  C4_4
REMARK    3  A    between atoms: C4_4  and  C5_5
REMARK    4  A    between atoms: C6_7  and  C7_8
REMARK    5  A    between atoms: C6_7  and  O2_10
REMARK    6  A    between atoms: O2_10  and  C9_11
REMARK    7  A    between atoms: C9_11  and  C10_12
ROOT
HETATM    1  O2  UNL     1       4.252  -0.245   6.252  1.00  0.00    -0.350 OA
ENDROOT
BRANCH   1   2
HETATM    2  C6  UNL     1       5.352  -0.448   5.496  1.00  0.00     0.055 C
HETATM    3  C4  UNL     1       5.447  -0.121   4.200  1.00  0.00     0.009 C
BRANCH   3   4
HETATM    4  C3  UNL     1       6.671  -0.394   3.395  1.00  0.00     0.044 C
BRANCH   4   5
HETATM    5  C2  UNL     1       7.507   0.843   3.144  1.00  0.00     0.000 C
HETATM    6  C1  UNL     1       8.936   0.399   2.847  1.00  0.00     0.005 C
ENDBRANCH   4   5
ENDBRANCH   3   4
BRANCH   3   7
HETATM    7  C5  UNL     1       4.353   0.594   3.559  1.00  0.00     0.268 C
HETATM    8  O1  UNL     1       4.004   1.765   3.909  1.00  0.00    -0.302 OA
ENDBRANCH   3   7
BRANCH   2   9
HETATM    9  C7  UNL     1       6.503  -1.103   6.208  1.00  0.00     0.061 C
HETATM   10  C8  UNL     1       7.308  -0.034   6.946  1.00  0.00     0.012 C
ENDBRANCH   2   9
ENDBRANCH   1   2
BRANCH   1  11
HETATM   11  C9  UNL     1       3.090  -0.861   6.562  1.00  0.00     0.215 C
BRANCH  11  12
HETATM   12  C10 UNL     1       2.497  -0.653   7.901  1.00  0.00    -0.022 A
HETATM   13  C11 UNL     1       2.716  -1.464   8.970  1.00  0.00    -0.053 A
HETATM   14  C12 UNL     1       3.778  -2.477   8.913  1.00  0.00     0.049 C
HETATM   15  C13 UNL     1       2.000  -1.332  10.178  1.00  0.00     0.014 A
HETATM   16  C14 UNL     1       1.042  -0.364  10.322  1.00  0.00    -0.061 A
HETATM   17  C15 UNL     1       0.275  -0.241  11.596  1.00  0.00     0.048 C
HETATM   18  C16 UNL     1       0.811   0.471   9.241  1.00  0.00     0.014 A
HETATM   19  C17 UNL     1       1.520   0.336   8.052  1.00  0.00    -0.053 A
HETATM   20  C18 UNL     1       1.211   1.284   6.946  1.00  0.00     0.049 C
ENDBRANCH  11  12
ENDBRANCH   1  11
TORSDOF 7
ENDMDL