MODEL 4
REMARK VINA RESULT: -6.875120030      1.468      2.258
REMARK  10 active torsions:
REMARK  status: ('A' for Active; 'I' for Inactive)
REMARK    1  A    between atoms: C2_2  and  C3_3
REMARK    2  A    between atoms: C3_3  and  C4_4
REMARK    3  A    between atoms: C4_4  and  C5_5
REMARK    4  A    between atoms: C5_5  and  C6_6
REMARK    5  A    between atoms: C6_6  and  C7_7
REMARK    6  A    between atoms: C7_7  and  C8_9
REMARK    7  A    between atoms: C8_9  and  C9_10
REMARK    8  A    between atoms: C9_10  and  O2_11
REMARK    9  A    between atoms: C9_10  and  C10_13
REMARK   10  A    between atoms: C10_13  and  C11_14
ROOT
HETATM    1  C9  UNL     1       5.517  -0.353   5.824  1.00  0.00     0.129 C
ENDROOT
BRANCH   1   2
HETATM    2  C8  UNL     1       6.658   0.505   5.372  1.00  0.00     0.110 C
BRANCH   2   3
HETATM    3  C7  UNL     1       6.785   0.442   3.902  1.00  0.00     0.129 C
HETATM    4  O1  UNL     1       5.815   0.231   3.214  1.00  0.00    -0.298 OA
BRANCH   3   5
HETATM    5  C6  UNL     1       8.113   0.638   3.239  1.00  0.00     0.078 C
BRANCH   5   6
HETATM    6  C5  UNL     1       8.146  -0.403   2.118  1.00  0.00     0.007 C
BRANCH   6   7
HETATM    7  C4  UNL     1       9.484  -0.415   1.441  1.00  0.00     0.000 C
BRANCH   7   8
HETATM    8  C3  UNL     1       9.357   0.234   0.091  1.00  0.00    -0.000 C
BRANCH   8   9
HETATM    9  C2  UNL     1      10.551   1.077  -0.223  1.00  0.00    -0.005 C
HETATM   10  C1  UNL     1      11.449   0.345  -1.212  1.00  0.00     0.005 C
ENDBRANCH   8   9
ENDBRANCH   7   8
ENDBRANCH   6   7
ENDBRANCH   5   6
ENDBRANCH   3   5
ENDBRANCH   2   3
ENDBRANCH   1   2
BRANCH   1  11
HETATM   11  O2  UNL     1       5.789  -1.699   5.399  1.00  0.00    -0.395 OA
ATOM     12  H2  UNL     1       5.630  -2.273   6.139  1.00  0.00     0.210 HD
ENDBRANCH   1  11
BRANCH   1  13
HETATM   13  C10 UNL     1       5.404  -0.367   7.321  1.00  0.00     0.070 C
BRANCH  13  14
HETATM   14  C11 UNL     1       4.041   0.034   7.724  1.00  0.00    -0.055 A
HETATM   15  C12 UNL     1       3.078   0.558   6.923  1.00  0.00     0.013 A
HETATM   16  C13 UNL     1       1.818   0.918   7.386  1.00  0.00    -0.061 A
HETATM   17  C14 UNL     1       0.793   1.490   6.474  1.00  0.00     0.048 C
HETATM   18  C15 UNL     1       1.540   0.731   8.719  1.00  0.00     0.013 A
HETATM   19  C16 UNL     1       2.497   0.197   9.577  1.00  0.00    -0.061 A
HETATM   20  C17 UNL     1       2.199  -0.010  11.033  1.00  0.00     0.048 C
HETATM   21  C18 UNL     1       3.735  -0.149   9.078  1.00  0.00     0.013 A
ENDBRANCH  13  14
ENDBRANCH   1  13
TORSDOF 10
ENDMDL