MODEL 2
REMARK VINA RESULT: -5.626506318      1.599      7.400
REMARK  3 active torsions:
REMARK  status: ('A' for Active; 'I' for Inactive)
REMARK    1  A    between atoms: C2_7  and  C3_8
REMARK    2  A    between atoms: C3_8  and  N3_9
REMARK    3  A    between atoms: C12_22  and  O3_23
ROOT
HETATM    1  N1  UNL     1       4.529   0.105   2.662  1.00  0.00    -0.384 N
ATOM      2  H11 UNL     1       4.985   0.039   1.753  1.00  0.00     0.157 HD
ATOM      3  H12 UNL     1       3.536   0.196   2.451  1.00  0.00     0.157 HD
HETATM    4  C1  UNL     1       5.000   0.086   3.786  1.00  0.00     0.129 A
HETATM    5  N2  UNL     1       4.368   0.178   5.050  1.00  0.00    -0.329 N
ATOM      6  H2  UNL     1       3.367   0.280   5.218  1.00  0.00     0.168 HD
HETATM    7  C2  UNL     1       5.388   0.102   6.044  1.00  0.00     0.112 A
HETATM    8  N4  UNL     1       6.549  -0.023   5.514  1.00  0.00    -0.340 N
ATOM      9  H4  UNL     1       7.425  -0.095   6.032  1.00  0.00     0.167 HD
HETATM   10  C11 UNL     1       6.435  -0.046   4.093  1.00  0.00     0.099 A
HETATM   11  C12 UNL     1       7.428  -0.164   3.226  1.00  0.00     0.164 C
ENDROOT
BRANCH   7  12
HETATM   12  C3  UNL     1       5.082   0.166   7.492  1.00  0.00     0.348 C
BRANCH  12  13
HETATM   13  N3  UNL     1       3.661  -0.019   7.750  1.00  0.00     0.098 N
HETATM   14  C4  UNL     1       3.398  -1.420   7.753  1.00  0.00     0.275 C
HETATM   15  C5  UNL     1       2.043  -1.819   8.227  1.00  0.00     0.065 C
HETATM   16  C6  UNL     1       1.776  -1.098   9.548  1.00  0.00     0.153 C
HETATM   17  O1  UNL     1       0.531  -1.392  10.057  1.00  0.00    -0.381 OA
HETATM   18  C9  UNL     1       1.864   0.363   9.267  1.00  0.00     0.178 C
HETATM   19  C7  UNL     1       0.449  -0.757  11.298  1.00  0.00     0.194 C
HETATM   20  C8  UNL     1       0.649   0.710  11.228  1.00  0.00     0.194 C
HETATM   21  O2  UNL     1       1.322   1.200  10.168  1.00  0.00    -0.379 OA
HETATM   22  C10 UNL     1       3.339   0.660   8.968  1.00  0.00     0.307 C
ENDBRANCH  12  13
ENDBRANCH   7  12
BRANCH  11  23
HETATM   23  O3  UNL     1       8.721  -0.277   3.712  1.00  0.00    -0.370 OA
ATOM     24  H3  UNL     1       9.428  -0.419   3.093  1.00  0.00     0.216 HD
ENDBRANCH  11  23
TORSDOF 3
ENDMDL