MODEL 2
REMARK VINA RESULT: -5.947765429      1.609      2.607
REMARK  9 active torsions:
REMARK  status: ('A' for Active; 'I' for Inactive)
REMARK    1  A    between atoms: C2_2  and  C3_3
REMARK    2  A    between atoms: C3_3  and  C4_4
REMARK    3  A    between atoms: C4_4  and  C5_5
REMARK    4  A    between atoms: C5_5  and  C6_6
REMARK    5  A    between atoms: C6_6  and  C7_7
REMARK    6  A    between atoms: C7_7  and  C8_8
REMARK    7  A    between atoms: C10_10  and  C11_11
REMARK    8  A    between atoms: C11_11  and  O1_12
REMARK    9  A    between atoms: C15_17  and  O2_18
ROOT
HETATM    1  C8  UNL     1       5.221   0.271   6.840  1.00  0.00    -0.024 A
HETATM    2  C9  UNL     1       4.818  -0.152   8.121  1.00  0.00     0.019 A
HETATM    3  C10 UNL     1       3.508  -0.194   8.522  1.00  0.00    -0.028 A
HETATM    4  C12 UNL     1       2.508   0.182   7.670  1.00  0.00    -0.051 A
HETATM    5  C13 UNL     1       1.082   0.150   8.067  1.00  0.00     0.049 C
HETATM    6  C14 UNL     1       2.860   0.597   6.418  1.00  0.00     0.044 A
HETATM    7  C15 UNL     1       4.207   0.640   6.007  1.00  0.00     0.075 A
ENDROOT
BRANCH   1   8
HETATM    8  C7  UNL     1       6.666   0.314   6.532  1.00  0.00     0.041 C
BRANCH   8   9
HETATM    9  C6  UNL     1       7.241  -0.763   5.743  1.00  0.00     0.005 C
BRANCH   9  10
HETATM   10  C5  UNL     1       7.676  -0.669   4.362  1.00  0.00     0.001 C
BRANCH  10  11
HETATM   11  C4  UNL     1       7.963   0.640   3.745  1.00  0.00     0.004 C
BRANCH  11  12
HETATM   12  C3  UNL     1       7.789   0.600   2.214  1.00  0.00     0.026 C
BRANCH  12  13
HETATM   13  C2  UNL     1       8.468  -0.647   1.771  1.00  0.00    -0.037 C
HETATM   14  C1  UNL     1       9.242  -0.638   0.700  1.00  0.00     0.007 C
ENDBRANCH  12  13
ENDBRANCH  11  12
ENDBRANCH  10  11
ENDBRANCH   9  10
ENDBRANCH   8   9
ENDBRANCH   1   8
BRANCH   7  15
HETATM   15  O2  UNL     1       4.487   1.066   4.723  1.00  0.00    -0.355 OA
HETATM   16  C16 UNL     1       4.347   0.180   3.638  1.00  0.00     0.210 C
ENDBRANCH   7  15
BRANCH   3  17
HETATM   17  C11 UNL     1       3.212  -0.660   9.901  1.00  0.00     0.203 C
BRANCH  17  18
HETATM   18  O1  UNL     1       3.108  -2.038   9.978  1.00  0.00    -0.396 OA
ATOM     19  H1  UNL     1       2.217  -2.322  10.144  1.00  0.00     0.209 HD
ENDBRANCH  17  18
ENDBRANCH   3  17
TORSDOF 9
ENDMDL