MODEL 5
REMARK VINA RESULT: -5.993868908      1.661      6.531
REMARK  7 active torsions:
REMARK  status: ('A' for Active; 'I' for Inactive)
REMARK    1  A    between atoms: C2_2  and  C3_3
REMARK    2  A    between atoms: C3_3  and  C4_4
REMARK    3  A    between atoms: C4_4  and  C5_5
REMARK    4  A    between atoms: C5_5  and  C6_6
REMARK    5  A    between atoms: C6_6  and  C7_8
REMARK    6  A    between atoms: C12_14  and  C13_15
REMARK    7  A    between atoms: C13_15  and  C14_16
ROOT
HETATM    1  C7  UNL     1       4.500  -0.158   6.396  1.00  0.00     0.048 A
HETATM    2  C8  UNL     1       4.068   0.979   5.686  1.00  0.00     0.064 A
HETATM    3  C9  UNL     1       4.863   1.728   4.646  1.00  0.00     0.077 C
HETATM    4  O2  UNL     1       2.872   1.228   6.114  1.00  0.00    -0.319 OA
HETATM    5  C10 UNL     1       2.471   0.392   7.016  1.00  0.00     0.056 A
HETATM    6  C11 UNL     1       1.146   0.389   7.723  1.00  0.00     0.077 C
HETATM    7  C12 UNL     1       3.513  -0.543   7.236  1.00  0.00    -0.012 A
ENDROOT
BRANCH   1   8
HETATM    8  C6  UNL     1       5.836  -0.657   6.244  1.00  0.00     0.162 C
HETATM    9  O1  UNL     1       6.720  -0.096   7.013  1.00  0.00    -0.292 OA
BRANCH   8  10
HETATM   10  C5  UNL     1       6.364  -1.688   5.361  1.00  0.00     0.084 C
BRANCH  10  11
HETATM   11  C4  UNL     1       6.399  -1.200   3.907  1.00  0.00     0.008 C
BRANCH  11  12
HETATM   12  C3  UNL     1       7.661  -0.424   3.694  1.00  0.00     0.000 C
BRANCH  12  13
HETATM   13  C2  UNL     1       7.775   0.177   2.329  1.00  0.00    -0.005 C
HETATM   14  C1  UNL     1       8.714  -0.561   1.418  1.00  0.00     0.005 C
ENDBRANCH  12  13
ENDBRANCH  11  12
ENDBRANCH  10  11
ENDBRANCH   8  10
ENDBRANCH   1   8
BRANCH   7  15
HETATM   15  C13 UNL     1       3.358  -1.671   8.172  1.00  0.00     0.046 C
BRANCH  15  16
HETATM   16  C14 UNL     1       3.679  -1.439   9.592  1.00  0.00    -0.018 C
HETATM   17  C15 UNL     1       4.348  -0.159   9.947  1.00  0.00     0.010 C
HETATM   18  C16 UNL     1       2.382  -1.488  10.438  1.00  0.00     0.010 C
ENDBRANCH  15  16
ENDBRANCH   7  15
TORSDOF 7
ENDMDL