MODEL 2
REMARK VINA RESULT: -6.553905859      1.146      1.176
REMARK  8 active torsions:
REMARK  status: ('A' for Active; 'I' for Inactive)
REMARK    1  A    between atoms: C2_2  and  C3_3
REMARK    2  A    between atoms: C3_3  and  C4_4
REMARK    3  A    between atoms: C4_4  and  C5_5
REMARK    4  A    between atoms: C5_5  and  C6_6
REMARK    5  A    between atoms: C6_6  and  C7_7
REMARK    6  A    between atoms: C7_7  and  C8_9
REMARK    7  A    between atoms: C10_11  and  C11_12
REMARK    8  A    between atoms: C13_14  and  O2_15
ROOT
HETATM    1  C8  UNL     1       4.739  -0.507   6.090  1.00  0.00     0.016 A
HETATM    2  C9  UNL     1       3.381  -0.658   6.430  1.00  0.00     0.025 A
HETATM    3  C10 UNL     1       2.887  -0.408   7.693  1.00  0.00    -0.024 A
HETATM    4  C13 UNL     1       3.789   0.008   8.646  1.00  0.00     0.072 A
HETATM    5  C14 UNL     1       5.125   0.173   8.367  1.00  0.00     0.044 A
HETATM    6  C15 UNL     1       5.603  -0.090   7.064  1.00  0.00    -0.045 A
HETATM    7  C16 UNL     1       7.035   0.100   6.832  1.00  0.00     0.049 C
ENDROOT
BRANCH   1   8
HETATM    8  C7  UNL     1       5.189  -0.774   4.753  1.00  0.00     0.160 C
HETATM    9  O1  UNL     1       5.687  -1.898   4.473  1.00  0.00    -0.292 OA
BRANCH   8  10
HETATM   10  C6  UNL     1       5.134   0.164   3.597  1.00  0.00     0.084 C
BRANCH  10  11
HETATM   11  C5  UNL     1       6.422   0.943   3.483  1.00  0.00     0.008 C
BRANCH  11  12
HETATM   12  C4  UNL     1       7.382   0.325   2.499  1.00  0.00     0.004 C
BRANCH  12  13
HETATM   13  C3  UNL     1       8.568  -0.303   3.136  1.00  0.00     0.026 C
BRANCH  13  14
HETATM   14  C2  UNL     1       9.780   0.069   2.341  1.00  0.00    -0.037 C
HETATM   15  C1  UNL     1      10.339   1.268   2.371  1.00  0.00     0.007 C
ENDBRANCH  13  14
ENDBRANCH  12  13
ENDBRANCH  11  12
ENDBRANCH  10  11
ENDBRANCH   8  10
ENDBRANCH   1   8
BRANCH   3  16
HETATM   16  C11 UNL     1       1.444  -0.585   8.003  1.00  0.00     0.037 C
HETATM   17  C12 UNL     1       0.616   0.592   7.545  1.00  0.00     0.010 C
ENDBRANCH   3  16
BRANCH   4  18
HETATM   18  O2  UNL     1       3.276   0.256   9.915  1.00  0.00    -0.360 OA
ATOM     19  H2  UNL     1       3.535   1.075  10.323  1.00  0.00     0.217 HD
ENDBRANCH   4  18
TORSDOF 8
ENDMDL