MODEL 4
REMARK VINA RESULT: -5.236023207      1.481      1.767
REMARK  7 active torsions:
REMARK  status: ('A' for Active; 'I' for Inactive)
REMARK    1  A    between atoms: C2_2  and  C3_3
REMARK    2  A    between atoms: C3_3  and  C4_4
REMARK    3  A    between atoms: C4_4  and  C5_5
REMARK    4  A    between atoms: C10_11  and  C11_12
REMARK    5  A    between atoms: C11_12  and  C12_14
REMARK    6  A    between atoms: C12_14  and  C13_15
REMARK    7  A    between atoms: C13_15  and  C15_17
ROOT
HETATM    1  C5  UNL     1       4.758  -0.137   6.582  1.00  0.00    -0.012 A
HETATM    2  C6  UNL     1       5.384   1.019   6.929  1.00  0.00     0.056 A
HETATM    3  C7  UNL     1       6.250   1.862   6.079  1.00  0.00     0.077 C
HETATM    4  O1  UNL     1       5.129   1.344   8.205  1.00  0.00    -0.319 OA
HETATM    5  C8  UNL     1       4.354   0.449   8.735  1.00  0.00     0.064 A
HETATM    6  C9  UNL     1       3.830   0.438  10.151  1.00  0.00     0.077 C
HETATM    7  C10 UNL     1       4.080  -0.512   7.775  1.00  0.00     0.048 A
ENDROOT
BRANCH   7   8
HETATM    8  C11 UNL     1       3.247  -1.682   7.968  1.00  0.00     0.163 C
HETATM    9  O2  UNL     1       3.722  -2.645   8.593  1.00  0.00    -0.292 OA
BRANCH   8  10
HETATM   10  C12 UNL     1       1.886  -1.686   7.429  1.00  0.00     0.088 C
BRANCH  10  11
HETATM   11  C13 UNL     1       0.878  -0.987   8.299  1.00  0.00    -0.012 C
HETATM   12  C14 UNL     1       0.792   0.487   8.101  1.00  0.00     0.010 C
BRANCH  11  13
HETATM   13  C15 UNL     1       0.980  -1.392   9.756  1.00  0.00     0.000 C
HETATM   14  C16 UNL     1       0.216  -0.369  10.593  1.00  0.00     0.005 C
ENDBRANCH  11  13
ENDBRANCH  10  11
ENDBRANCH   8  10
ENDBRANCH   7   8
BRANCH   1  15
HETATM   15  C4  UNL     1       4.673  -0.928   5.365  1.00  0.00     0.042 C
BRANCH  15  16
HETATM   16  C3  UNL     1       5.875  -1.290   4.620  1.00  0.00     0.004 C
BRANCH  16  17
HETATM   17  C2  UNL     1       6.367  -0.427   3.503  1.00  0.00    -0.004 C
HETATM   18  C1  UNL     1       7.874  -0.283   3.474  1.00  0.00     0.005 C
ENDBRANCH  16  17
ENDBRANCH  15  16
ENDBRANCH   1  15
TORSDOF 7
ENDMDL