MODEL 4
REMARK VINA RESULT: -5.939550097      1.193      1.462
REMARK  6 active torsions:
REMARK  status: ('A' for Active; 'I' for Inactive)
REMARK    1  A    between atoms: C2_2  and  C3_3
REMARK    2  A    between atoms: C3_3  and  C4_4
REMARK    3  A    between atoms: C10_10  and  O1_11
REMARK    4  A    between atoms: C10_10  and  C11_13
REMARK    5  A    between atoms: C11_13  and  C12_14
REMARK    6  A    between atoms: C12_14  and  C13_15
ROOT
HETATM    1  C3  UNL     1       2.193  -0.895   8.898  1.00  0.00    -0.041 C
HETATM    2  C6  UNL     1       1.631   0.485   8.638  1.00  0.00     0.009 C
HETATM    3  C7  UNL     1       1.932   1.127   7.339  1.00  0.00     0.001 C
HETATM    4  C8  UNL     1       3.368   1.317   6.989  1.00  0.00     0.003 C
HETATM    5  C9  UNL     1       3.860   0.355   5.947  1.00  0.00     0.038 C
HETATM    6  C10 UNL     1       4.803  -0.689   6.562  1.00  0.00     0.058 C
HETATM    7  C15 UNL     1       4.087  -1.701   7.378  1.00  0.00     0.038 C
HETATM    8  C16 UNL     1       2.654  -1.574   7.624  1.00  0.00     0.012 C
ENDROOT
BRANCH   6   9
HETATM    9  O1  UNL     1       5.740   0.055   7.284  1.00  0.00    -0.390 OA
ATOM     10  H1  UNL     1       5.471  -0.031   8.192  1.00  0.00     0.210 HD
ENDBRANCH   6   9
BRANCH   6  11
HETATM   11  C11 UNL     1       5.548  -1.262   5.376  1.00  0.00     0.045 C
BRANCH  11  12
HETATM   12  C12 UNL     1       5.504  -0.469   4.123  1.00  0.00     0.081 C
BRANCH  12  13
HETATM   13  C13 UNL     1       6.870   0.122   3.922  1.00  0.00     0.123 C
HETATM   14  C14 UNL     1       7.623  -0.037   2.659  1.00  0.00     0.091 C
HETATM   15  O2  UNL     1       7.341   0.753   4.873  1.00  0.00    -0.298 OA
ENDBRANCH  12  13
ENDBRANCH  11  12
ENDBRANCH   6  11
BRANCH   1  16
HETATM   16  C2  UNL     1       3.203  -0.920   9.976  1.00  0.00     0.005 C
HETATM   17  C1  UNL     1       3.990   0.290  10.306  1.00  0.00     0.006 C
ENDBRANCH   1  16
BRANCH   1  18
HETATM   18  C4  UNL     1       0.991  -1.695   9.345  1.00  0.00     0.005 C
HETATM   19  C5  UNL     1      -0.079  -1.018  10.084  1.00  0.00     0.006 C
ENDBRANCH   1  18
TORSDOF 6
ENDMDL