MODEL 4
REMARK VINA RESULT: -5.990944870      1.225      2.389
REMARK  8 active torsions:
REMARK  status: ('A' for Active; 'I' for Inactive)
REMARK    1  A    between atoms: C2_2  and  C4_4
REMARK    2  A    between atoms: C4_4  and  C5_5
REMARK    3  A    between atoms: C5_5  and  C6_6
REMARK    4  A    between atoms: C5_5  and  C12_15
REMARK    5  A    between atoms: C6_6  and  C7_7
REMARK    6  A    between atoms: C10_10  and  C11_11
REMARK    7  A    between atoms: C11_11  and  O1_12
REMARK    8  A    between atoms: C12_15  and  C13_16
ROOT
HETATM    1  C5  UNL     1       3.974  -0.669   7.317  1.00  0.00    -0.007 C
ENDROOT
BRANCH   1   2
HETATM    2  C4  UNL     1       4.028   0.622   8.128  1.00  0.00     0.009 C
BRANCH   2   3
HETATM    3  C2  UNL     1       2.975   1.619   7.761  1.00  0.00    -0.022 C
HETATM    4  C1  UNL     1       2.349   2.076   9.075  1.00  0.00     0.009 C
HETATM    5  C3  UNL     1       1.876   1.080   6.913  1.00  0.00     0.009 C
ENDBRANCH   2   3
ENDBRANCH   1   2
BRANCH   1   6
HETATM    6  C6  UNL     1       3.642  -1.736   8.295  1.00  0.00     0.069 C
BRANCH   6   7
HETATM    7  C7  UNL     1       2.352  -1.554   9.022  1.00  0.00     0.053 A
HETATM    8  C8  UNL     1       1.071  -1.877   8.712  1.00  0.00     0.035 A
HETATM    9  C9  UNL     1       0.256  -1.477   9.752  1.00  0.00     0.037 A
HETATM   10  C10 UNL     1       1.133  -0.914  10.664  1.00  0.00     0.076 A
HETATM   11  O2  UNL     1       2.346  -0.976  10.208  1.00  0.00    -0.317 OA
BRANCH  10  12
HETATM   12  C11 UNL     1       0.714  -0.331  11.973  1.00  0.00     0.229 C
BRANCH  12  13
HETATM   13  O1  UNL     1      -0.633  -0.595  12.226  1.00  0.00    -0.394 OA
ATOM     14  H1  UNL     1      -0.909  -1.390  11.785  1.00  0.00     0.209 HD
ENDBRANCH  12  13
ENDBRANCH  10  12
ENDBRANCH   6   7
ENDBRANCH   1   6
BRANCH   1  15
HETATM   15  C12 UNL     1       5.213  -0.876   6.563  1.00  0.00     0.013 C
BRANCH  15  16
HETATM   16  C13 UNL     1       5.715   0.055   5.548  1.00  0.00    -0.051 C
HETATM   17  C14 UNL     1       6.631  -0.744   4.543  1.00  0.00     0.014 C
HETATM   18  C15 UNL     1       4.722   0.707   4.622  1.00  0.00     0.014 C
HETATM   19  C16 UNL     1       6.619   1.140   6.077  1.00  0.00     0.014 C
ENDBRANCH  15  16
ENDBRANCH   1  15
TORSDOF 8
ENDMDL