MODEL 2
REMARK VINA RESULT: -5.436258564      0.826      1.041
REMARK  9 active torsions:
REMARK  status: ('A' for Active; 'I' for Inactive)
REMARK    1  A    between atoms: C2_2  and  C3_3
REMARK    2  A    between atoms: C3_3  and  C4_4
REMARK    3  A    between atoms: C4_4  and  C5_5
REMARK    4  A    between atoms: C5_5  and  C6_6
REMARK    5  A    between atoms: C10_10  and  O1_11
REMARK    6  A    between atoms: O1_11  and  C11_12
REMARK    7  A    between atoms: C14_15  and  C15_16
REMARK    8  A    between atoms: C15_16  and  C16_17
REMARK    9  A    between atoms: C16_17  and  O2_18
ROOT
HETATM    1  C6  UNL     1       3.407   0.322   6.798  1.00  0.00    -0.051 A
HETATM    2  C7  UNL     1       3.977   1.216   5.880  1.00  0.00     0.017 A
HETATM    3  C8  UNL     1       5.157   0.993   5.221  1.00  0.00    -0.028 A
HETATM    4  C9  UNL     1       5.690   1.997   4.261  1.00  0.00     0.051 C
HETATM    5  C10 UNL     1       5.814  -0.183   5.481  1.00  0.00     0.075 A
HETATM    6  C13 UNL     1       5.280  -1.077   6.375  1.00  0.00     0.045 A
HETATM    7  C14 UNL     1       4.080  -0.844   7.045  1.00  0.00    -0.047 A
ENDROOT
BRANCH   1   8
HETATM    8  C5  UNL     1       2.086   0.669   7.372  1.00  0.00     0.039 C
BRANCH   8   9
HETATM    9  C4  UNL     1       2.192   1.485   8.631  1.00  0.00     0.005 C
BRANCH   9  10
HETATM   10  C3  UNL     1       1.376   0.868   9.722  1.00  0.00    -0.000 C
BRANCH  10  11
HETATM   11  C2  UNL     1       0.415  -0.165   9.218  1.00  0.00    -0.005 C
HETATM   12  C1  UNL     1       0.238  -1.270  10.224  1.00  0.00     0.005 C
ENDBRANCH  10  11
ENDBRANCH   9  10
ENDBRANCH   8   9
ENDBRANCH   1   8
BRANCH   7  13
HETATM   13  C15 UNL     1       3.586  -1.796   8.055  1.00  0.00     0.065 C
BRANCH  13  14
HETATM   14  C16 UNL     1       4.037  -1.507   9.461  1.00  0.00     0.168 C
BRANCH  14  15
HETATM   15  O2  UNL     1       3.547  -2.508  10.329  1.00  0.00    -0.401 OA
ATOM     16  H2  UNL     1       4.006  -2.459  11.159  1.00  0.00     0.209 HD
ENDBRANCH  14  15
ENDBRANCH  13  14
ENDBRANCH   7  13
BRANCH   5  17
HETATM   17  O1  UNL     1       6.991  -0.478   4.865  1.00  0.00    -0.351 OA
BRANCH  17  18
HETATM   18  C11 UNL     1       7.269  -0.836   3.566  1.00  0.00     0.171 C
HETATM   19  C12 UNL     1       8.446  -0.199   2.926  1.00  0.00     0.034 C
ENDBRANCH  17  18
ENDBRANCH   5  17
TORSDOF 9
ENDMDL