MODEL 4
REMARK VINA RESULT: -6.198680435      1.476      2.702
REMARK  9 active torsions:
REMARK  status: ('A' for Active; 'I' for Inactive)
REMARK    1  A    between atoms: C2_2  and  C3_3
REMARK    2  A    between atoms: C5_5  and  C6_6
REMARK    3  A    between atoms: C6_6  and  C7_7
REMARK    4  A    between atoms: C7_7  and  C8_8
REMARK    5  A    between atoms: C8_8  and  O1_9
REMARK    6  A    between atoms: C8_8  and  C9_11
REMARK    7  A    between atoms: C9_11  and  C10_12
REMARK    8  A    between atoms: C10_12  and  C11_13
REMARK    9  A    between atoms: C11_13  and  O2_14
ROOT
HETATM    1  C6  UNL     1       4.871   1.114   4.681  1.00  0.00     0.041 C
ENDROOT
BRANCH   1   2
HETATM    2  C5  UNL     1       4.544   0.504   5.965  1.00  0.00    -0.057 A
HETATM    3  C4  UNL     1       3.231   0.231   6.301  1.00  0.00     0.019 A
HETATM    4  C3  UNL     1       2.913  -0.363   7.503  1.00  0.00    -0.031 A
HETATM    5  C15 UNL     1       3.926  -0.693   8.389  1.00  0.00    -0.052 A
HETATM    6  C14 UNL     1       5.248  -0.430   8.075  1.00  0.00     0.008 A
HETATM    7  C16 UNL     1       3.563  -1.339   9.691  1.00  0.00     0.049 C
HETATM    8  C13 UNL     1       5.545   0.174   6.848  1.00  0.00     0.007 A
BRANCH   4   9
HETATM    9  C2  UNL     1       1.524  -0.660   7.875  1.00  0.00     0.002 C
HETATM   10  C1  UNL     1       0.651   0.238   8.251  1.00  0.00     0.012 C
ENDBRANCH   4   9
ENDBRANCH   1   2
BRANCH   1  11
HETATM   11  C7  UNL     1       5.646   0.314   3.715  1.00  0.00     0.036 C
BRANCH  11  12
HETATM   12  C8  UNL     1       7.110   0.502   3.658  1.00  0.00     0.118 C
BRANCH  12  13
HETATM   13  O1  UNL     1       7.886  -0.394   4.340  1.00  0.00    -0.396 OA
ATOM     14  H1  UNL     1       8.743  -0.592   3.980  1.00  0.00     0.210 HD
ENDBRANCH  12  13
BRANCH  12  15
HETATM   15  C9  UNL     1       7.656   0.636   2.253  1.00  0.00     0.034 C
BRANCH  15  16
HETATM   16  C10 UNL     1       8.439  -0.640   1.973  1.00  0.00     0.029 C
BRANCH  16  17
HETATM   17  C11 UNL     1       9.150  -0.598   0.667  1.00  0.00     0.167 C
BRANCH  17  18
HETATM   18  O2  UNL     1      10.452  -0.195   0.745  1.00  0.00    -0.396 OA
HETATM   19  C12 UNL     1      10.794   0.541  -0.373  1.00  0.00     0.201 C
ENDBRANCH  17  18
ENDBRANCH  16  17
ENDBRANCH  15  16
ENDBRANCH  12  15
ENDBRANCH  11  12
ENDBRANCH   1  11
TORSDOF 9
ENDMDL