MODEL 4
REMARK VINA RESULT: -5.263396834      1.457      2.652
REMARK  7 active torsions:
REMARK  status: ('A' for Active; 'I' for Inactive)
REMARK    1  A    between atoms: C2_2  and  C3_3
REMARK    2  A    between atoms: C3_3  and  C4_4
REMARK    3  A    between atoms: C4_4  and  O1_6
REMARK    4  A    between atoms: O1_6  and  C6_7
REMARK    5  A    between atoms: C6_7  and  C7_8
REMARK    6  A    between atoms: C11_12  and  O2_13
REMARK    7  A    between atoms: C12_15  and  C13_16
ROOT
HETATM    1  C7  UNL     1       4.248   0.265   6.656  1.00  0.00    -0.033 A
HETATM    2  C8  UNL     1       5.069   0.077   7.747  1.00  0.00     0.019 A
HETATM    3  C9  UNL     1       4.589   0.035   9.041  1.00  0.00    -0.028 A
HETATM    4  C10 UNL     1       5.447  -0.163  10.234  1.00  0.00     0.051 C
HETATM    5  C11 UNL     1       3.226   0.191   9.225  1.00  0.00     0.078 A
HETATM    6  C12 UNL     1       2.356   0.382   8.184  1.00  0.00    -0.021 A
HETATM    7  C16 UNL     1       2.878   0.416   6.905  1.00  0.00     0.019 A
ENDROOT
BRANCH   1   8
HETATM    8  C6  UNL     1       4.806   0.317   5.302  1.00  0.00     0.206 C
BRANCH   8   9
HETATM    9  O1  UNL     1       6.118   0.646   5.170  1.00  0.00    -0.382 OA
BRANCH   9  10
HETATM   10  C4  UNL     1       6.920  -0.288   4.496  1.00  0.00     0.117 C
HETATM   11  C5  UNL     1       6.146  -1.561   4.450  1.00  0.00     0.039 C
BRANCH  10  12
HETATM   12  C3  UNL     1       7.233   0.281   3.161  1.00  0.00     0.031 C
BRANCH  12  13
HETATM   13  C2  UNL     1       8.208  -0.382   2.280  1.00  0.00    -0.002 C
HETATM   14  C1  UNL     1       9.621  -0.101   2.586  1.00  0.00     0.005 C
ENDBRANCH  12  13
ENDBRANCH  10  12
ENDBRANCH   9  10
ENDBRANCH   8   9
ENDBRANCH   1   8
BRANCH   6  15
HETATM   15  C13 UNL     1       0.924   0.566   8.356  1.00  0.00     0.013 C
HETATM   16  C14 UNL     1       0.288  -0.597   9.124  1.00  0.00     0.015 C
HETATM   17  C15 UNL     1       0.150   0.734   7.081  1.00  0.00     0.015 C
ENDBRANCH   6  15
BRANCH   5  18
HETATM   18  O2  UNL     1       2.726   0.151  10.494  1.00  0.00    -0.360 OA
ATOM     19  H2  UNL     1       2.283   0.919  10.835  1.00  0.00     0.217 HD
ENDBRANCH   5  18
TORSDOF 7
ENDMDL