MODEL 5
REMARK VINA RESULT: -5.807145264      1.464      2.904
REMARK  13 active torsions:
REMARK  status: ('A' for Active; 'I' for Inactive)
REMARK    1  A    between atoms: S1_2  and  C2_3
REMARK    2  A    between atoms: C5_6  and  O1_7
REMARK    3  A    between atoms: O1_7  and  C6_8
REMARK    4  A    between atoms: C6_8  and  C7_9
REMARK    5  A    between atoms: C7_9  and  O2_10
REMARK    6  A    between atoms: O2_10  and  C8_11
REMARK    7  A    between atoms: C8_11  and  C9_12
REMARK    8  A    between atoms: C9_12  and  O3_13
REMARK    9  A    between atoms: O3_13  and  C10_14
REMARK   10  A    between atoms: C10_14  and  C11_15
REMARK   11  A    between atoms: C11_15  and  O4_16
REMARK   12  A    between atoms: O4_16  and  C12_17
REMARK   13  A    between atoms: C12_17  and  C14_19
ROOT
HETATM    1  C8  UNL     1     -11.056  24.638   6.748  1.00  0.00     0.193 C
ENDROOT
BRANCH   1   2
HETATM    2  O2  UNL     1     -11.103  25.610   7.715  1.00  0.00    -0.387 OA
BRANCH   2   3
HETATM    3  C7  UNL     1     -10.894  26.858   7.190  1.00  0.00     0.194 C
BRANCH   3   4
HETATM    4  C6  UNL     1     -11.803  27.065   5.967  1.00  0.00     0.203 C
BRANCH   4   5
HETATM    5  O1  UNL     1     -12.973  27.561   6.184  1.00  0.00    -0.334 OA
BRANCH   5   6
HETATM    6  C5  UNL     1     -14.140  28.108   6.293  1.00  0.00     0.141 A
HETATM    7  C4  UNL     1     -15.333  27.354   6.257  1.00  0.00     0.057 A
HETATM    8  C3  UNL     1     -16.529  27.998   6.376  1.00  0.00     0.024 A
HETATM    9  C2  UNL     1     -16.634  29.359   6.531  1.00  0.00     0.015 A
HETATM   10  C20 UNL     1     -15.459  30.072   6.564  1.00  0.00     0.108 A
HETATM   11  N1  UNL     1     -14.274  29.465   6.450  1.00  0.00    -0.346 N
ATOM     12  H1  UNL     1     -13.429  30.036   6.481  1.00  0.00     0.167 HD
BRANCH   9  13
HETATM   13  S1  UNL     1     -18.175  30.217   6.689  1.00  0.00    -0.133 SA
HETATM   14  C1  UNL     1     -19.501  29.031   6.254  1.00  0.00     0.095 C
ENDBRANCH   9  13
ENDBRANCH   5   6
ENDBRANCH   4   5
ENDBRANCH   3   4
ENDBRANCH   2   3
ENDBRANCH   1   2
BRANCH   1  15
HETATM   15  C9  UNL     1     -12.091  23.575   7.101  1.00  0.00     0.193 C
BRANCH  15  16
HETATM   16  O3  UNL     1     -12.028  22.481   6.277  1.00  0.00    -0.387 OA
BRANCH  16  17
HETATM   17  C10 UNL     1     -12.119  21.265   6.902  1.00  0.00     0.193 C
BRANCH  17  18
HETATM   18  C11 UNL     1     -11.883  21.358   8.398  1.00  0.00     0.194 C
BRANCH  18  19
HETATM   19  O4  UNL     1     -12.968  20.783   9.067  1.00  0.00    -0.380 OA
BRANCH  19  20
HETATM   20  C12 UNL     1     -13.176  21.330  10.308  1.00  0.00     0.150 C
HETATM   21  C13 UNL     1     -12.926  20.234  11.332  1.00  0.00     0.045 C
BRANCH  20  22
HETATM   22  C14 UNL     1     -14.554  21.874  10.412  1.00  0.00    -0.030 A
HETATM   23  C15 UNL     1     -15.335  21.539  11.496  1.00  0.00     0.010 A
HETATM   24  C16 UNL     1     -16.628  22.015  11.647  1.00  0.00     0.001 A
HETATM   25  C17 UNL     1     -17.095  22.848  10.651  1.00  0.00     0.000 A
HETATM   26  C18 UNL     1     -16.368  23.221   9.545  1.00  0.00     0.001 A
HETATM   27  C19 UNL     1     -15.068  22.711   9.442  1.00  0.00     0.010 A
ENDBRANCH  20  22
ENDBRANCH  19  20
ENDBRANCH  18  19
ENDBRANCH  17  18
ENDBRANCH  16  17
ENDBRANCH  15  16
ENDBRANCH   1  15
TORSDOF 13
ENDMDL