MODEL 3
REMARK VINA RESULT: -6.634604694      2.971      5.475
REMARK  14 active torsions:
REMARK  status: ('A' for Active; 'I' for Inactive)
REMARK    1  A    between atoms: C2_2  and  C3_3
REMARK    2  A    between atoms: C2_2  and  C8_16
REMARK    3  A    between atoms: C3_3  and  C4_4
REMARK    4  A    between atoms: C4_4  and  O1_5
REMARK    5  A    between atoms: O1_5  and  C5_6
REMARK    6  A    between atoms: C5_6  and  C6_7
REMARK    7  A    between atoms: C6_7  and  N1_8
REMARK    8  A    between atoms: C8_16  and  C9_17
REMARK    9  A    between atoms: C9_17  and  C10_18
REMARK   10  A    between atoms: C10_18  and  C11_19
REMARK   11  A    between atoms: C12_20  and  C13_21
REMARK   12  A    between atoms: C13_21  and  C14_22
REMARK   13  A    between atoms: C15_23  and  C16_24
REMARK   14  A    between atoms: C16_24  and  C17_25
ROOT
HETATM    1  C8  UNL     1     -16.263  23.010   9.476  1.00  0.00     0.034 C
ENDROOT
BRANCH   1   2
HETATM    2  C2  UNL     1     -16.950  23.898   8.524  1.00  0.00    -0.086 C
HETATM    3  C1  UNL     1     -16.806  23.687   7.073  1.00  0.00     0.043 C
BRANCH   2   4
HETATM    4  C3  UNL     1     -17.701  24.892   8.960  1.00  0.00     0.001 C
BRANCH   4   5
HETATM    5  C4  UNL     1     -18.317  25.918   8.077  1.00  0.00     0.195 C
BRANCH   5   6
HETATM    6  O1  UNL     1     -17.729  27.152   8.215  1.00  0.00    -0.386 OA
BRANCH   6   7
HETATM    7  C5  UNL     1     -17.568  27.851   7.048  1.00  0.00     0.189 C
BRANCH   7   8
HETATM    8  C6  UNL     1     -16.388  27.388   6.212  1.00  0.00     0.177 C
BRANCH   8   9
HETATM    9  N1  UNL     1     -15.280  28.323   6.375  1.00  0.00    -0.269 N
HETATM   10  C7  UNL     1     -15.360  29.620   6.759  1.00  0.00     0.219 A
HETATM   11  N2  UNL     1     -14.105  30.077   6.770  1.00  0.00    -0.279 N
HETATM   12  N3  UNL     1     -13.309  29.079   6.402  1.00  0.00    -0.227 N
ATOM     13  H2  UNL     1     -13.810  31.022   7.016  1.00  0.00     0.189 HD
HETATM   14  N4  UNL     1     -14.029  28.012   6.164  1.00  0.00    -0.225 N
ATOM     15  H3  UNL     1     -12.294  29.135   6.319  1.00  0.00     0.210 HD
ATOM     16  H4  UNL     1     -13.678  27.102   5.867  1.00  0.00     0.210 HD
ENDBRANCH   8   9
ENDBRANCH   7   8
ENDBRANCH   6   7
ENDBRANCH   5   6
ENDBRANCH   4   5
ENDBRANCH   2   4
ENDBRANCH   1   2
BRANCH   1  17
HETATM   17  C9  UNL     1     -16.980  22.927  10.801  1.00  0.00     0.008 C
BRANCH  17  18
HETATM   18  C10 UNL     1     -16.179  21.975  11.696  1.00  0.00     0.027 C
BRANCH  18  19
HETATM   19  C11 UNL     1     -14.957  21.535  10.995  1.00  0.00    -0.030 C
HETATM   20  C12 UNL     1     -14.254  20.522  11.460  1.00  0.00    -0.027 C
BRANCH  20  21
HETATM   21  C13 UNL     1     -13.011  20.057  10.765  1.00  0.00     0.053 C
BRANCH  21  22
HETATM   22  C14 UNL     1     -12.187  21.231  10.485  1.00  0.00    -0.027 C
HETATM   23  C15 UNL     1     -11.682  21.571   9.335  1.00  0.00    -0.027 C
BRANCH  23  24
HETATM   24  C16 UNL     1     -11.873  20.799   8.105  1.00  0.00     0.062 C
BRANCH  24  25
HETATM   25  C17 UNL     1     -12.725  21.647   7.171  1.00  0.00     0.149 C
HETATM   26  C18 UNL     1     -12.391  21.392   5.753  1.00  0.00     0.004 C
HETATM   27  C19 UNL     1     -12.131  22.562   5.206  1.00  0.00     0.008 C
HETATM   28  C20 UNL     1     -12.283  23.631   6.236  1.00  0.00     0.072 C
HETATM   29  C21 UNL     1     -11.062  24.531   6.253  1.00  0.00     0.050 C
HETATM   30  C22 UNL     1     -13.500  24.460   5.947  1.00  0.00     0.050 C
HETATM   31  O2  UNL     1     -12.472  22.972   7.426  1.00  0.00    -0.368 OA
ENDBRANCH  24  25
ENDBRANCH  23  24
ENDBRANCH  21  22
ENDBRANCH  20  21
ENDBRANCH  18  19
ENDBRANCH  17  18
ENDBRANCH   1  17
TORSDOF 14
ENDMDL