MODEL 2
REMARK VINA RESULT: -5.850777669      0.473      1.737
REMARK  12 active torsions:
REMARK  status: ('A' for Active; 'I' for Inactive)
REMARK    1  A    between atoms: C2_2  and  C3_3
REMARK    2  A    between atoms: C3_3  and  N1_4
REMARK    3  A    between atoms: N1_4  and  C4_5
REMARK    4  A    between atoms: N1_4  and  C7_8
REMARK    5  A    between atoms: C4_5  and  C5_6
REMARK    6  A    between atoms: C7_8  and  C8_9
REMARK    7  A    between atoms: C14_16  and  O2_17
REMARK    8  A    between atoms: O2_17  and  C15_18
REMARK    9  A    between atoms: C15_18  and  C16_19
REMARK   10  A    between atoms: C16_19  and  C17_20
REMARK   11  A    between atoms: C17_20  and  N2_21
REMARK   12  A    between atoms: N2_21  and  C19_23
ROOT
HETATM    1  C8  UNL     1     -12.170  25.659   5.924  1.00  0.00     0.072 A
HETATM    2  C9  UNL     1     -11.615  26.935   6.155  1.00  0.00     0.175 A
HETATM    3  O1  UNL     1     -12.594  27.792   6.267  1.00  0.00    -0.303 OA
HETATM    4  C10 UNL     1     -13.777  27.184   6.129  1.00  0.00     0.158 A
HETATM    5  C11 UNL     1     -15.062  27.840   6.207  1.00  0.00     0.015 A
HETATM    6  C12 UNL     1     -16.236  27.156   6.038  1.00  0.00     0.018 A
HETATM    7  C13 UNL     1     -17.468  27.783   6.179  1.00  0.00     0.038 A
HETATM    8  C14 UNL     1     -17.538  29.126   6.498  1.00  0.00     0.068 A
HETATM    9  C22 UNL     1     -16.361  29.818   6.667  1.00  0.00     0.038 A
HETATM   10  C23 UNL     1     -15.140  29.170   6.520  1.00  0.00     0.018 A
HETATM   11  N3  UNL     1     -13.484  25.889   5.919  1.00  0.00    -0.333 N
ATOM     12  H3  UNL     1     -14.187  25.164   5.772  1.00  0.00     0.168 HD
ENDROOT
BRANCH   1  13
HETATM   13  C7  UNL     1     -11.387  24.413   5.812  1.00  0.00     0.122 C
BRANCH  13  14
HETATM   14  N1  UNL     1     -12.062  23.201   5.930  1.00  0.00    -0.361 N
BRANCH  14  15
HETATM   15  C3  UNL     1     -12.014  22.518   7.134  1.00  0.00     0.090 C
BRANCH  15  16
HETATM   16  C2  UNL     1     -13.107  22.860   8.076  1.00  0.00     0.007 C
HETATM   17  C1  UNL     1     -14.408  22.637   7.862  1.00  0.00     0.012 C
ENDBRANCH  15  16
ENDBRANCH  14  15
BRANCH  14  18
HETATM   18  C4  UNL     1     -12.356  22.490   4.739  1.00  0.00     0.154 C
BRANCH  18  19
HETATM   19  C5  UNL     1     -12.384  21.012   4.984  1.00  0.00    -0.017 C
HETATM   20  C6  UNL     1     -11.964  20.190   4.051  1.00  0.00     0.008 C
ENDBRANCH  18  19
ENDBRANCH  14  18
ENDBRANCH  13  14
ENDBRANCH   1  13
BRANCH   8  21
HETATM   21  O2  UNL     1     -18.743  29.769   6.647  1.00  0.00    -0.351 OA
BRANCH  21  22
HETATM   22  C15 UNL     1     -19.913  29.043   6.956  1.00  0.00     0.177 C
BRANCH  22  23
HETATM   23  C16 UNL     1     -20.284  29.267   8.408  1.00  0.00     0.057 C
BRANCH  23  24
HETATM   24  C17 UNL     1     -20.710  27.963   9.025  1.00  0.00     0.274 C
BRANCH  24  25
HETATM   25  N2  UNL     1     -19.881  26.862   8.533  1.00  0.00     0.088 N
HETATM   26  C18 UNL     1     -20.746  25.668   8.424  1.00  0.00     0.310 C
BRANCH  25  27
HETATM   27  C19 UNL     1     -18.800  26.589   9.445  1.00  0.00     0.214 C
HETATM   28  C20 UNL     1     -19.245  26.393  10.854  1.00  0.00     0.042 C
HETATM   29  C21 UNL     1     -18.054  25.350   8.992  1.00  0.00     0.042 C
ENDBRANCH  25  27
ENDBRANCH  24  25
ENDBRANCH  23  24
ENDBRANCH  22  23
ENDBRANCH  21  22
ENDBRANCH   8  21
TORSDOF 12
ENDMDL