MODEL 2
REMARK VINA RESULT: -5.756992250      2.082      6.848
REMARK  13 active torsions:
REMARK  status: ('A' for Active; 'I' for Inactive)
REMARK    1  A    between atoms: C2_2  and  S1_3
REMARK    2  A    between atoms: S1_3  and  C3_4
REMARK    3  A    between atoms: C3_4  and  C4_5
REMARK    4  A    between atoms: C4_5  and  N1_6
REMARK    5  A    between atoms: N1_6  and  C5_7
REMARK    6  A    between atoms: N1_6  and  C14_20
REMARK    7  A    between atoms: C5_7  and  C6_8
REMARK    8  A    between atoms: C6_8  and  O1_9
REMARK    9  A    between atoms: O1_9  and  C7_10
REMARK   10  A    between atoms: C7_10  and  C8_11
REMARK   11  A    between atoms: C8_11  and  C9_12
REMARK   12  A    between atoms: C9_12  and  C11_14
REMARK   13  A    between atoms: C14_20  and  C15_21
ROOT
HETATM    1  N1  UNL     1     -17.102  26.578   6.495  1.00  0.00    -0.365 N
ENDROOT
BRANCH   1   2
HETATM    2  C4  UNL     1     -18.102  25.616   6.716  1.00  0.00     0.073 C
BRANCH   2   3
HETATM    3  C3  UNL     1     -19.100  26.149   7.737  1.00  0.00     0.118 C
BRANCH   3   4
HETATM    4  S1  UNL     1     -20.552  26.853   6.877  1.00  0.00    -0.164 SA
BRANCH   4   5
HETATM    5  C2  UNL     1     -20.260  26.579   5.094  1.00  0.00     0.069 C
HETATM    6  C1  UNL     1     -19.835  27.900   4.480  1.00  0.00     0.016 C
ENDBRANCH   4   5
ENDBRANCH   3   4
ENDBRANCH   2   3
ENDBRANCH   1   2
BRANCH   1   7
HETATM    7  C5  UNL     1     -15.938  26.133   5.833  1.00  0.00     0.153 C
BRANCH   7   8
HETATM    8  C6  UNL     1     -15.773  24.632   5.893  1.00  0.00     0.187 C
BRANCH   8   9
HETATM    9  O1  UNL     1     -15.145  24.090   4.811  1.00  0.00    -0.389 OA
BRANCH   9  10
HETATM   10  C7  UNL     1     -14.506  22.900   5.006  1.00  0.00     0.168 C
BRANCH  10  11
HETATM   11  C8  UNL     1     -13.056  23.061   4.624  1.00  0.00     0.037 C
BRANCH  11  12
HETATM   12  C9  UNL     1     -12.107  23.004   5.786  1.00  0.00     0.041 C
HETATM   13  C10 UNL     1     -12.726  22.362   6.988  1.00  0.00     0.017 C
BRANCH  12  14
HETATM   14  C11 UNL     1     -11.822  24.438   6.166  1.00  0.00     0.054 A
HETATM   15  N2  UNL     1     -12.316  25.523   5.592  1.00  0.00    -0.363 N
HETATM   16  C12 UNL     1     -11.978  26.695   6.028  1.00  0.00     0.095 A
ATOM     17  H2  UNL     1     -12.963  25.437   4.808  1.00  0.00     0.165 HD
HETATM   18  C13 UNL     1     -11.099  26.745   7.088  1.00  0.00     0.068 A
HETATM   19  S2  UNL     1     -10.823  25.087   7.385  1.00  0.00    -0.087 SA
ENDBRANCH  12  14
ENDBRANCH  11  12
ENDBRANCH  10  11
ENDBRANCH   9  10
ENDBRANCH   8   9
ENDBRANCH   7   8
ENDBRANCH   1   7
BRANCH   1  20
HETATM   20  C14 UNL     1     -16.860  27.563   7.475  1.00  0.00     0.119 C
BRANCH  20  21
HETATM   21  C15 UNL     1     -16.367  28.862   6.983  1.00  0.00     0.047 A
HETATM   22  C16 UNL     1     -17.313  29.730   6.479  1.00  0.00     0.031 A
HETATM   23  C17 UNL     1     -16.985  30.973   5.994  1.00  0.00     0.004 A
HETATM   24  C18 UNL     1     -15.666  31.362   6.015  1.00  0.00     0.017 A
HETATM   25  C19 UNL     1     -14.746  30.470   6.526  1.00  0.00     0.088 A
HETATM   26  N3  UNL     1     -15.086  29.258   6.995  1.00  0.00    -0.365 N
ATOM     27  H3  UNL     1     -14.366  28.635   7.361  1.00  0.00     0.165 HD
ENDBRANCH  20  21
ENDBRANCH   1  20
TORSDOF 13
ENDMDL