MODEL 5
REMARK VINA RESULT: -6.018774516      5.364      8.316
REMARK  13 active torsions:
REMARK  status: ('A' for Active; 'I' for Inactive)
REMARK    1  A    between atoms: C6_7  and  C7_8
REMARK    2  A    between atoms: C8_9  and  C9_10
REMARK    3  A    between atoms: C9_10  and  C10_11
REMARK    4  A    between atoms: C10_11  and  C11_12
REMARK    5  A    between atoms: C11_12  and  C12_13
REMARK    6  A    between atoms: C12_13  and  C13_14
REMARK    7  A    between atoms: C13_14  and  C14_15
REMARK    8  A    between atoms: C14_15  and  C15_16
REMARK    9  A    between atoms: C15_16  and  C16_17
REMARK   10  A    between atoms: C16_17  and  C17_18
REMARK   11  A    between atoms: C17_18  and  C18_19
REMARK   12  A    between atoms: C18_19  and  C19_20
REMARK   13  A    between atoms: C19_20  and  N1_21
ROOT
HETATM    1  C12 UNL     1     -13.291  27.821   6.251  1.00  0.00     0.000 C
ENDROOT
BRANCH   1   2
HETATM    2  C11 UNL     1     -11.969  27.214   5.814  1.00  0.00     0.000 C
BRANCH   2   3
HETATM    3  C10 UNL     1     -11.007  27.101   6.965  1.00  0.00     0.004 C
BRANCH   3   4
HETATM    4  C9  UNL     1     -11.102  25.714   7.558  1.00  0.00     0.027 C
BRANCH   4   5
HETATM    5  C8  UNL     1     -11.120  24.701   6.488  1.00  0.00    -0.030 C
HETATM    6  C7  UNL     1     -11.957  23.692   6.488  1.00  0.00    -0.025 C
BRANCH   6   7
HETATM    7  C6  UNL     1     -12.951  23.459   7.530  1.00  0.00     0.019 C
HETATM    8  C3  UNL     1     -12.708  22.207   8.352  1.00  0.00    -0.003 C
HETATM    9  C2  UNL     1     -13.398  22.167   9.684  1.00  0.00     0.123 C
HETATM   10  C4  UNL     1     -13.373  21.414   7.283  1.00  0.00     0.013 C
HETATM   11  C22 UNL     1     -11.293  21.897   8.678  1.00  0.00     0.189 C
HETATM   12  C1  UNL     1     -12.620  21.120  10.388  1.00  0.00     0.259 C
HETATM   13  O1  UNL     1     -12.994  20.476  11.392  1.00  0.00    -0.265 OA
HETATM   14  O2  UNL     1     -11.402  20.966   9.756  1.00  0.00    -0.321 OA
HETATM   15  C5  UNL     1     -14.139  22.694   6.921  1.00  0.00     0.010 C
ENDBRANCH   6   7
ENDBRANCH   4   5
ENDBRANCH   3   4
ENDBRANCH   2   3
ENDBRANCH   1   2
BRANCH   1  16
HETATM   16  C13 UNL     1     -14.389  26.843   5.971  1.00  0.00     0.000 C
BRANCH  16  17
HETATM   17  C14 UNL     1     -15.760  27.324   6.316  1.00  0.00     0.000 C
BRANCH  17  18
HETATM   18  C15 UNL     1     -15.757  28.809   6.622  1.00  0.00     0.000 C
BRANCH  18  19
HETATM   19  C16 UNL     1     -17.123  29.314   7.026  1.00  0.00     0.000 C
BRANCH  19  20
HETATM   20  C17 UNL     1     -18.224  28.645   6.270  1.00  0.00     0.002 C
BRANCH  20  21
HETATM   21  C18 UNL     1     -19.476  28.409   7.073  1.00  0.00     0.022 C
BRANCH  21  22
HETATM   22  C19 UNL     1     -19.421  27.035   7.683  1.00  0.00     0.150 C
BRANCH  22  23
HETATM   23  N1  UNL     1     -19.514  27.162   9.121  1.00  0.00    -0.288 N
HETATM   24  C20 UNL     1     -20.576  27.565   9.820  1.00  0.00     0.130 A
HETATM   25  C21 UNL     1     -20.231  27.537  11.147  1.00  0.00     0.127 A
HETATM   26  N2  UNL     1     -18.958  27.113  11.196  1.00  0.00    -0.296 N
HETATM   27  N3  UNL     1     -18.536  26.888   9.960  1.00  0.00    -0.241 N
ATOM     28  H2  UNL     1     -18.406  26.985  12.045  1.00  0.00     0.187 HD
ATOM     29  H3  UNL     1     -17.606  26.558   9.700  1.00  0.00     0.208 HD
ENDBRANCH  22  23
ENDBRANCH  21  22
ENDBRANCH  20  21
ENDBRANCH  19  20
ENDBRANCH  18  19
ENDBRANCH  17  18
ENDBRANCH  16  17
ENDBRANCH   1  16
TORSDOF 13
ENDMDL