MODEL 5
REMARK VINA RESULT: -5.485064203      3.453      7.933
REMARK  13 active torsions:
REMARK  status: ('A' for Active; 'I' for Inactive)
REMARK    1  A    between atoms: S1_2  and  C2_3
REMARK    2  A    between atoms: C2_3  and  C3_4
REMARK    3  A    between atoms: C3_4  and  C4_5
REMARK    4  A    between atoms: C3_4  and  C9_10
REMARK    5  A    between atoms: C4_5  and  C5_6
REMARK    6  A    between atoms: C5_6  and  C6_7
REMARK    7  A    between atoms: C9_10  and  N1_11
REMARK    8  A    between atoms: C11_13  and  C12_14
REMARK    9  A    between atoms: C12_14  and  O1_15
REMARK   10  A    between atoms: O1_15  and  C13_16
REMARK   11  A    between atoms: C13_16  and  C14_17
REMARK   12  A    between atoms: C14_17  and  O2_18
REMARK   13  A    between atoms: O2_18  and  C15_19
ROOT
HETATM    1  N1  UNL     1     -14.912  27.711   6.174  1.00  0.00    -0.287 N
HETATM    2  C10 UNL     1     -13.946  26.783   6.049  1.00  0.00     0.140 A
HETATM    3  C11 UNL     1     -12.738  27.399   6.152  1.00  0.00     0.068 A
HETATM    4  N2  UNL     1     -12.981  28.709   6.343  1.00  0.00    -0.287 N
ATOM      5  H2  UNL     1     -12.279  29.440   6.458  1.00  0.00     0.188 HD
HETATM    6  N3  UNL     1     -14.274  28.876   6.353  1.00  0.00    -0.241 N
ATOM      7  H3  UNL     1     -14.738  29.775   6.479  1.00  0.00     0.208 HD
ENDROOT
BRANCH   3   8
HETATM    8  C12 UNL     1     -11.418  26.745   6.070  1.00  0.00     0.227 C
BRANCH   8   9
HETATM    9  O1  UNL     1     -11.216  25.870   7.121  1.00  0.00    -0.383 OA
BRANCH   9  10
HETATM   10  C13 UNL     1     -10.830  24.647   6.629  1.00  0.00     0.194 C
BRANCH  10  11
HETATM   11  C14 UNL     1     -12.016  23.755   6.314  1.00  0.00     0.201 C
BRANCH  11  12
HETATM   12  O2  UNL     1     -11.833  22.458   6.875  1.00  0.00    -0.349 OA
BRANCH  12  13
HETATM   13  C15 UNL     1     -12.342  22.202   8.147  1.00  0.00     0.068 A
HETATM   14  C16 UNL     1     -11.602  21.507   9.064  1.00  0.00     0.037 A
HETATM   15  C17 UNL     1     -12.135  21.267  10.324  1.00  0.00     0.003 A
HETATM   16  C18 UNL     1     -13.390  21.716  10.661  1.00  0.00     0.000 A
HETATM   17  C19 UNL     1     -14.149  22.418   9.749  1.00  0.00     0.003 A
HETATM   18  C20 UNL     1     -13.602  22.644   8.506  1.00  0.00     0.037 A
ENDBRANCH  12  13
ENDBRANCH  11  12
ENDBRANCH  10  11
ENDBRANCH   9  10
ENDBRANCH   8   9
ENDBRANCH   3   8
BRANCH   1  19
HETATM   19  C9  UNL     1     -16.310  27.443   6.131  1.00  0.00     0.155 C
BRANCH  19  20
HETATM   20  C3  UNL     1     -17.108  28.150   7.241  1.00  0.00     0.015 C
BRANCH  20  21
HETATM   21  C2  UNL     1     -17.679  27.100   8.107  1.00  0.00     0.079 C
BRANCH  21  22
HETATM   22  S1  UNL     1     -17.680  25.433   7.452  1.00  0.00    -0.173 SA
HETATM   23  C1  UNL     1     -19.384  24.958   7.074  1.00  0.00     0.089 C
ENDBRANCH  21  22
ENDBRANCH  20  21
BRANCH  20  24
HETATM   24  C4  UNL     1     -18.017  29.072   6.539  1.00  0.00     0.007 C
BRANCH  24  25
HETATM   25  C5  UNL     1     -19.279  29.483   7.190  1.00  0.00     0.004 C
BRANCH  25  26
HETATM   26  C6  UNL     1     -20.402  28.941   6.271  1.00  0.00    -0.023 C
HETATM   27  C7  UNL     1     -19.824  28.212   5.102  1.00  0.00     0.009 C
HETATM   28  C8  UNL     1     -21.371  28.136   7.074  1.00  0.00     0.009 C
ENDBRANCH  25  26
ENDBRANCH  24  25
ENDBRANCH  20  24
ENDBRANCH  19  20
ENDBRANCH   1  19
TORSDOF 13
ENDMDL