MODEL 3
REMARK VINA RESULT: -5.656577936      3.487      6.677
REMARK  13 active torsions:
REMARK  status: ('A' for Active; 'I' for Inactive)
REMARK    1  A    between atoms: N1_2  and  C1_4
REMARK    2  A    between atoms: C4_7  and  S1_8
REMARK    3  A    between atoms: S1_8  and  C5_9
REMARK    4  A    between atoms: C5_9  and  C6_10
REMARK    5  A    between atoms: C6_10  and  C7_11
REMARK    6  A    between atoms: C7_11  and  O3_12
REMARK    7  A    between atoms: O3_12  and  C8_13
REMARK    8  A    between atoms: C8_13  and  C9_14
REMARK    9  A    between atoms: C9_14  and  O4_15
REMARK   10  A    between atoms: O4_15  and  C10_16
REMARK   11  A    between atoms: C10_16  and  C11_17
REMARK   12  A    between atoms: C11_17  and  O5_18
REMARK   13  A    between atoms: O5_18  and  C12_19
ROOT
HETATM    1  C7  UNL     1     -17.729  22.815  10.415  1.00  0.00     0.168 C
ENDROOT
BRANCH   1   2
HETATM    2  C6  UNL     1     -17.777  24.135   9.687  1.00  0.00     0.037 C
BRANCH   2   3
HETATM    3  C5  UNL     1     -17.844  23.833   8.193  1.00  0.00     0.081 C
BRANCH   3   4
HETATM    4  S1  UNL     1     -18.786  25.130   7.321  1.00  0.00    -0.130 SA
BRANCH   4   5
HETATM    5  C4  UNL     1     -17.758  26.539   7.007  1.00  0.00     0.000 A
HETATM    6  C3  UNL     1     -18.215  27.785   7.306  1.00  0.00     0.021 A
HETATM    7  C2  UNL     1     -17.421  28.885   7.063  1.00  0.00     0.037 A
HETATM    8  C1  UNL     1     -16.160  28.772   6.519  1.00  0.00     0.102 A
HETATM    9  C19 UNL     1     -15.717  27.500   6.224  1.00  0.00     0.037 A
HETATM   10  C18 UNL     1     -16.504  26.389   6.464  1.00  0.00     0.021 A
BRANCH   8  11
HETATM   11  N1  UNL     1     -15.373  29.915   6.281  1.00  0.00    -0.116 N
HETATM   12  O1  UNL     1     -15.762  30.775   5.487  1.00  0.00    -0.532 OA
HETATM   13  O2  UNL     1     -14.186  30.072   6.925  1.00  0.00    -0.532 OA
ENDBRANCH   8  11
ENDBRANCH   4   5
ENDBRANCH   3   4
ENDBRANCH   2   3
ENDBRANCH   1   2
BRANCH   1  14
HETATM   14  O3  UNL     1     -16.509  22.223  10.230  1.00  0.00    -0.389 OA
BRANCH  14  15
HETATM   15  C8  UNL     1     -15.567  22.413  11.206  1.00  0.00     0.193 C
BRANCH  15  16
HETATM   16  C9  UNL     1     -14.261  22.729  10.513  1.00  0.00     0.193 C
BRANCH  16  17
HETATM   17  O4  UNL     1     -13.836  21.637   9.796  1.00  0.00    -0.387 OA
BRANCH  17  18
HETATM   18  C10 UNL     1     -12.522  21.345  10.064  1.00  0.00     0.194 C
BRANCH  18  19
HETATM   19  C11 UNL     1     -11.693  21.287   8.795  1.00  0.00     0.201 C
BRANCH  19  20
HETATM   20  O5  UNL     1     -11.236  22.510   8.430  1.00  0.00    -0.349 OA
BRANCH  20  21
HETATM   21  C12 UNL     1     -11.612  23.502   7.616  1.00  0.00     0.068 A
HETATM   22  C13 UNL     1     -10.858  24.665   7.536  1.00  0.00     0.037 A
HETATM   23  C14 UNL     1     -11.157  25.730   6.740  1.00  0.00     0.003 A
HETATM   24  C15 UNL     1     -12.297  25.638   5.959  1.00  0.00     0.000 A
HETATM   25  C16 UNL     1     -13.091  24.516   5.987  1.00  0.00     0.003 A
HETATM   26  C17 UNL     1     -12.734  23.448   6.827  1.00  0.00     0.037 A
ENDBRANCH  20  21
ENDBRANCH  19  20
ENDBRANCH  18  19
ENDBRANCH  17  18
ENDBRANCH  16  17
ENDBRANCH  15  16
ENDBRANCH  14  15
ENDBRANCH   1  14
TORSDOF 13
ENDMDL