MODEL 4
REMARK VINA RESULT: -6.183912536      1.745      2.417
REMARK  13 active torsions:
REMARK  status: ('A' for Active; 'I' for Inactive)
REMARK    1  A    between atoms: C1_1  and  C2_2
REMARK    2  A    between atoms: C1_1  and  C10_10
REMARK    3  A    between atoms: C2_2  and  C3_3
REMARK    4  A    between atoms: C3_3  and  C4_4
REMARK    5  A    between atoms: C4_4  and  C5_5
REMARK    6  A    between atoms: C10_10  and  C11_11
REMARK    7  A    between atoms: C11_11  and  C12_12
REMARK    8  A    between atoms: C12_12  and  N1_13
REMARK    9  A    between atoms: C13_20  and  O1_21
REMARK   10  A    between atoms: O1_21  and  C14_22
REMARK   11  A    between atoms: C14_22  and  C15_23
REMARK   12  A    between atoms: C15_23  and  C16_24
REMARK   13  A    between atoms: C16_24  and  N5_25
ROOT
HETATM    1  N1  UNL     1     -15.333  28.185   6.403  1.00  0.00    -0.239 N
HETATM    2  N2  UNL     1     -14.055  28.368   6.177  1.00  0.00    -0.223 N
ATOM      3  H2  UNL     1     -13.429  27.695   5.733  1.00  0.00     0.210 HD
HETATM    4  N3  UNL     1     -13.709  29.558   6.614  1.00  0.00    -0.225 N
ATOM      5  H3  UNL     1     -12.773  29.959   6.563  1.00  0.00     0.210 HD
HETATM    6  N4  UNL     1     -14.768  30.150   7.128  1.00  0.00    -0.248 N
ATOM      7  H4  UNL     1     -14.798  31.081   7.542  1.00  0.00     0.192 HD
HETATM    8  C13 UNL     1     -15.799  29.301   7.004  1.00  0.00     0.258 A
ENDROOT
BRANCH   1   9
HETATM    9  C12 UNL     1     -16.104  26.983   6.063  1.00  0.00     0.154 C
BRANCH   9  10
HETATM   10  C11 UNL     1     -15.058  25.923   5.754  1.00  0.00     0.022 C
BRANCH  10  11
HETATM   11  C10 UNL     1     -15.590  24.582   6.182  1.00  0.00     0.002 C
BRANCH  11  12
HETATM   12  C1  UNL     1     -14.529  23.538   5.978  1.00  0.00     0.000 C
BRANCH  12  13
HETATM   13  C2  UNL     1     -14.042  23.022   7.289  1.00  0.00     0.000 C
BRANCH  13  14
HETATM   14  C3  UNL     1     -12.540  23.057   7.391  1.00  0.00     0.000 C
BRANCH  14  15
HETATM   15  C4  UNL     1     -11.928  23.296   6.048  1.00  0.00     0.004 C
BRANCH  15  16
HETATM   16  C5  UNL     1     -10.980  24.480   6.053  1.00  0.00    -0.014 C
HETATM   17  C6  UNL     1     -11.387  25.591   5.146  1.00  0.00     0.004 C
HETATM   18  C7  UNL     1     -10.923  26.832   5.885  1.00  0.00     0.000 C
HETATM   19  C8  UNL     1     -11.217  26.494   7.324  1.00  0.00     0.000 C
HETATM   20  C9  UNL     1     -10.829  25.050   7.438  1.00  0.00     0.004 C
ENDBRANCH  15  16
ENDBRANCH  14  15
ENDBRANCH  13  14
ENDBRANCH  12  13
ENDBRANCH  11  12
ENDBRANCH  10  11
ENDBRANCH   9  10
ENDBRANCH   1   9
BRANCH   8  21
HETATM   21  O1  UNL     1     -17.104  29.506   7.407  1.00  0.00    -0.319 OA
BRANCH  21  22
HETATM   22  C14 UNL     1     -18.144  30.030   6.623  1.00  0.00     0.184 C
BRANCH  22  23
HETATM   23  C15 UNL     1     -19.519  29.523   6.988  1.00  0.00     0.071 C
BRANCH  23  24
HETATM   24  C16 UNL     1     -19.394  28.056   7.266  1.00  0.00     0.065 C
BRANCH  24  25
HETATM   25  N5  UNL     1     -19.682  27.623   8.553  1.00  0.00    -0.374 N
HETATM   26  C17 UNL     1     -20.975  27.672   9.078  1.00  0.00     0.063 C
HETATM   27  C18 UNL     1     -21.027  27.615  10.572  1.00  0.00     0.044 C
HETATM   28  C19 UNL     1     -19.745  27.173  11.218  1.00  0.00     0.007 C
HETATM   29  C20 UNL     1     -19.131  26.078  10.375  1.00  0.00     0.021 C
HETATM   30  C21 UNL     1     -18.739  26.704   9.057  1.00  0.00     0.127 C
ENDBRANCH  24  25
ENDBRANCH  23  24
ENDBRANCH  22  23
ENDBRANCH  21  22
ENDBRANCH   8  21
TORSDOF 13
ENDMDL