MODEL 1
REMARK VINA RESULT: -6.311944470      0.000      0.000
REMARK  13 active torsions:
REMARK  status: ('A' for Active; 'I' for Inactive)
REMARK    1  A    between atoms: C4_4  and  C5_5
REMARK    2  A    between atoms: C5_5  and  C6_6
REMARK    3  A    between atoms: C6_6  and  C7_7
REMARK    4  A    between atoms: C9_9  and  C10_10
REMARK    5  A    between atoms: C10_10  and  C11_11
REMARK    6  A    between atoms: C11_11  and  C12_12
REMARK    7  A    between atoms: C14_14  and  O1_15
REMARK    8  A    between atoms: C14_14  and  S1_17
REMARK    9  A    between atoms: S1_17  and  C15_18
REMARK   10  A    between atoms: C15_18  and  C16_19
REMARK   11  A    between atoms: C16_19  and  O2_20
REMARK   12  A    between atoms: O2_20  and  C17_21
REMARK   13  A    between atoms: C17_21  and  N1_22
ROOT
HETATM    1  C12 UNL     1     -11.920  24.134   6.849  1.00  0.00    -0.043 C
HETATM    2  C13 UNL     1     -10.831  24.909   7.472  1.00  0.00     0.047 C
HETATM    3  C14 UNL     1     -12.660  24.709   5.932  1.00  0.00     0.104 C
ENDROOT
BRANCH   3   4
HETATM    4  O1  UNL     1     -12.393  26.024   5.581  1.00  0.00    -0.354 OA
ATOM      5  H1  UNL     1     -13.061  26.523   5.124  1.00  0.00     0.218 HD
ENDBRANCH   3   4
BRANCH   3   6
HETATM    6  S1  UNL     1     -13.974  23.790   5.173  1.00  0.00    -0.103 SA
BRANCH   6   7
HETATM    7  C15 UNL     1     -15.586  24.201   5.906  1.00  0.00     0.107 C
BRANCH   7   8
HETATM    8  C16 UNL     1     -16.032  25.534   5.416  1.00  0.00     0.180 C
BRANCH   8   9
HETATM    9  O2  UNL     1     -16.340  26.447   6.388  1.00  0.00    -0.362 OA
BRANCH   9  10
HETATM   10  C17 UNL     1     -15.684  27.640   6.211  1.00  0.00     0.440 C
BRANCH  10  11
HETATM   11  N1  UNL     1     -16.266  28.674   7.067  1.00  0.00     0.115 N
HETATM   12  C18 UNL     1     -17.623  28.961   6.709  1.00  0.00     0.301 C
HETATM   13  C19 UNL     1     -17.789  30.449   6.545  1.00  0.00     0.198 C
HETATM   14  O3  UNL     1     -16.924  30.858   5.527  1.00  0.00    -0.388 OA
HETATM   15  C20 UNL     1     -15.600  30.764   5.943  1.00  0.00     0.198 C
HETATM   16  C21 UNL     1     -15.400  29.816   7.080  1.00  0.00     0.301 C
ENDBRANCH  10  11
ENDBRANCH   9  10
ENDBRANCH   8   9
ENDBRANCH   7   8
ENDBRANCH   6   7
ENDBRANCH   3   6
BRANCH   1  17
HETATM   17  C11 UNL     1     -12.206  22.718   7.228  1.00  0.00     0.041 C
BRANCH  17  18
HETATM   18  C10 UNL     1     -13.069  22.655   8.495  1.00  0.00     0.032 C
BRANCH  18  19
HETATM   19  C9  UNL     1     -12.393  21.770   9.448  1.00  0.00    -0.024 C
HETATM   20  C7  UNL     1     -13.017  21.327  10.519  1.00  0.00    -0.087 C
HETATM   21  C8  UNL     1     -14.416  21.764  10.763  1.00  0.00     0.043 C
BRANCH  20  22
HETATM   22  C6  UNL     1     -12.351  20.438  11.486  1.00  0.00     0.037 C
BRANCH  22  23
HETATM   23  C5  UNL     1     -13.335  19.474  12.071  1.00  0.00     0.031 C
BRANCH  23  24
HETATM   24  C4  UNL     1     -12.601  18.448  12.846  1.00  0.00    -0.024 C
HETATM   25  C2  UNL     1     -12.260  17.256  12.403  1.00  0.00    -0.091 C
HETATM   26  C1  UNL     1     -11.511  16.348  13.339  1.00  0.00     0.042 C
HETATM   27  C3  UNL     1     -12.605  16.779  11.044  1.00  0.00     0.042 C
ENDBRANCH  23  24
ENDBRANCH  22  23
ENDBRANCH  20  22
ENDBRANCH  18  19
ENDBRANCH  17  18
ENDBRANCH   1  17
TORSDOF 13
ENDMDL