MODEL 3
REMARK VINA RESULT: -5.744568320      1.249      1.991
REMARK  14 active torsions:
REMARK  status: ('A' for Active; 'I' for Inactive)
REMARK    1  A    between atoms: C2_2  and  C3_3
REMARK    2  A    between atoms: C3_3  and  C4_4
REMARK    3  A    between atoms: C4_4  and  O1_5
REMARK    4  A    between atoms: O1_5  and  C5_6
REMARK    5  A    between atoms: C5_6  and  C6_7
REMARK    6  A    between atoms: C6_7  and  O2_10
REMARK    7  A    between atoms: O2_10  and  C9_11
REMARK    8  A    between atoms: C9_11  and  C10_12
REMARK    9  A    between atoms: C12_14  and  C14_16
REMARK   10  A    between atoms: C14_16  and  N1_17
REMARK   11  A    between atoms: N1_17  and  C15_18
REMARK   12  A    between atoms: N1_17  and  C20_23
REMARK   13  A    between atoms: C15_18  and  C16_19
REMARK   14  A    between atoms: C16_19  and  C17_20
ROOT
HETATM    1  C10 UNL     1     -16.232  24.316   5.854  1.00  0.00     0.020 A
HETATM    2  C11 UNL     1     -15.549  25.567   5.384  1.00  0.00     0.019 A
HETATM    3  C12 UNL     1     -16.972  25.669   5.919  1.00  0.00    -0.022 A
HETATM    4  C13 UNL     1     -18.072  25.778   4.883  1.00  0.00     0.017 C
ENDROOT
BRANCH   3   5
HETATM    5  C14 UNL     1     -17.162  26.213   7.276  1.00  0.00     0.134 C
BRANCH   5   6
HETATM    6  N1  UNL     1     -17.570  27.564   7.427  1.00  0.00    -0.365 N
BRANCH   6   7
HETATM    7  C15 UNL     1     -18.775  27.797   8.211  1.00  0.00     0.125 C
BRANCH   7   8
HETATM    8  C16 UNL     1     -19.578  26.569   8.483  1.00  0.00     0.024 C
BRANCH   8   9
HETATM    9  C17 UNL     1     -20.857  26.510   7.692  1.00  0.00    -0.021 C
HETATM   10  C18 UNL     1     -20.976  27.634   6.702  1.00  0.00     0.009 C
HETATM   11  C19 UNL     1     -21.060  25.202   6.995  1.00  0.00     0.009 C
ENDBRANCH   8   9
ENDBRANCH   7   8
ENDBRANCH   6   7
BRANCH   6  12
HETATM   12  C20 UNL     1     -16.918  28.704   6.938  1.00  0.00     0.118 A
HETATM   13  C21 UNL     1     -17.627  29.728   6.379  1.00  0.00     0.136 A
HETATM   14  N2  UNL     1     -17.009  30.854   5.904  1.00  0.00    -0.371 N
HETATM   15  C22 UNL     1     -15.679  30.923   6.002  1.00  0.00     0.104 A
ATOM     16  H2  UNL     1     -17.547  31.614   5.488  1.00  0.00     0.164 HD
HETATM   17  C23 UNL     1     -14.922  29.919   6.556  1.00  0.00     0.106 A
HETATM   18  N3  UNL     1     -15.568  28.837   7.008  1.00  0.00    -0.350 N
ATOM     19  H3  UNL     1     -15.023  28.081   7.424  1.00  0.00     0.166 HD
ENDBRANCH   6  12
ENDBRANCH   5   6
ENDBRANCH   3   5
BRANCH   1  20
HETATM   20  C9  UNL     1     -15.754  23.653   7.108  1.00  0.00     0.174 C
BRANCH  20  21
HETATM   21  O2  UNL     1     -14.407  23.603   7.152  1.00  0.00    -0.378 OA
BRANCH  21  22
HETATM   22  C6  UNL     1     -13.715  22.482   7.333  1.00  0.00     0.075 C
HETATM   23  C7  UNL     1     -14.244  21.141   7.102  1.00  0.00     0.048 C
HETATM   24  C8  UNL     1     -13.121  22.452   8.785  1.00  0.00     0.048 C
BRANCH  22  25
HETATM   25  C5  UNL     1     -12.436  22.602   6.459  1.00  0.00     0.204 C
BRANCH  25  26
HETATM   26  O1  UNL     1     -12.511  23.742   5.690  1.00  0.00    -0.388 OA
BRANCH  26  27
HETATM   27  C4  UNL     1     -11.298  24.394   5.683  1.00  0.00     0.171 C
BRANCH  27  28
HETATM   28  C3  UNL     1     -10.855  24.927   7.019  1.00  0.00     0.052 C
BRANCH  28  29
HETATM   29  C2  UNL     1     -11.228  26.377   7.051  1.00  0.00    -0.035 C
HETATM   30  C1  UNL     1     -11.304  27.100   5.949  1.00  0.00     0.007 C
ENDBRANCH  28  29
ENDBRANCH  27  28
ENDBRANCH  26  27
ENDBRANCH  25  26
ENDBRANCH  22  25
ENDBRANCH  21  22
ENDBRANCH  20  21
ENDBRANCH   1  20
TORSDOF 14
ENDMDL