MODEL 5
REMARK VINA RESULT: -9.494561822      4.238      8.745
REMARK  16 active torsions:
REMARK  status: ('A' for Active; 'I' for Inactive)
REMARK    1  A    between atoms: N1_1  and  C1_4
REMARK    2  A    between atoms: N3_10  and  C5_11
REMARK    3  A    between atoms: C5_11  and  O1_12
REMARK    4  A    between atoms: O1_12  and  C6_13
REMARK    5  A    between atoms: C6_13  and  O2_14
REMARK    6  A    between atoms: C6_13  and  C7_16
REMARK    7  A    between atoms: C7_16  and  O3_17
REMARK    8  A    between atoms: C7_16  and  C8_19
REMARK    9  A    between atoms: C7_16  and  N5_25
REMARK   10  A    between atoms: C8_19  and  C9_20
REMARK   11  A    between atoms: C9_20  and  N4_21
REMARK       I    between atoms: N5_25  and  C10_27
REMARK   12  A    between atoms: C10_27  and  C11_29
REMARK       I    between atoms: N7_33  and  C13_35
REMARK       I    between atoms: C13_35  and  N8_36
REMARK       I    between atoms: C13_35  and  N9_40
REMARK   13  A    between atoms: C15_45  and  N10_46
REMARK   14  A    between atoms: C17_51  and  N13_52
REMARK   15  A    between atoms: C18_57  and  C19_58
REMARK   16  A    between atoms: C19_58  and  O6_59
ROOT
HETATM    1  C11 UNL     1     -38.321   6.002  12.164  1.00  0.00     0.177 A
HETATM    2  N6  UNL     1     -37.858   4.919  11.540  1.00  0.00    -0.324 N
ATOM      3  H6  UNL     1     -37.378   4.192  12.069  1.00  0.00     0.169 HD
HETATM    4  C12 UNL     1     -38.025   4.784  10.215  1.00  0.00     0.109 A
HETATM    5  N7  UNL     1     -37.572   3.733   9.632  1.00  0.00    -0.327 N
ATOM      6  H7  UNL     1     -37.098   3.030  10.198  1.00  0.00     0.164 HD
HETATM    7  C13 UNL     1     -37.701   3.500   8.225  1.00  0.00     0.481 C
HETATM    8  N8  UNL     1     -39.040   3.125   7.820  1.00  0.00    -0.033 N
ATOM      9  H81 UNL     1     -39.132   2.959   6.818  1.00  0.00     0.278 HD
ATOM     10  H82 UNL     1     -39.719   3.817   8.135  1.00  0.00     0.278 HD
ATOM     11  H83 UNL     1     -39.364   2.315   8.350  1.00  0.00     0.278 HD
HETATM   12  N9  UNL     1     -36.833   2.395   7.797  1.00  0.00    -0.033 N
ATOM     13  H91 UNL     1     -36.924   2.230   6.795  1.00  0.00     0.278 HD
ATOM     14  H92 UNL     1     -37.008   1.547   8.337  1.00  0.00     0.278 HD
ATOM     15  H93 UNL     1     -35.862   2.552   8.066  1.00  0.00     0.278 HD
HETATM   16  C14 UNL     1     -38.666   5.743   9.477  1.00  0.00     0.097 A
HETATM   17  C15 UNL     1     -39.141   6.861  10.130  1.00  0.00     0.117 A
HETATM   18  N14 UNL     1     -38.947   6.949  11.468  1.00  0.00    -0.324 N
ATOM     19  H14 UNL     1     -39.293   7.771  11.962  1.00  0.00     0.169 HD
ENDROOT
BRANCH   1  20
HETATM   20  C10 UNL     1     -38.123   6.122  13.622  1.00  0.00     0.288 C
HETATM   21  N5  UNL     1     -36.850   6.129  14.196  1.00  0.00    -0.319 N
ATOM     22  H5  UNL     1     -36.078   6.047  13.533  1.00  0.00     0.166 HD
HETATM   23  O4  UNL     1     -39.161   6.213  14.303  1.00  0.00    -0.264 OA
BRANCH  21  24
HETATM   24  C7  UNL     1     -36.467   6.231  15.538  1.00  0.00     0.186 C
BRANCH  24  25
HETATM   25  C6  UNL     1     -36.705   5.066  16.439  1.00  0.00     0.320 C
BRANCH  25  26
HETATM   26  O1  UNL     1     -36.577   3.814  15.991  1.00  0.00    -0.310 OA
BRANCH  26  27
HETATM   27  C5  UNL     1     -37.476   2.857  16.368  1.00  0.00     0.236 C
BRANCH  27  28
HETATM   28  N3  UNL     1     -37.882   1.905  15.404  1.00  0.00    -0.322 N
HETATM   29  C4  UNL     1     -37.771   0.580  15.672  1.00  0.00     0.100 A
HETATM   30  C3  UNL     1     -38.152  -0.412  14.818  1.00  0.00     0.048 A
HETATM   31  C2  UNL     1     -38.705  -0.092  13.559  1.00  0.00     0.054 A
HETATM   32  N2  UNL     1     -39.109  -0.936  12.646  1.00  0.00    -0.336 N
HETATM   33  C21 UNL     1     -38.815   1.243  13.293  1.00  0.00     0.051 A
HETATM   34  C1  UNL     1     -39.609  -0.452  11.507  1.00  0.00     0.143 A
ATOM     35  H2  UNL     1     -39.044  -1.943  12.801  1.00  0.00     0.168 HD
HETATM   36  S1  UNL     1     -39.504   1.237  11.730  1.00  0.00    -0.051 SA
HETATM   37  C20 UNL     1     -38.408   2.229  14.210  1.00  0.00     0.119 A
BRANCH  34  38
HETATM   38  N1  UNL     1     -40.064  -1.137  10.481  1.00  0.00    -0.380 N
ATOM     39  H12 UNL     1     -40.415  -2.094  10.440  1.00  0.00     0.158 HD
ATOM     40  H11 UNL     1     -40.149  -0.821   9.514  1.00  0.00     0.158 HD
ENDBRANCH  34  38
ENDBRANCH  27  28
ENDBRANCH  26  27
ENDBRANCH  25  26
BRANCH  25  41
HETATM   41  O2  UNL     1     -38.029   5.294  16.956  1.00  0.00    -0.366 OA
ATOM     42  H2  UNL     1     -38.156   6.210  17.172  1.00  0.00     0.212 HD
ENDBRANCH  25  41
ENDBRANCH  24  25
BRANCH  24  43
HETATM   43  O3  UNL     1     -34.979   6.290  15.449  1.00  0.00    -0.366 OA
ATOM     44  H3  UNL     1     -34.784   7.186  15.696  1.00  0.00     0.212 HD
ENDBRANCH  24  43
BRANCH  24  45
HETATM   45  C8  UNL     1     -36.733   7.539  16.243  1.00  0.00     0.093 C
BRANCH  45  46
HETATM   46  C9  UNL     1     -35.561   8.384  16.569  1.00  0.00     0.234 C
BRANCH  46  47
HETATM   47  N4  UNL     1     -35.154   8.026  17.954  1.00  0.00    -0.079 N
ATOM     48  H43 UNL     1     -34.163   7.806  18.041  1.00  0.00     0.274 HD
ATOM     49  H42 UNL     1     -35.164   8.818  18.596  1.00  0.00     0.274 HD
ATOM     50  H41 UNL     1     -35.765   7.263  18.247  1.00  0.00     0.274 HD
ENDBRANCH  46  47
ENDBRANCH  45  46
ENDBRANCH  24  45
ENDBRANCH  21  24
ENDBRANCH   1  20
BRANCH  17  51
HETATM   51  N10 UNL     1     -39.803   7.853   9.375  1.00  0.00    -0.277 N
HETATM   52  C16 UNL     1     -40.549   7.440   8.212  1.00  0.00     0.197 C
HETATM   53  N11 UNL     1     -41.072   6.126   8.089  1.00  0.00    -0.063 NA
HETATM   54  N12 UNL     1     -40.705   8.353   7.297  1.00  0.00    -0.316 N
HETATM   55  C17 UNL     1     -40.129   9.660   7.528  1.00  0.00     0.430 C
ATOM     56  H12 UNL     1     -41.220   8.152   6.440  1.00  0.00     0.166 HD
HETATM   57  O5  UNL     1     -40.229  10.099   8.823  1.00  0.00    -0.316 OA
HETATM   58  C18 UNL     1     -39.717   9.224   9.770  1.00  0.00     0.260 C
BRANCH  55  59
HETATM   59  N13 UNL     1     -38.791   9.696   6.995  1.00  0.00    -0.035 N
ATOM     60 3H13 UNL     1     -38.095   9.397   7.679  1.00  0.00     0.279 HD
ATOM     61 2H13 UNL     1     -38.633   8.966   6.299  1.00  0.00     0.279 HD
ATOM     62 1H13 UNL     1     -38.596  10.627   6.627  1.00  0.00     0.279 HD
ENDBRANCH  55  59
BRANCH  58  63
HETATM   63  C19 UNL     1     -40.487   9.505  11.064  1.00  0.00     0.218 C
BRANCH  63  64
HETATM   64  O6  UNL     1     -41.806   9.860  10.814  1.00  0.00    -0.397 OA
ATOM     65  H6  UNL     1     -42.330   9.854  11.606  1.00  0.00     0.209 HD
ENDBRANCH  63  64
ENDBRANCH  58  63
ENDBRANCH  17  51
TORSDOF 16
ENDMDL