MODEL 1
REMARK VINA RESULT: -10.086375084      0.000      0.000
REMARK  16 active torsions:
REMARK  status: ('A' for Active; 'I' for Inactive)
REMARK    1  A    between atoms: C2_2  and  O1_3
REMARK    2  A    between atoms: C3_5  and  N1_6
REMARK       I    between atoms: N1_6  and  C4_8
REMARK    3  A    between atoms: C4_8  and  C5_10
REMARK    4  A    between atoms: C5_10  and  N2_11
REMARK    5  A    between atoms: C5_10  and  C6_15
REMARK    6  A    between atoms: N2_11  and  O3_13
REMARK    7  A    between atoms: C6_15  and  O4_16
REMARK    8  A    between atoms: C6_15  and  C7_18
REMARK    9  A    between atoms: C7_18  and  N3_19
REMARK   10  A    between atoms: C8_22  and  N5_23
REMARK   11  A    between atoms: C9_28  and  N7_29
REMARK   12  A    between atoms: C12_35  and  N8_36
REMARK   13  A    between atoms: N8_36  and  C13_38
REMARK   14  A    between atoms: C14_44  and  N11_45
REMARK   15  A    between atoms: C15_49  and  C16_50
REMARK   16  A    between atoms: C17_55  and  C18_56
ROOT
HETATM    1  C1  UNL     1     -35.757   8.784  17.749  1.00  0.00     0.073 C
HETATM    2  C2  UNL     1     -35.137   8.153  16.526  1.00  0.00     0.154 C
HETATM    3  C3  UNL     1     -34.549   9.117  15.541  1.00  0.00     0.172 C
HETATM    4  C10 UNL     1     -35.168   8.227  14.508  1.00  0.00     0.177 C
HETATM    5  S1  UNL     1     -36.234   9.158  13.384  1.00  0.00    -0.135 SA
HETATM    6  C11 UNL     1     -37.870   8.454  13.513  1.00  0.00     0.135 C
HETATM    7  C12 UNL     1     -37.918   7.175  14.259  1.00  0.00     0.052 C
HETATM    8  C17 UNL     1     -37.095   6.765  15.190  1.00  0.00     0.123 C
HETATM    9  N16 UNL     1     -35.969   7.589  15.543  1.00  0.00    -0.326 N
ENDROOT
BRANCH   3  10
HETATM   10  N1  UNL     1     -33.089   9.108  15.522  1.00  0.00    -0.344 N
HETATM   11  C4  UNL     1     -32.407  10.057  14.724  1.00  0.00     0.269 C
HETATM   12  O2  UNL     1     -33.006  10.905  14.034  1.00  0.00    -0.266 OA
ATOM     13  H1  UNL     1     -32.569   8.428  16.077  1.00  0.00     0.163 HD
BRANCH  11  14
HETATM   14  C5  UNL     1     -30.916  10.068  14.686  1.00  0.00     0.129 C
BRANCH  14  15
HETATM   15  N2  UNL     1     -30.337   9.097  14.119  1.00  0.00    -0.265 N
ATOM     16  H2  UNL     1     -30.056   9.207  13.144  1.00  0.00     0.194 HD
BRANCH  15  17
HETATM   17  O3  UNL     1     -30.069   7.919  14.734  1.00  0.00    -0.289 OA
ATOM     18  H3  UNL     1     -30.427   7.085  14.454  1.00  0.00     0.244 HD
ENDBRANCH  15  17
ENDBRANCH  14  15
BRANCH  14  19
HETATM   19  C6  UNL     1     -30.194  11.192  15.290  1.00  0.00     0.196 C
BRANCH  19  20
HETATM   20  O4  UNL     1     -31.168  11.872  16.085  1.00  0.00    -0.387 OA
ATOM     21  H4  UNL     1     -31.309  12.702  15.643  1.00  0.00     0.210 HD
ENDBRANCH  19  20
BRANCH  19  22
HETATM   22  C7  UNL     1     -29.612  12.226  14.412  1.00  0.00     0.206 C
BRANCH  22  23
HETATM   23  N3  UNL     1     -30.327  13.440  14.221  1.00  0.00    -0.106 N
HETATM   24  N4  UNL     1     -30.299  14.555  14.909  1.00  0.00    -0.115 N
HETATM   25  C8  UNL     1     -31.106  15.463  14.332  1.00  0.00     0.705 A
ATOM     26  H4  UNL     1     -29.750  14.710  15.754  1.00  0.00     0.206 HD
HETATM   27  N6  UNL     1     -31.643  14.881  13.253  1.00  0.00    -0.020 N
HETATM   28  C9  UNL     1     -31.177  13.641  13.170  1.00  0.00     0.707 A
ATOM     29  H6  UNL     1     -32.299  15.316  12.605  1.00  0.00     0.203 HD
BRANCH  25  30
HETATM   30  N5  UNL     1     -31.336  16.690  14.729  1.00  0.00    -0.233 N
ATOM     31  H52 UNL     1     -32.202  17.023  15.153  1.00  0.00     0.174 HD
ATOM     32  H51 UNL     1     -30.703  17.488  14.676  1.00  0.00     0.174 HD
ENDBRANCH  25  30
BRANCH  28  33
HETATM   33  N7  UNL     1     -31.497  12.788  12.237  1.00  0.00    -0.233 N
ATOM     34  H72 UNL     1     -30.828  12.313  11.631  1.00  0.00     0.174 HD
ATOM     35  H71 UNL     1     -32.433  12.476  11.979  1.00  0.00     0.174 HD
ENDBRANCH  28  33
ENDBRANCH  22  23
ENDBRANCH  19  22
ENDBRANCH  14  19
ENDBRANCH  11  14
ENDBRANCH   3  10
BRANCH   2  36
HETATM   36  O1  UNL     1     -34.190   7.184  16.952  1.00  0.00    -0.369 OA
ATOM     37  H1  UNL     1     -33.897   6.696  16.192  1.00  0.00     0.212 HD
ENDBRANCH   2  36
BRANCH   8  38
HETATM   38  C18 UNL     1     -37.213   5.464  15.889  1.00  0.00     0.283 C
HETATM   39  N15 UNL     1     -38.371   4.982  16.502  1.00  0.00    -0.056 NA
HETATM   40  O8  UNL     1     -36.177   4.717  15.941  1.00  0.00    -0.269 OA
ENDBRANCH   8  38
BRANCH   7  41
HETATM   41  N8  UNL     1     -39.028   6.313  13.908  1.00  0.00    -0.339 N
ATOM     42  H8  UNL     1     -39.735   6.053  14.595  1.00  0.00     0.167 HD
BRANCH  41  43
HETATM   43  C13 UNL     1     -39.085   5.885  12.688  1.00  0.00     0.177 A
HETATM   44  N9  UNL     1     -39.139   6.571  11.546  1.00  0.00    -0.222 N
HETATM   45  O5  UNL     1     -39.161   5.730  10.542  1.00  0.00    -0.153 OA
ATOM     46  H9  UNL     1     -39.159   7.588  11.467  1.00  0.00     0.198 HD
HETATM   47  N10 UNL     1     -39.126   4.510  10.984  1.00  0.00    -0.219 N
HETATM   48  C14 UNL     1     -39.077   4.541  12.345  1.00  0.00     0.211 A
ATOM     49  H10 UNL     1     -39.134   3.667  10.409  1.00  0.00     0.198 HD
BRANCH  48  50
HETATM   50  N11 UNL     1     -39.015   3.406  13.201  1.00  0.00    -0.156 N
HETATM   51  N12 UNL     1     -39.952   2.475  13.348  1.00  0.00     0.004 NA
HETATM   52  N13 UNL     1     -39.504   1.584  14.245  1.00  0.00    -0.261 N
HETATM   53  C15 UNL     1     -38.290   1.938  14.672  1.00  0.00     0.213 A
ATOM     54  H13 UNL     1     -40.016   0.758  14.555  1.00  0.00     0.186 HD
HETATM   55  N14 UNL     1     -38.002   3.075  14.012  1.00  0.00    -0.257 N
ATOM     56  H14 UNL     1     -37.138   3.607  14.114  1.00  0.00     0.190 HD
BRANCH  53  57
HETATM   57  C16 UNL     1     -37.444   1.243  15.657  1.00  0.00     0.247 C
HETATM   58  O6  UNL     1     -36.855   0.196  15.304  1.00  0.00    -0.642 OA
HETATM   59  O7  UNL     1     -37.292   1.711  16.933  1.00  0.00    -0.642 OA
ENDBRANCH  53  57
ENDBRANCH  48  50
ENDBRANCH  41  43
ENDBRANCH   7  41
TORSDOF 16
ENDMDL