MODEL 1
REMARK VINA RESULT: -8.168193818      0.000      0.000
REMARK  20 active torsions:
REMARK  status: ('A' for Active; 'I' for Inactive)
REMARK    1  A    between atoms: C2_2  and  C3_3
REMARK    2  A    between atoms: C3_3  and  O1_5
REMARK    3  A    between atoms: O1_5  and  C5_6
REMARK    4  A    between atoms: C5_6  and  O2_7
REMARK    5  A    between atoms: O2_7  and  C6_8
REMARK    6  A    between atoms: C8_10  and  N1_11
REMARK    7  A    between atoms: C9_15  and  O3_16
REMARK    8  A    between atoms: C12_21  and  O5_22
REMARK    9  A    between atoms: C13_24  and  O6_25
REMARK   10  A    between atoms: C14_27  and  O7_28
REMARK   11  A    between atoms: O7_28  and  C15_29
REMARK   12  A    between atoms: C16_30  and  N2_31
REMARK   13  A    between atoms: C18_36  and  N3_37
REMARK   14  A    between atoms: C19_41  and  O8_42
REMARK   15  A    between atoms: O8_42  and  C20_43
REMARK   16  A    between atoms: C21_45  and  N4_46
REMARK   17  A    between atoms: C22_51  and  C23_52
REMARK   18  A    between atoms: C23_52  and  N5_53
REMARK   19  A    between atoms: C24_58  and  O12_59
REMARK   20  A    between atoms: C25_61  and  O13_62
ROOT
HETATM    1  C15 UNL     1     -37.843   6.951  12.667  1.00  0.00     0.183 C
HETATM    2  C16 UNL     1     -38.362   7.337  11.303  1.00  0.00     0.217 C
HETATM    3  C17 UNL     1     -38.253   6.289  10.259  1.00  0.00     0.071 C
HETATM    4  C18 UNL     1     -38.903   5.008  10.654  1.00  0.00     0.217 C
HETATM    5  C19 UNL     1     -39.061   4.778  12.111  1.00  0.00     0.188 C
HETATM    6  C24 UNL     1     -38.120   5.513  13.001  1.00  0.00     0.180 C
ENDROOT
BRANCH   1   7
HETATM    7  O7  UNL     1     -36.488   7.111  12.803  1.00  0.00    -0.370 OA
BRANCH   7   8
HETATM    8  C14 UNL     1     -35.985   7.977  13.704  1.00  0.00     0.187 C
HETATM    9  C13 UNL     1     -36.484   9.343  13.758  1.00  0.00     0.184 C
HETATM   10  C12 UNL     1     -35.356  10.178  14.319  1.00  0.00     0.214 C
HETATM   11  C5  UNL     1     -34.278   9.164  14.742  1.00  0.00     0.225 C
HETATM   12  C25 UNL     1     -34.464   8.182  13.551  1.00  0.00     0.215 C
BRANCH   9  13
HETATM   13  O6  UNL     1     -36.804   9.925  12.533  1.00  0.00    -0.390 OA
ATOM     14  H6  UNL     1     -37.691   9.644  12.343  1.00  0.00     0.210 HD
ENDBRANCH   9  13
BRANCH  10  15
HETATM   15  O5  UNL     1     -34.742  10.940  13.288  1.00  0.00    -0.387 OA
ATOM     16  H5  UNL     1     -35.446  11.127  12.679  1.00  0.00     0.210 HD
ENDBRANCH  10  15
BRANCH  11  17
HETATM   17  O1  UNL     1     -34.701   8.508  15.831  1.00  0.00    -0.342 OA
BRANCH  17  18
HETATM   18  C3  UNL     1     -35.423   9.116  16.806  1.00  0.00     0.143 C
HETATM   19  C4  UNL     1     -36.443   8.028  17.304  1.00  0.00     0.044 C
BRANCH  18  20
HETATM   20  C2  UNL     1     -34.581   9.313  18.023  1.00  0.00    -0.006 C
HETATM   21  C1  UNL     1     -34.933   9.744  19.184  1.00  0.00     0.009 C
ENDBRANCH  18  20
ENDBRANCH  17  18
ENDBRANCH  11  17
BRANCH  11  22
HETATM   22  O2  UNL     1     -33.093   9.779  14.671  1.00  0.00    -0.320 OA
BRANCH  22  23
HETATM   23  C6  UNL     1     -32.014   9.322  15.394  1.00  0.00     0.266 C
HETATM   24  C7  UNL     1     -31.114  10.480  15.667  1.00  0.00     0.096 C
HETATM   25  C8  UNL     1     -29.664  10.191  15.798  1.00  0.00     0.219 C
HETATM   26  C9  UNL     1     -29.231   8.854  15.305  1.00  0.00     0.177 C
HETATM   27  C10 UNL     1     -30.203   8.400  14.206  1.00  0.00     0.151 C
HETATM   28  C11 UNL     1     -30.030   9.173  12.930  1.00  0.00     0.042 C
HETATM   29  O4  UNL     1     -31.474   8.290  14.642  1.00  0.00    -0.354 OA
BRANCH  25  30
HETATM   30  N1  UNL     1     -29.230  10.295  17.198  1.00  0.00    -0.072 N
ATOM     31  H13 UNL     1     -28.679  11.138  17.360  1.00  0.00     0.274 HD
ATOM     32  H12 UNL     1     -30.012  10.499  17.820  1.00  0.00     0.274 HD
ATOM     33  H11 UNL     1     -28.728   9.456  17.488  1.00  0.00     0.274 HD
ENDBRANCH  25  30
BRANCH  26  34
HETATM   34  O3  UNL     1     -27.946   8.836  14.791  1.00  0.00    -0.391 OA
ATOM     35  H3  UNL     1     -27.597   7.962  14.658  1.00  0.00     0.210 HD
ENDBRANCH  26  34
ENDBRANCH  22  23
ENDBRANCH  11  22
BRANCH  12  36
HETATM   36  O13 UNL     1     -33.902   6.953  13.864  1.00  0.00    -0.387 OA
ATOM     37  H13 UNL     1     -33.025   6.899  13.502  1.00  0.00     0.210 HD
ENDBRANCH  12  36
ENDBRANCH   7   8
ENDBRANCH   1   7
BRANCH   2  38
HETATM   38  N2  UNL     1     -39.722   7.885  11.404  1.00  0.00    -0.072 N
ATOM     39  H23 UNL     1     -40.363   7.228  11.850  1.00  0.00     0.274 HD
ATOM     40  H22 UNL     1     -39.777   8.640  12.088  1.00  0.00     0.274 HD
ATOM     41  H21 UNL     1     -40.059   8.179  10.487  1.00  0.00     0.274 HD
ENDBRANCH   2  38
BRANCH   6  42
HETATM   42  O12 UNL     1     -36.912   4.762  12.959  1.00  0.00    -0.390 OA
ATOM     43  H12 UNL     1     -37.003   3.972  13.478  1.00  0.00     0.210 HD
ENDBRANCH   6  42
BRANCH   5  44
HETATM   44  O8  UNL     1     -38.804   3.392  12.304  1.00  0.00    -0.329 OA
BRANCH  44  45
HETATM   45  C20 UNL     1     -39.912   2.671  12.651  1.00  0.00     0.419 C
HETATM   46  O9  UNL     1     -40.265   1.866  11.567  1.00  0.00    -0.284 OA
HETATM   47  C21 UNL     1     -39.388   0.818  11.374  1.00  0.00     0.472 C
HETATM   48  O10 UNL     1     -39.266   0.063  12.516  1.00  0.00    -0.306 OA
HETATM   49  C22 UNL     1     -38.908   0.822  13.625  1.00  0.00     0.295 C
HETATM   50  O11 UNL     1     -39.670   1.950  13.795  1.00  0.00    -0.306 OA
BRANCH  47  51
HETATM   51  N4  UNL     1     -39.919  -0.036  10.321  1.00  0.00    -0.029 N
ATOM     52  H43 UNL     1     -40.711  -0.598  10.633  1.00  0.00     0.280 HD
ATOM     53  H42 UNL     1     -40.401   0.492   9.593  1.00  0.00     0.280 HD
ATOM     54  H41 UNL     1     -39.155  -0.604   9.953  1.00  0.00     0.280 HD
ENDBRANCH  47  51
BRANCH  49  55
HETATM   55  C23 UNL     1     -38.931  -0.083  14.844  1.00  0.00     0.290 C
BRANCH  55  56
HETATM   56  N5  UNL     1     -39.289   0.633  16.039  1.00  0.00    -0.075 N
ATOM     57  H53 UNL     1     -39.025   1.616  15.975  1.00  0.00     0.274 HD
ATOM     58  H52 UNL     1     -40.300   0.742  16.116  1.00  0.00     0.274 HD
ATOM     59  H51 UNL     1     -38.899   0.199  16.875  1.00  0.00     0.274 HD
ENDBRANCH  55  56
ENDBRANCH  49  55
ENDBRANCH  44  45
ENDBRANCH   5  44
BRANCH   4  60
HETATM   60  N3  UNL     1     -38.177   3.939   9.980  1.00  0.00    -0.072 N
ATOM     61  H33 UNL     1     -37.384   4.275   9.433  1.00  0.00     0.274 HD
ATOM     62  H32 UNL     1     -37.650   3.345  10.620  1.00  0.00     0.274 HD
ATOM     63  H31 UNL     1     -38.859   3.422   9.424  1.00  0.00     0.274 HD
ENDBRANCH   4  60
TORSDOF 20
ENDMDL