MODEL 5
REMARK VINA RESULT: -9.275398413      2.626      3.190
REMARK  19 active torsions:
REMARK  status: ('A' for Active; 'I' for Inactive)
REMARK    1  A    between atoms: N1_2  and  C2_3
REMARK    2  A    between atoms: N1_2  and  C22_46
REMARK    3  A    between atoms: C2_3  and  C3_4
REMARK    4  A    between atoms: C3_4  and  O1_5
REMARK    5  A    between atoms: C3_4  and  N2_7
REMARK    6  A    between atoms: N2_7  and  C4_9
REMARK    7  A    between atoms: N3_11  and  N4_12
REMARK    8  A    between atoms: N4_12  and  C6_14
REMARK    9  A    between atoms: C6_14  and  C7_15
REMARK   10  A    between atoms: C7_15  and  O2_16
REMARK   11  A    between atoms: C15_30  and  N8_31
REMARK   12  A    between atoms: C18_34  and  O5_35
REMARK   13  A    between atoms: C19_37  and  O6_38
REMARK   14  A    between atoms: C20_40  and  O7_41
REMARK   15  A    between atoms: C22_46  and  O8_47
REMARK   16  A    between atoms: C22_46  and  C23_49
REMARK   17  A    between atoms: C23_49  and  O9_50
REMARK   18  A    between atoms: C23_49  and  C24_52
REMARK   19  A    between atoms: C24_52  and  O10_53
ROOT
HETATM    1  C6  UNL     1     -41.322   5.128   7.654  1.00  0.00     0.081 C
HETATM    2  C8  UNL     1     -41.146   4.902   6.371  1.00  0.00     0.150 C
HETATM    3  C9  UNL     1     -40.360   5.838   5.622  1.00  0.00     0.113 C
HETATM    4  N5  UNL     1     -39.719   6.579   5.008  1.00  0.00    -0.191 NA
HETATM    5  C10 UNL     1     -41.717   3.754   5.716  1.00  0.00     0.113 C
HETATM    6  N6  UNL     1     -42.193   2.827   5.202  1.00  0.00    -0.191 NA
ENDROOT
BRANCH   1   7
HETATM    7  N4  UNL     1     -40.753   6.257   8.275  1.00  0.00    -0.291 N
ATOM      8  H4  UNL     1     -40.916   7.172   7.855  1.00  0.00     0.187 HD
BRANCH   7   9
HETATM    9  N3  UNL     1     -39.977   6.194   9.435  1.00  0.00    -0.229 N
HETATM   10  C5  UNL     1     -39.669   4.985   9.934  1.00  0.00     0.151 A
HETATM   11  C4  UNL     1     -38.901   4.838  11.083  1.00  0.00     0.076 A
HETATM   12  C21 UNL     1     -38.438   5.992  11.731  1.00  0.00     0.098 A
HETATM   13  C12 UNL     1     -38.757   7.228  11.212  1.00  0.00     0.132 A
HETATM   14  N9  UNL     1     -37.704   5.935  12.819  1.00  0.00    -0.188 N
HETATM   15  C11 UNL     1     -39.518   7.277  10.079  1.00  0.00     0.284 A
HETATM   16  C13 UNL     1     -38.272   8.318  11.889  1.00  0.00     0.279 A
HETATM   17  O3  UNL     1     -39.802   8.414   9.616  1.00  0.00    -0.265 OA
HETATM   18  O4  UNL     1     -38.548   9.462  11.441  1.00  0.00    -0.266 OA
HETATM   19  N7  UNL     1     -37.510   8.213  13.021  1.00  0.00    -0.151 N
HETATM   20  C14 UNL     1     -37.027   9.452  13.643  1.00  0.00     0.179 C
HETATM   21  C15 UNL     1     -37.205   7.020  13.518  1.00  0.00     0.687 A
ATOM     22  H9  UNL     1     -37.482   5.008  13.182  1.00  0.00     0.184 HD
BRANCH  11  23
HETATM   23  N2  UNL     1     -38.568   3.569  11.630  1.00  0.00    -0.359 N
ATOM     24  H2  UNL     1     -38.120   2.884  11.020  1.00  0.00     0.162 HD
BRANCH  23  25
HETATM   25  C3  UNL     1     -38.825   3.200  12.982  1.00  0.00     0.235 C
BRANCH  25  26
HETATM   26  C2  UNL     1     -39.790   2.019  13.045  1.00  0.00     0.172 C
BRANCH  26  27
HETATM   27  N1  UNL     1     -39.148   0.766  13.189  1.00  0.00    -0.386 N
HETATM   28  C1  UNL     1     -39.176   0.198  14.466  1.00  0.00     0.146 C
BRANCH  27  29
HETATM   29  C22 UNL     1     -38.860   0.001  12.056  1.00  0.00     0.246 C
BRANCH  29  30
HETATM   30  O8  UNL     1     -37.616   0.396  11.503  1.00  0.00    -0.374 OA
ATOM     31  H8  UNL     1     -37.075  -0.367  11.334  1.00  0.00     0.212 HD
ENDBRANCH  29  30
BRANCH  29  32
HETATM   32  C23 UNL     1     -39.836   0.014  10.931  1.00  0.00     0.190 C
BRANCH  32  33
HETATM   33  O9  UNL     1     -40.283  -1.222  10.528  1.00  0.00    -0.389 OA
ATOM     34  H9  UNL     1     -39.691  -1.944  10.703  1.00  0.00     0.210 HD
ENDBRANCH  32  33
BRANCH  32  35
HETATM   35  C24 UNL     1     -39.089   0.607   9.725  1.00  0.00     0.200 C
BRANCH  35  36
HETATM   36  O10 UNL     1     -38.790  -0.455   8.850  1.00  0.00    -0.398 OA
ATOM     37  H10 UNL     1     -39.556  -0.600   8.308  1.00  0.00     0.209 HD
ENDBRANCH  35  36
ENDBRANCH  32  35
ENDBRANCH  29  32
ENDBRANCH  27  29
ENDBRANCH  26  27
ENDBRANCH  25  26
BRANCH  25  38
HETATM   38  O1  UNL     1     -37.673   2.818  13.669  1.00  0.00    -0.375 OA
ATOM     39  H1  UNL     1     -36.953   3.313  13.298  1.00  0.00     0.212 HD
ENDBRANCH  25  38
ENDBRANCH  23  25
ENDBRANCH  11  23
BRANCH  21  40
HETATM   40  N8  UNL     1     -36.468   6.758  14.691  1.00  0.00    -0.188 N
HETATM   41  C16 UNL     1     -35.152   6.069  14.449  1.00  0.00     0.147 C
HETATM   42  C17 UNL     1     -35.399   4.665  14.963  1.00  0.00     0.055 C
HETATM   43  C18 UNL     1     -35.941   4.625  16.354  1.00  0.00     0.152 C
HETATM   44  C19 UNL     1     -37.077   5.555  16.625  1.00  0.00     0.196 C
HETATM   45  C20 UNL     1     -36.714   6.951  16.065  1.00  0.00     0.268 C
BRANCH  43  46
HETATM   46  O5  UNL     1     -36.405   3.307  16.576  1.00  0.00    -0.393 OA
ATOM     47  H5  UNL     1     -36.192   2.805  15.798  1.00  0.00     0.210 HD
ENDBRANCH  43  46
BRANCH  44  48
HETATM   48  O6  UNL     1     -37.193   5.691  18.004  1.00  0.00    -0.389 OA
ATOM     49  H6  UNL     1     -37.726   4.971  18.322  1.00  0.00     0.210 HD
ENDBRANCH  44  48
BRANCH  45  50
HETATM   50  O7  UNL     1     -35.431   7.241  16.663  1.00  0.00    -0.373 OA
ATOM     51  H7  UNL     1     -35.247   6.519  17.252  1.00  0.00     0.212 HD
ENDBRANCH  45  50
ENDBRANCH  21  40
ENDBRANCH   7   9
ENDBRANCH   1   7
BRANCH   1  52
HETATM   52  C7  UNL     1     -42.134   4.169   8.436  1.00  0.00     0.224 C
BRANCH  52  53
HETATM   53  O2  UNL     1     -43.461   4.185   8.030  1.00  0.00    -0.395 OA
ATOM     54  H2  UNL     1     -44.038   3.890   8.724  1.00  0.00     0.209 HD
ENDBRANCH  52  53
ENDBRANCH   1  52
TORSDOF 19
ENDMDL