MODEL 2
REMARK VINA RESULT: -8.536224162      6.081      8.139
REMARK  18 active torsions:
REMARK  status: ('A' for Active; 'I' for Inactive)
REMARK    1  A    between atoms: S1_2  and  C2_3
REMARK    2  A    between atoms: C4_10  and  N4_11
REMARK       I    between atoms: N4_11  and  C5_13
REMARK    3  A    between atoms: C5_13  and  C6_15
REMARK    4  A    between atoms: C6_15  and  O2_16
REMARK    5  A    between atoms: C6_15  and  C7_18
REMARK    6  A    between atoms: C7_18  and  O3_19
REMARK    7  A    between atoms: C8_21  and  C9_22
REMARK    8  A    between atoms: C10_27  and  O5_28
REMARK    9  A    between atoms: N7_31  and  C12_32
REMARK   10  A    between atoms: C13_34  and  C14_35
REMARK   11  A    between atoms: C15_38  and  O8_39
REMARK   12  A    between atoms: C16_41  and  O9_42
REMARK   13  A    between atoms: O9_42  and  C17_43
REMARK   14  A    between atoms: C17_43  and  C18_44
REMARK   15  A    between atoms: C18_44  and  O10_45
REMARK   16  A    between atoms: C18_44  and  C19_47
REMARK   17  A    between atoms: C19_47  and  O11_48
REMARK   18  A    between atoms: C20_50  and  O12_51
ROOT
HETATM    1  C2  UNL     1     -36.476   7.116  16.784  1.00  0.00     0.132 A
HETATM    2  N1  UNL     1     -36.841   6.035  17.495  1.00  0.00    -0.276 N
ATOM      3  H1  UNL     1     -36.734   5.953  18.506  1.00  0.00     0.189 HD
HETATM    4  N2  UNL     1     -37.354   5.094  16.727  1.00  0.00    -0.233 N
ATOM      5  H2  UNL     1     -37.703   4.183  17.025  1.00  0.00     0.209 HD
HETATM    6  N3  UNL     1     -37.325   5.568  15.490  1.00  0.00    -0.218 N
HETATM    7  C3  UNL     1     -37.641   5.254  14.222  1.00  0.00     0.120 A
HETATM    8  C4  UNL     1     -38.209   4.110  13.682  1.00  0.00     0.098 A
HETATM    9  C8  UNL     1     -38.421   4.066  12.336  1.00  0.00     0.129 A
HETATM   10  N6  UNL     1     -38.071   5.138  11.558  1.00  0.00    -0.329 N
ATOM     11  H6  UNL     1     -38.229   5.102  10.551  1.00  0.00     0.168 HD
HETATM   12  C10 UNL     1     -37.528   6.220  12.095  1.00  0.00     0.171 A
HETATM   13  C11 UNL     1     -37.285   6.336  13.446  1.00  0.00     0.121 A
HETATM   14  N7  UNL     1     -36.757   7.308  14.217  1.00  0.00    -0.293 N
HETATM   15  C21 UNL     1     -36.796   6.804  15.479  1.00  0.00     0.169 A
ENDROOT
BRANCH  14  16
HETATM   16  C12 UNL     1     -36.257   8.601  13.805  1.00  0.00     0.262 C
HETATM   17  O6  UNL     1     -34.996   8.898  14.322  1.00  0.00    -0.347 OA
HETATM   18  C13 UNL     1     -34.316   9.807  13.554  1.00  0.00     0.244 C
HETATM   19  C15 UNL     1     -35.261  10.831  12.942  1.00  0.00     0.187 C
HETATM   20  C16 UNL     1     -36.475  11.039  13.837  1.00  0.00     0.186 C
HETATM   21  C20 UNL     1     -37.243   9.707  13.859  1.00  0.00     0.199 C
BRANCH  18  22
HETATM   22  C14 UNL     1     -33.247  10.424  14.361  1.00  0.00     0.262 C
HETATM   23  N8  UNL     1     -32.015  10.804  13.800  1.00  0.00    -0.060 NA
HETATM   24  O7  UNL     1     -33.443  10.617  15.580  1.00  0.00    -0.274 OA
ENDBRANCH  18  22
BRANCH  19  25
HETATM   25  O8  UNL     1     -34.539  11.988  12.777  1.00  0.00    -0.390 OA
ATOM     26  H8  UNL     1     -34.988  12.499  12.113  1.00  0.00     0.210 HD
ENDBRANCH  19  25
BRANCH  20  27
HETATM   27  O9  UNL     1     -37.299  11.956  13.290  1.00  0.00    -0.378 OA
BRANCH  27  28
HETATM   28  C17 UNL     1     -37.534  13.139  13.886  1.00  0.00     0.202 C
BRANCH  28  29
HETATM   29  C18 UNL     1     -38.337  14.162  13.169  1.00  0.00     0.165 C
BRANCH  29  30
HETATM   30  O10 UNL     1     -38.734  15.255  13.927  1.00  0.00    -0.391 OA
ATOM     31  H10 UNL     1     -39.143  15.963  13.445  1.00  0.00     0.210 HD
ENDBRANCH  29  30
BRANCH  29  32
HETATM   32  C19 UNL     1     -37.428  14.742  12.071  1.00  0.00     0.198 C
BRANCH  32  33
HETATM   33  O11 UNL     1     -36.093  14.476  12.337  1.00  0.00    -0.398 OA
ATOM     34  H11 UNL     1     -35.524  14.965  11.753  1.00  0.00     0.209 HD
ENDBRANCH  32  33
ENDBRANCH  29  32
ENDBRANCH  28  29
ENDBRANCH  27  28
ENDBRANCH  20  27
BRANCH  21  35
HETATM   35  O12 UNL     1     -38.032   9.637  12.686  1.00  0.00    -0.388 OA
ATOM     36  H12 UNL     1     -38.181  10.526  12.385  1.00  0.00     0.210 HD
ENDBRANCH  21  35
ENDBRANCH  14  16
BRANCH  12  37
HETATM   37  O5  UNL     1     -37.196   7.268  11.255  1.00  0.00    -0.344 OA
ATOM     38  H5  UNL     1     -36.553   7.111  10.573  1.00  0.00     0.219 HD
ENDBRANCH  12  37
BRANCH   1  39
HETATM   39  S1  UNL     1     -35.737   8.625  17.431  1.00  0.00    -0.112 SA
HETATM   40  C1  UNL     1     -35.999   8.696  19.203  1.00  0.00     0.097 C
ENDBRANCH   1  39
BRANCH   8  41
HETATM   41  N4  UNL     1     -38.537   3.065  14.552  1.00  0.00    -0.321 N
HETATM   42  C5  UNL     1     -37.662   2.055  14.979  1.00  0.00     0.253 C
HETATM   43  O1  UNL     1     -36.481   2.041  14.574  1.00  0.00    -0.270 OA
ATOM     44  H4  UNL     1     -39.494   3.034  14.905  1.00  0.00     0.169 HD
BRANCH  42  45
HETATM   45  C6  UNL     1     -38.119   1.007  15.907  1.00  0.00     0.233 C
BRANCH  45  46
HETATM   46  O2  UNL     1     -39.532   0.986  15.974  1.00  0.00    -0.384 OA
ATOM     47  H2  UNL     1     -39.898   1.741  15.528  1.00  0.00     0.210 HD
ENDBRANCH  45  46
BRANCH  45  48
HETATM   48  C7  UNL     1     -37.606  -0.358  15.591  1.00  0.00     0.205 C
BRANCH  48  49
HETATM   49  O3  UNL     1     -36.382  -0.636  16.144  1.00  0.00    -0.398 OA
ATOM     50  H3  UNL     1     -36.360  -1.440  16.650  1.00  0.00     0.209 HD
ENDBRANCH  48  49
ENDBRANCH  45  48
ENDBRANCH  42  45
ENDBRANCH   8  41
BRANCH   9  51
HETATM   51  C9  UNL     1     -39.032   2.902  11.732  1.00  0.00     0.283 C
HETATM   52  N5  UNL     1     -40.311   2.496  12.150  1.00  0.00    -0.056 NA
HETATM   53  O4  UNL     1     -38.438   2.265  10.851  1.00  0.00    -0.269 OA
ENDBRANCH   9  51
TORSDOF 18
ENDMDL