MODEL 4
REMARK VINA RESULT: -9.290011737      4.439      8.991
REMARK  17 active torsions:
REMARK  status: ('A' for Active; 'I' for Inactive)
REMARK    1  A    between atoms: N1_1  and  C1_4
REMARK    2  A    between atoms: C2_7  and  N3_8
REMARK    3  A    between atoms: C3_11  and  C4_12
REMARK    4  A    between atoms: C4_12  and  C5_13
REMARK    5  A    between atoms: C4_12  and  O5_17
REMARK    6  A    between atoms: C5_13  and  C6_14
REMARK    7  A    between atoms: O5_17  and  C7_18
REMARK    8  A    between atoms: N6_22  and  C9_23
REMARK    9  A    between atoms: C9_23  and  C10_24
REMARK   10  A    between atoms: C10_24  and  O6_25
REMARK   11  A    between atoms: C10_24  and  N7_27
REMARK   12  A    between atoms: C12_29  and  C13_30
REMARK   13  A    between atoms: C13_30  and  O7_31
REMARK   14  A    between atoms: C15_35  and  O9_36
REMARK   15  A    between atoms: C16_38  and  O10_39
REMARK   16  A    between atoms: C17_41  and  O11_42
REMARK   17  A    between atoms: C19_48  and  O13_49
ROOT
HETATM    1  C7  UNL     1     -36.702   5.026  16.056  1.00  0.00     0.182 C
HETATM    2  C8  UNL     1     -35.316   4.458  15.801  1.00  0.00     0.167 C
HETATM    3  N4  UNL     1     -35.265   3.596  14.646  1.00  0.00    -0.129 NA
HETATM    4  N5  UNL     1     -36.332   3.878  13.817  1.00  0.00    -0.054 NA
HETATM    5  N6  UNL     1     -37.536   3.517  14.341  1.00  0.00    -0.183 NA
HETATM    6  C19 UNL     1     -37.649   3.864  15.725  1.00  0.00     0.240 C
ENDROOT
BRANCH   5   7
HETATM    7  C9  UNL     1     -38.671   3.941  13.548  1.00  0.00     0.169 C
BRANCH   7   8
HETATM    8  C10 UNL     1     -38.242   4.682  12.305  1.00  0.00     0.254 C
BRANCH   8   9
HETATM    9  O6  UNL     1     -38.275   6.044  12.582  1.00  0.00    -0.374 OA
ATOM     10  H6  UNL     1     -38.553   6.497  11.795  1.00  0.00     0.212 HD
ENDBRANCH   8   9
BRANCH   8  11
HETATM   11  N7  UNL     1     -39.132   4.445  11.180  1.00  0.00    -0.269 N
HETATM   12  C11 UNL     1     -39.520   5.350  10.257  1.00  0.00     0.131 A
HETATM   13  C12 UNL     1     -40.359   4.744   9.352  1.00  0.00     0.092 A
HETATM   14  C18 UNL     1     -40.441   3.441   9.790  1.00  0.00     0.273 A
HETATM   15  O12 UNL     1     -41.102   2.522   9.266  1.00  0.00    -0.266 OA
HETATM   16  N8  UNL     1     -39.692   3.296  10.892  1.00  0.00    -0.262 N
ATOM     17  H8  UNL     1     -39.578   2.431  11.421  1.00  0.00     0.190 HD
BRANCH  13  18
HETATM   18  C13 UNL     1     -41.020   5.343   8.168  1.00  0.00     0.227 C
HETATM   19  O8  UNL     1     -41.082   6.693   8.366  1.00  0.00    -0.346 OA
HETATM   20  C14 UNL     1     -40.511   7.493   7.420  1.00  0.00     0.206 C
HETATM   21  C15 UNL     1     -40.936   7.182   6.011  1.00  0.00     0.173 C
HETATM   22  C16 UNL     1     -41.083   5.712   5.763  1.00  0.00     0.183 C
HETATM   23  C17 UNL     1     -40.349   4.970   6.879  1.00  0.00     0.217 C
BRANCH  18  24
HETATM   24  O7  UNL     1     -42.360   4.895   8.067  1.00  0.00    -0.359 OA
ATOM     25  H7  UNL     1     -42.581   4.339   8.804  1.00  0.00     0.213 HD
ENDBRANCH  18  24
BRANCH  21  26
HETATM   26  O9  UNL     1     -42.109   7.891   5.699  1.00  0.00    -0.391 OA
ATOM     27  H9  UNL     1     -42.113   8.724   6.155  1.00  0.00     0.210 HD
ENDBRANCH  21  26
BRANCH  22  28
HETATM   28  O10 UNL     1     -40.683   5.310   4.512  1.00  0.00    -0.390 OA
ATOM     29  H10 UNL     1     -40.953   4.429   4.282  1.00  0.00     0.210 HD
ENDBRANCH  22  28
BRANCH  23  30
HETATM   30  O11 UNL     1     -38.992   5.214   6.869  1.00  0.00    -0.387 OA
ATOM     31  H11 UNL     1     -38.581   5.054   6.027  1.00  0.00     0.210 HD
ENDBRANCH  23  30
ENDBRANCH  13  18
ENDBRANCH   8  11
ENDBRANCH   7   8
ENDBRANCH   5   7
BRANCH   6  32
HETATM   32  O13 UNL     1     -37.360   2.737  16.485  1.00  0.00    -0.377 OA
ATOM     33  H13 UNL     1     -37.939   2.014  16.272  1.00  0.00     0.211 HD
ENDBRANCH   6  32
BRANCH   1  34
HETATM   34  O5  UNL     1     -36.881   6.119  15.328  1.00  0.00    -0.369 OA
BRANCH  34  35
HETATM   35  C4  UNL     1     -36.498   7.378  15.729  1.00  0.00     0.176 C
BRANCH  35  36
HETATM   36  C3  UNL     1     -35.433   7.973  14.896  1.00  0.00     0.066 A
HETATM   37  C2  UNL     1     -35.450   8.734  13.775  1.00  0.00     0.191 A
HETATM   38  N2  UNL     1     -34.295   9.040  13.210  1.00  0.00    -0.317 N
HETATM   39  C1  UNL     1     -33.172   8.588  13.769  1.00  0.00     0.144 A
ATOM     40  H2  UNL     1     -34.262   9.609  12.364  1.00  0.00     0.169 HD
HETATM   41  S1  UNL     1     -33.735   7.720  15.109  1.00  0.00    -0.052 SA
BRANCH  37  42
HETATM   42  N3  UNL     1     -36.674   9.289  13.193  1.00  0.00    -0.097 N
HETATM   43  O1  UNL     1     -37.432   8.608  12.484  1.00  0.00    -0.530 OA
HETATM   44  O2  UNL     1     -37.030  10.575  13.404  1.00  0.00    -0.530 OA
ENDBRANCH  37  42
BRANCH  39  45
HETATM   45  N1  UNL     1     -31.935   8.793  13.348  1.00  0.00    -0.380 N
ATOM     46  H12 UNL     1     -31.586   8.997  12.412  1.00  0.00     0.158 HD
ATOM     47  H11 UNL     1     -31.085   8.779  13.911  1.00  0.00     0.158 HD
ENDBRANCH  39  45
ENDBRANCH  35  36
BRANCH  35  48
HETATM   48  C5  UNL     1     -35.988   7.265  17.189  1.00  0.00     0.150 C
BRANCH  48  49
HETATM   49  C6  UNL     1     -36.667   8.114  18.140  1.00  0.00     0.175 C
HETATM   50  O3  UNL     1     -37.752   7.667  18.656  1.00  0.00    -0.648 OA
HETATM   51  O4  UNL     1     -36.286   9.362  18.571  1.00  0.00    -0.648 OA
ENDBRANCH  48  49
ENDBRANCH  35  48
ENDBRANCH  34  35
ENDBRANCH   1  34
TORSDOF 17
ENDMDL