MODEL 3
REMARK VINA RESULT: -9.020939307      3.184      7.533
REMARK  19 active torsions:
REMARK  status: ('A' for Active; 'I' for Inactive)
REMARK    1  A    between atoms: N1_2  and  C2_3
REMARK    2  A    between atoms: N1_2  and  C16_47
REMARK    3  A    between atoms: C3_6  and  N3_7
REMARK    4  A    between atoms: N3_7  and  C4_8
REMARK    5  A    between atoms: N3_7  and  C6_12
REMARK    6  A    between atoms: C4_8  and  C5_9
REMARK    7  A    between atoms: C5_9  and  O1_10
REMARK    8  A    between atoms: C6_12  and  C7_13
REMARK    9  A    between atoms: C7_13  and  O2_14
REMARK   10  A    between atoms: N5_20  and  C10_21
REMARK   11  A    between atoms: C10_21  and  O3_22
REMARK   12  A    between atoms: C11_24  and  O4_25
REMARK   13  A    between atoms: C12_27  and  N6_28
REMARK   14  A    between atoms: C13_32  and  O5_33
REMARK   15  A    between atoms: C14_35  and  N7_36
REMARK   16  A    between atoms: N7_36  and  S1_38
REMARK   17  A    between atoms: S1_38  and  N8_39
REMARK   18  A    between atoms: C18_49  and  N10_50
REMARK   19  A    between atoms: C19_53  and  N11_54
ROOT
HETATM    1  C2  UNL     1     -39.110   1.738  10.550  1.00  0.00     0.688 A
HETATM    2  N2  UNL     1     -39.804   2.352   9.538  1.00  0.00    -0.174 N
ATOM      3  H2  UNL     1     -40.212   1.782   8.797  1.00  0.00     0.186 HD
HETATM    4  C3  UNL     1     -39.959   3.690   9.499  1.00  0.00     0.150 A
HETATM    5  C8  UNL     1     -39.395   4.425  10.508  1.00  0.00     0.123 A
HETATM    6  N4  UNL     1     -39.335   5.725  10.792  1.00  0.00    -0.346 N
ATOM      7  H4  UNL     1     -39.759   6.461  10.227  1.00  0.00     0.167 HD
HETATM    8  C9  UNL     1     -38.654   5.934  11.901  1.00  0.00     0.188 A
HETATM    9  N5  UNL     1     -38.236   4.724  12.386  1.00  0.00    -0.289 N
HETATM   10  C15 UNL     1     -38.685   3.801  11.541  1.00  0.00     0.157 A
HETATM   11  N9  UNL     1     -38.563   2.477  11.533  1.00  0.00    -0.173 N
ATOM     12  H9  UNL     1     -38.047   2.015  12.282  1.00  0.00     0.186 HD
ENDROOT
BRANCH   9  13
HETATM   13  C10 UNL     1     -37.466   4.640  13.576  1.00  0.00     0.192 C
HETATM   14  C11 UNL     1     -37.580   5.848  14.496  1.00  0.00     0.209 C
HETATM   15  C12 UNL     1     -36.714   5.363  15.662  1.00  0.00     0.247 C
HETATM   16  C13 UNL     1     -36.850   3.874  15.693  1.00  0.00     0.179 C
HETATM   17  C14 UNL     1     -37.775   3.536  14.511  1.00  0.00     0.184 C
BRANCH  13  18
HETATM   18  O3  UNL     1     -36.076   4.553  13.300  1.00  0.00    -0.366 OA
ATOM     19  H3  UNL     1     -35.558   5.021  13.944  1.00  0.00     0.212 HD
ENDBRANCH  13  18
BRANCH  14  20
HETATM   20  O4  UNL     1     -38.879   6.032  14.953  1.00  0.00    -0.388 OA
ATOM     21  H4  UNL     1     -39.228   6.877  14.698  1.00  0.00     0.210 HD
ENDBRANCH  14  20
BRANCH  15  22
HETATM   22  N6  UNL     1     -37.159   5.993  16.869  1.00  0.00    -0.070 N
ATOM     23  H63 UNL     1     -38.159   6.196  16.855  1.00  0.00     0.274 HD
ATOM     24  H62 UNL     1     -37.154   5.355  17.665  1.00  0.00     0.274 HD
ATOM     25  H61 UNL     1     -36.596   6.826  17.037  1.00  0.00     0.274 HD
ENDBRANCH  15  22
BRANCH  16  26
HETATM   26  O5  UNL     1     -37.403   3.411  16.885  1.00  0.00    -0.391 OA
ATOM     27  H5  UNL     1     -37.338   2.468  16.976  1.00  0.00     0.210 HD
ENDBRANCH  16  26
BRANCH  17  28
HETATM   28  N7  UNL     1     -37.401   2.252  14.002  1.00  0.00    -0.291 N
ATOM     29  H7  UNL     1     -36.803   2.144  13.183  1.00  0.00     0.174 HD
BRANCH  28  30
HETATM   30  S1  UNL     1     -38.021   0.918  14.854  1.00  0.00     0.313 S
HETATM   31  O6  UNL     1     -36.925   0.472  15.813  1.00  0.00    -0.183 OA
HETATM   32  O7  UNL     1     -39.157   1.359  15.745  1.00  0.00    -0.183 OA
BRANCH  30  33
HETATM   33  N8  UNL     1     -38.480  -0.400  13.878  1.00  0.00    -0.312 N
ATOM     34  H82 UNL     1     -38.428  -0.358  12.860  1.00  0.00     0.170 HD
ATOM     35  H81 UNL     1     -38.804  -1.219  14.392  1.00  0.00     0.170 HD
ENDBRANCH  30  33
ENDBRANCH  28  30
ENDBRANCH  17  28
ENDBRANCH   9  13
BRANCH   4  36
HETATM   36  N3  UNL     1     -40.694   4.313   8.462  1.00  0.00    -0.361 N
BRANCH  36  37
HETATM   37  C4  UNL     1     -42.132   4.486   8.504  1.00  0.00     0.150 C
BRANCH  37  38
HETATM   38  C5  UNL     1     -42.936   3.271   8.232  1.00  0.00     0.183 C
BRANCH  38  39
HETATM   39  O1  UNL     1     -43.088   3.115   6.831  1.00  0.00    -0.399 OA
ATOM     40  H1  UNL     1     -42.259   3.293   6.403  1.00  0.00     0.209 HD
ENDBRANCH  38  39
ENDBRANCH  37  38
ENDBRANCH  36  37
BRANCH  36  41
HETATM   41  C6  UNL     1     -39.941   4.789   7.310  1.00  0.00     0.150 C
BRANCH  41  42
HETATM   42  C7  UNL     1     -40.724   5.515   6.288  1.00  0.00     0.183 C
BRANCH  42  43
HETATM   43  O2  UNL     1     -41.138   4.765   5.223  1.00  0.00    -0.399 OA
ATOM     44  H2  UNL     1     -41.504   5.255   4.497  1.00  0.00     0.209 HD
ENDBRANCH  42  43
ENDBRANCH  41  42
ENDBRANCH  36  41
ENDBRANCH   4  36
BRANCH   1  45
HETATM   45  N1  UNL     1     -39.028   0.337  10.432  1.00  0.00    -0.184 N
HETATM   46  C1  UNL     1     -40.257  -0.436  10.652  1.00  0.00     0.175 C
BRANCH  45  47
HETATM   47  C16 UNL     1     -37.856  -0.405  10.168  1.00  0.00     0.095 A
HETATM   48  C17 UNL     1     -37.712  -1.698  10.669  1.00  0.00     0.073 A
HETATM   49  C18 UNL     1     -36.553  -2.454  10.472  1.00  0.00     0.148 A
HETATM   50  C19 UNL     1     -35.514  -1.926   9.764  1.00  0.00     0.134 A
HETATM   51  N12 UNL     1     -35.663  -0.671   9.281  1.00  0.00    -0.327 N
HETATM   52  C20 UNL     1     -36.786   0.073   9.468  1.00  0.00     0.145 A
ATOM     53  H12 UNL     1     -34.895  -0.262   8.750  1.00  0.00     0.168 HD
HETATM   54  N13 UNL     1     -36.820   1.372   8.880  1.00  0.00    -0.080 NA
BRANCH  49  55
HETATM   55  N10 UNL     1     -36.505  -3.758  11.019  1.00  0.00    -0.112 N
HETATM   56  O8  UNL     1     -37.552  -4.465  11.044  1.00  0.00    -0.532 OA
HETATM   57  O9  UNL     1     -35.394  -4.335  11.535  1.00  0.00    -0.532 OA
ENDBRANCH  49  55
BRANCH  50  58
HETATM   58  N11 UNL     1     -34.411  -2.541   9.513  1.00  0.00    -0.383 N
ATOM     59 2H11 UNL     1     -34.453  -3.546   9.346  1.00  0.00     0.157 HD
ATOM     60 1H11 UNL     1     -33.493  -2.097   9.481  1.00  0.00     0.157 HD
ENDBRANCH  50  58
ENDBRANCH  45  47
ENDBRANCH   1  45
TORSDOF 19
ENDMDL