MODEL 3
REMARK VINA RESULT: -10.425185240      0.985      1.915
REMARK  16 active torsions:
REMARK  status: ('A' for Active; 'I' for Inactive)
REMARK    1  A    between atoms: N1_1  and  C1_4
REMARK    2  A    between atoms: C3_8  and  C4_9
REMARK    3  A    between atoms: N5_14  and  C5_15
REMARK    4  A    between atoms: C7_18  and  C8_19
REMARK    5  A    between atoms: C8_19  and  O3_20
REMARK    6  A    between atoms: C8_19  and  C9_22
REMARK    7  A    between atoms: C11_25  and  C12_26
REMARK    8  A    between atoms: C11_25  and  N7_29
REMARK    9  A    between atoms: C14_31  and  C15_32
REMARK   10  A    between atoms: C15_32  and  C16_33
REMARK   11  A    between atoms: C15_32  and  O6_38
REMARK   12  A    between atoms: C16_33  and  N8_34
REMARK   13  A    between atoms: O6_38  and  C17_39
REMARK   14  A    between atoms: N10_41  and  O7_43
REMARK   15  A    between atoms: C18_50  and  O9_51
REMARK   16  A    between atoms: C19_53  and  O10_54
ROOT
HETATM    1  C8  UNL     1     -38.291   0.906  13.346  1.00  0.00     0.205 C
ENDROOT
BRANCH   1   2
HETATM    2  C7  UNL     1     -38.319   2.156  14.193  1.00  0.00     0.186 C
HETATM    3  O2  UNL     1     -37.642   3.166  13.512  1.00  0.00    -0.378 OA
HETATM    4  C6  UNL     1     -38.085   4.376  14.072  1.00  0.00     0.198 C
HETATM    5  C5  UNL     1     -37.956   4.319  15.567  1.00  0.00     0.165 C
HETATM    6  C19 UNL     1     -36.987   3.203  15.942  1.00  0.00     0.176 C
HETATM    7  C18 UNL     1     -37.595   1.896  15.489  1.00  0.00     0.180 C
BRANCH   5   8
HETATM    8  N5  UNL     1     -37.480   5.583  16.102  1.00  0.00    -0.264 N
HETATM    9  N4  UNL     1     -37.277   5.847  17.377  1.00  0.00    -0.289 N
HETATM   10  C3  UNL     1     -36.839   7.107  17.491  1.00  0.00     0.144 A
ATOM     11  H4  UNL     1     -37.428   5.198  18.149  1.00  0.00     0.187 HD
HETATM   12  C2  UNL     1     -36.774   7.632  16.208  1.00  0.00     0.128 A
HETATM   13  N2  UNL     1     -36.477   8.706  15.455  1.00  0.00    -0.186 N
HETATM   14  C20 UNL     1     -37.186   6.644  15.347  1.00  0.00     0.168 A
HETATM   15  C1  UNL     1     -36.683   8.436  14.155  1.00  0.00     0.678 A
ATOM     16  H2  UNL     1     -36.143   9.599  15.819  1.00  0.00     0.184 HD
HETATM   17  N13 UNL     1     -37.122   7.158  14.105  1.00  0.00    -0.173 N
ATOM     18  H13 UNL     1     -37.368   6.657  13.251  1.00  0.00     0.186 HD
BRANCH  10  19
HETATM   19  C4  UNL     1     -36.484   7.837  18.694  1.00  0.00     0.285 C
HETATM   20  N3  UNL     1     -35.851   9.102  18.600  1.00  0.00    -0.056 NA
HETATM   21  O1  UNL     1     -36.718   7.380  19.838  1.00  0.00    -0.269 OA
ENDBRANCH  10  19
BRANCH  15  22
HETATM   22  N1  UNL     1     -36.500   9.237  13.155  1.00  0.00    -0.234 N
ATOM     23  H12 UNL     1     -36.354  10.246  13.195  1.00  0.00     0.174 HD
ATOM     24  H11 UNL     1     -36.473   8.987  12.166  1.00  0.00     0.174 HD
ENDBRANCH  15  22
ENDBRANCH   5   8
BRANCH   6  25
HETATM   25  O10 UNL     1     -36.745   3.213  17.319  1.00  0.00    -0.391 OA
ATOM     26  H10 UNL     1     -37.114   2.438  17.724  1.00  0.00     0.210 HD
ENDBRANCH   6  25
BRANCH   7  27
HETATM   27  O9  UNL     1     -38.449   1.398  16.465  1.00  0.00    -0.390 OA
ATOM     28  H9  UNL     1     -38.952   0.657  16.148  1.00  0.00     0.210 HD
ENDBRANCH   7  27
ENDBRANCH   1   2
BRANCH   1  29
HETATM   29  O3  UNL     1     -39.046  -0.091  13.956  1.00  0.00    -0.388 OA
ATOM     30  H3  UNL     1     -38.500  -0.583  14.559  1.00  0.00     0.210 HD
ENDBRANCH   1  29
BRANCH   1  31
HETATM   31  C9  UNL     1     -38.874   1.133  11.975  1.00  0.00     0.294 C
HETATM   32  O4  UNL     1     -39.838   0.200  11.631  1.00  0.00    -0.353 OA
HETATM   33  C10 UNL     1     -40.027   0.494  10.268  1.00  0.00     0.244 C
HETATM   34  C11 UNL     1     -38.666   0.992   9.798  1.00  0.00     0.259 C
HETATM   35  O8  UNL     1     -37.922   0.948  10.975  1.00  0.00    -0.316 OA
BRANCH  34  36
HETATM   36  C12 UNL     1     -38.095   0.045   8.830  1.00  0.00     0.291 C
HETATM   37  N6  UNL     1     -38.293   0.153   7.425  1.00  0.00    -0.057 NA
HETATM   38  O5  UNL     1     -37.390  -0.929   9.216  1.00  0.00    -0.271 OA
ENDBRANCH  34  36
BRANCH  34  39
HETATM   39  N7  UNL     1     -38.751   2.348   9.294  1.00  0.00    -0.241 N
HETATM   40  C13 UNL     1     -39.646   3.272   9.665  1.00  0.00     0.145 A
HETATM   41  C14 UNL     1     -39.390   4.405   8.963  1.00  0.00     0.075 A
HETATM   42  N11 UNL     1     -38.325   4.101   8.182  1.00  0.00    -0.286 N
HETATM   43  N12 UNL     1     -37.951   2.860   8.392  1.00  0.00    -0.237 N
ATOM     44  H11 UNL     1     -37.878   4.743   7.527  1.00  0.00     0.188 HD
ATOM     45  H12 UNL     1     -37.177   2.380   7.934  1.00  0.00     0.208 HD
BRANCH  41  46
HETATM   46  C15 UNL     1     -40.030   5.746   8.948  1.00  0.00     0.209 C
BRANCH  46  47
HETATM   47  C16 UNL     1     -40.845   5.867   7.693  1.00  0.00     0.268 C
BRANCH  47  48
HETATM   48  N8  UNL     1     -41.028   7.299   7.410  1.00  0.00    -0.076 N
ATOM     49  H83 UNL     1     -40.700   7.897   8.169  1.00  0.00     0.274 HD
ATOM     50  H82 UNL     1     -40.399   7.642   6.684  1.00  0.00     0.274 HD
ATOM     51  H81 UNL     1     -42.012   7.451   7.184  1.00  0.00     0.274 HD
ENDBRANCH  47  48
ENDBRANCH  46  47
BRANCH  46  52
HETATM   52  O6  UNL     1     -39.233   6.807   9.296  1.00  0.00    -0.310 OA
BRANCH  52  53
HETATM   53  C17 UNL     1     -38.939   7.194  10.576  1.00  0.00     0.252 C
HETATM   54  N9  UNL     1     -37.780   6.735  11.304  1.00  0.00    -0.054 NA
HETATM   55  N10 UNL     1     -39.782   8.013  11.107  1.00  0.00    -0.235 N
ATOM     56  H10 UNL     1     -40.600   8.332  10.589  1.00  0.00     0.197 HD
BRANCH  55  57
HETATM   57  O7  UNL     1     -39.548   8.441  12.386  1.00  0.00    -0.287 OA
ATOM     58  H7  UNL     1     -39.778   9.336  12.608  1.00  0.00     0.244 HD
ENDBRANCH  55  57
ENDBRANCH  52  53
ENDBRANCH  46  52
ENDBRANCH  41  46
ENDBRANCH  34  39
ENDBRANCH   1  31
TORSDOF 16
ENDMDL