MODEL 2
REMARK VINA RESULT: -9.933614115      1.246      1.811
REMARK  19 active torsions:
REMARK  status: ('A' for Active; 'I' for Inactive)
REMARK    1  A    between atoms: N1_1  and  C1_4
REMARK    2  A    between atoms: N5_15  and  C6_16
REMARK    3  A    between atoms: C8_19  and  O2_20
REMARK    4  A    between atoms: O2_20  and  C9_21
REMARK    5  A    between atoms: C9_21  and  C10_22
REMARK    6  A    between atoms: C9_21  and  C17_47
REMARK    7  A    between atoms: C10_22  and  O3_23
REMARK    8  A    between atoms: C10_22  and  C11_25
REMARK    9  A    between atoms: C11_25  and  O4_26
REMARK   10  A    between atoms: N6_28  and  C12_30
REMARK   11  A    between atoms: C15_34  and  S1_35
REMARK   12  A    between atoms: S1_35  and  N8_36
REMARK   13  A    between atoms: N9_43  and  N10_44
REMARK   14  A    between atoms: C17_47  and  O8_48
REMARK   15  A    between atoms: C17_47  and  C18_50
REMARK   16  A    between atoms: C18_50  and  O9_51
REMARK   17  A    between atoms: C18_50  and  C19_53
REMARK   18  A    between atoms: C19_53  and  O10_54
REMARK   19  A    between atoms: C20_56  and  O11_57
ROOT
HETATM    1  C9  UNL     1     -38.831   0.844  10.039  1.00  0.00     0.190 C
ENDROOT
BRANCH   1   2
HETATM    2  O2  UNL     1     -39.532   1.863   9.394  1.00  0.00    -0.370 OA
BRANCH   2   3
HETATM    3  C8  UNL     1     -39.327   3.130   9.784  1.00  0.00     0.179 C
HETATM    4  C7  UNL     1     -37.866   3.566   9.747  1.00  0.00     0.205 C
HETATM    5  O1  UNL     1     -38.017   4.969   9.883  1.00  0.00    -0.361 OA
HETATM    6  C6  UNL     1     -38.819   5.206   8.769  1.00  0.00     0.261 C
HETATM    7  C20 UNL     1     -39.947   4.174   8.905  1.00  0.00     0.198 C
BRANCH   6   8
HETATM    8  N5  UNL     1     -39.417   6.517   8.745  1.00  0.00    -0.297 N
HETATM    9  C2  UNL     1     -39.490   7.356   9.800  1.00  0.00     0.154 A
HETATM   10  N2  UNL     1     -39.086   7.268  11.071  1.00  0.00    -0.174 N
HETATM   11  C3  UNL     1     -40.119   8.512   9.397  1.00  0.00     0.094 A
HETATM   12  C1  UNL     1     -39.281   8.268  11.943  1.00  0.00     0.677 A
ATOM     13  H2  UNL     1     -38.618   6.419  11.387  1.00  0.00     0.186 HD
HETATM   14  N3  UNL     1     -39.898   9.384  11.524  1.00  0.00    -0.200 N
HETATM   15  C4  UNL     1     -40.339   9.566  10.271  1.00  0.00     0.139 A
ATOM     16  H3  UNL     1     -40.040  10.137  12.199  1.00  0.00     0.183 HD
HETATM   17  N4  UNL     1     -40.422   8.360   8.100  1.00  0.00    -0.348 N
HETATM   18  C5  UNL     1     -39.989   7.148   7.722  1.00  0.00     0.188 A
ATOM     19  H4  UNL     1     -40.896   9.042   7.508  1.00  0.00     0.167 HD
BRANCH  12  20
HETATM   20  N1  UNL     1     -38.890   8.182  13.181  1.00  0.00    -0.234 N
ATOM     21  H12 UNL     1     -39.235   7.417  13.762  1.00  0.00     0.174 HD
ATOM     22  H11 UNL     1     -38.245   8.859  13.588  1.00  0.00     0.174 HD
ENDBRANCH  12  20
ENDBRANCH   6   8
BRANCH   7  23
HETATM   23  O11 UNL     1     -40.156   3.714   7.601  1.00  0.00    -0.388 OA
ATOM     24  H11 UNL     1     -40.436   4.485   7.121  1.00  0.00     0.210 HD
ENDBRANCH   7  23
ENDBRANCH   2   3
ENDBRANCH   1   2
BRANCH   1  25
HETATM   25  C10 UNL     1     -39.862   0.190  10.991  1.00  0.00     0.224 C
BRANCH  25  26
HETATM   26  O3  UNL     1     -40.539  -0.817  10.290  1.00  0.00    -0.385 OA
ATOM     27  H3  UNL     1     -41.464  -0.601  10.270  1.00  0.00     0.210 HD
ENDBRANCH  25  26
BRANCH  25  28
HETATM   28  C11 UNL     1     -39.175  -0.503  12.065  1.00  0.00     0.149 C
HETATM   29  N6  UNL     1     -38.519  -0.091  13.176  1.00  0.00    -0.323 N
ATOM     30  H6  UNL     1     -37.987  -0.863  13.579  1.00  0.00     0.169 HD
BRANCH  28  31
HETATM   31  O4  UNL     1     -39.214  -1.814  11.884  1.00  0.00    -0.347 OA
ATOM     32  H4  UNL     1     -39.717  -2.237  12.569  1.00  0.00     0.219 HD
ENDBRANCH  28  31
BRANCH  29  33
HETATM   33  C12 UNL     1     -38.346   1.064  13.941  1.00  0.00     0.133 A
HETATM   34  C13 UNL     1     -38.715   2.293  13.335  1.00  0.00     0.079 A
HETATM   35  C14 UNL     1     -38.532   3.510  13.915  1.00  0.00     0.079 A
HETATM   36  N7  UNL     1     -38.925   4.700  13.248  1.00  0.00    -0.101 NA
HETATM   37  C15 UNL     1     -37.957   3.551  15.153  1.00  0.00     0.173 A
HETATM   38  C16 UNL     1     -37.588   2.386  15.762  1.00  0.00     0.293 A
HETATM   39  O7  UNL     1     -37.061   2.399  16.893  1.00  0.00    -0.264 OA
HETATM   40  N9  UNL     1     -37.792   1.179  15.133  1.00  0.00    -0.209 N
BRANCH  37  41
HETATM   41  S1  UNL     1     -37.705   5.099  15.941  1.00  0.00     0.264 S
HETATM   42  O5  UNL     1     -37.964   6.214  14.972  1.00  0.00    -0.200 OA
HETATM   43  O6  UNL     1     -38.701   5.247  17.064  1.00  0.00    -0.200 OA
BRANCH  41  44
HETATM   44  N8  UNL     1     -36.118   5.218  16.580  1.00  0.00    -0.324 N
ATOM     45  H82 UNL     1     -35.735   4.565  17.264  1.00  0.00     0.169 HD
ATOM     46  H81 UNL     1     -35.621   6.019  16.188  1.00  0.00     0.169 HD
ENDBRANCH  41  44
ENDBRANCH  37  41
BRANCH  40  47
HETATM   47  N10 UNL     1     -37.275   0.075  15.800  1.00  0.00    -0.334 N
ATOM     48 2H10 UNL     1     -37.306  -0.799  15.276  1.00  0.00     0.177 HD
ATOM     49 1H10 UNL     1     -36.963   0.138  16.770  1.00  0.00     0.177 HD
ENDBRANCH  40  47
ENDBRANCH  29  33
ENDBRANCH  25  28
ENDBRANCH   1  25
BRANCH   1  50
HETATM   50  C17 UNL     1     -38.333  -0.049   8.961  1.00  0.00     0.180 C
BRANCH  50  51
HETATM   51  O8  UNL     1     -37.748  -1.229   9.315  1.00  0.00    -0.390 OA
ATOM     52  H8  UNL     1     -38.033  -2.024   8.878  1.00  0.00     0.210 HD
ENDBRANCH  50  51
BRANCH  50  53
HETATM   53  C18 UNL     1     -37.776   0.561   7.711  1.00  0.00     0.173 C
BRANCH  53  54
HETATM   54  O9  UNL     1     -38.137  -0.345   6.633  1.00  0.00    -0.391 OA
ATOM     55  H9  UNL     1     -37.620  -1.131   6.770  1.00  0.00     0.210 HD
ENDBRANCH  53  54
BRANCH  53  56
HETATM   56  C19 UNL     1     -36.264   0.567   7.617  1.00  0.00     0.198 C
BRANCH  56  57
HETATM   57  O10 UNL     1     -35.644   0.699   8.836  1.00  0.00    -0.398 OA
ATOM     58  H10 UNL     1     -36.070   1.325   9.410  1.00  0.00     0.209 HD
ENDBRANCH  56  57
ENDBRANCH  53  56
ENDBRANCH  50  53
ENDBRANCH   1  50
TORSDOF 19
ENDMDL