MODEL 3
REMARK VINA RESULT: -7.995994081      2.506      6.954
REMARK  21 active torsions:
REMARK  status: ('A' for Active; 'I' for Inactive)
REMARK    1  A    between atoms: N1_1  and  C1_5
REMARK    2  A    between atoms: C3_7  and  N2_8
REMARK    3  A    between atoms: C4_12  and  S1_13
REMARK    4  A    between atoms: S1_13  and  S2_14
REMARK    5  A    between atoms: S2_14  and  C5_15
REMARK    6  A    between atoms: C6_16  and  N3_17
REMARK    7  A    between atoms: C8_22  and  N4_23
REMARK    8  A    between atoms: C9_27  and  O1_28
REMARK    9  A    between atoms: O1_28  and  C10_29
REMARK   10  A    between atoms: C11_31  and  C12_32
REMARK   11  A    between atoms: C12_32  and  O3_33
REMARK   12  A    between atoms: C12_32  and  C13_35
REMARK   13  A    between atoms: C13_35  and  O4_36
REMARK   14  A    between atoms: C14_39  and  C15_40
REMARK   15  A    between atoms: C15_40  and  O6_41
REMARK   16  A    between atoms: C16_43  and  O7_44
REMARK   17  A    between atoms: C17_46  and  O8_47
REMARK   18  A    between atoms: C18_50  and  O10_51
REMARK   19  A    between atoms: O10_51  and  C19_52
REMARK   20  A    between atoms: C20_53  and  N5_54
REMARK   21  A    between atoms: C22_59  and  N6_60
ROOT
HETATM    1  C5  UNL     1     -39.354   3.415   9.083  1.00  0.00     0.120 C
HETATM    2  C6  UNL     1     -39.463   4.572   8.170  1.00  0.00     0.202 C
HETATM    3  C7  UNL     1     -39.968   5.766   8.986  1.00  0.00     0.069 C
HETATM    4  C8  UNL     1     -38.933   5.996  10.068  1.00  0.00     0.217 C
HETATM    5  C9  UNL     1     -38.882   4.845  11.045  1.00  0.00     0.185 C
HETATM    6  C17 UNL     1     -38.415   3.648  10.252  1.00  0.00     0.165 C
ENDROOT
BRANCH   1   7
HETATM    7  S2  UNL     1     -40.942   2.785   9.572  1.00  0.00    -0.085 SA
BRANCH   7   8
HETATM    8  S1  UNL     1     -40.887   1.634  11.333  1.00  0.00    -0.063 SA
BRANCH   8   9
HETATM    9  C4  UNL     1     -39.765   0.204  11.146  1.00  0.00     0.227 C
HETATM   10  C3  UNL     1     -38.745   0.264  12.220  1.00  0.00     0.225 C
HETATM   11  C2  UNL     1     -37.418  -0.277  11.843  1.00  0.00     0.074 C
HETATM   12  C1  UNL     1     -37.575  -1.226  10.676  1.00  0.00     0.240 C
HETATM   13  C18 UNL     1     -38.131  -0.348   9.546  1.00  0.00     0.292 C
HETATM   14  O9  UNL     1     -39.379   0.064   9.859  1.00  0.00    -0.341 OA
BRANCH  10  15
HETATM   15  N2  UNL     1     -39.228  -0.325  13.470  1.00  0.00    -0.072 N
ATOM     16  H23 UNL     1     -38.947   0.230  14.278  1.00  0.00     0.274 HD
ATOM     17  H22 UNL     1     -40.240  -0.232  13.560  1.00  0.00     0.274 HD
ATOM     18  H21 UNL     1     -38.933  -1.297  13.564  1.00  0.00     0.274 HD
ENDBRANCH  10  15
BRANCH  12  19
HETATM   19  N1  UNL     1     -38.431  -2.323  10.992  1.00  0.00    -0.070 N
ATOM     20  H13 UNL     1     -38.294  -2.635  11.953  1.00  0.00     0.274 HD
ATOM     21  H12 UNL     1     -39.405  -2.027  11.057  1.00  0.00     0.274 HD
ATOM     22  H11 UNL     1     -38.322  -3.094  10.333  1.00  0.00     0.274 HD
ENDBRANCH  12  19
BRANCH  13  23
HETATM   23  O10 UNL     1     -37.212   0.682   9.382  1.00  0.00    -0.350 OA
BRANCH  23  24
HETATM   24  C19 UNL     1     -36.964   1.062   8.099  1.00  0.00     0.185 C
HETATM   25  C20 UNL     1     -35.453   1.297   7.932  1.00  0.00     0.216 C
HETATM   26  C21 UNL     1     -35.601   0.715   6.543  1.00  0.00     0.070 C
HETATM   27  C22 UNL     1     -36.851   0.018   7.042  1.00  0.00     0.216 C
BRANCH  25  28
HETATM   28  N5  UNL     1     -35.095   2.699   7.962  1.00  0.00    -0.072 N
ATOM     29  H53 UNL     1     -35.582   3.216   7.230  1.00  0.00     0.274 HD
ATOM     30  H52 UNL     1     -35.492   3.159   8.782  1.00  0.00     0.274 HD
ATOM     31  H51 UNL     1     -34.088   2.852   7.908  1.00  0.00     0.274 HD
ENDBRANCH  25  28
BRANCH  27  32
HETATM   32  N6  UNL     1     -37.894   0.022   6.030  1.00  0.00    -0.072 N
ATOM     33  H63 UNL     1     -38.714   0.519   6.379  1.00  0.00     0.274 HD
ATOM     34  H62 UNL     1     -37.625   0.633   5.258  1.00  0.00     0.274 HD
ATOM     35  H61 UNL     1     -38.170  -0.891   5.670  1.00  0.00     0.274 HD
ENDBRANCH  27  32
ENDBRANCH  23  24
ENDBRANCH  13  23
ENDBRANCH   8   9
ENDBRANCH   7   8
ENDBRANCH   1   7
BRANCH   2  36
HETATM   36  N3  UNL     1     -38.148   4.877   7.614  1.00  0.00    -0.074 N
ATOM     37  H33 UNL     1     -37.412   4.833   8.319  1.00  0.00     0.274 HD
ATOM     38  H32 UNL     1     -37.807   4.135   7.002  1.00  0.00     0.274 HD
ATOM     39  H31 UNL     1     -38.180   5.781   7.145  1.00  0.00     0.274 HD
ENDBRANCH   2  36
BRANCH   6  40
HETATM   40  O8  UNL     1     -37.153   3.884   9.712  1.00  0.00    -0.392 OA
ATOM     41  H8  UNL     1     -36.957   4.802   9.861  1.00  0.00     0.210 HD
ENDBRANCH   6  40
BRANCH   5  42
HETATM   42  O1  UNL     1     -38.081   5.202  12.069  1.00  0.00    -0.348 OA
BRANCH  42  43
HETATM   43  C10 UNL     1     -37.602   4.239  12.894  1.00  0.00     0.294 C
HETATM   44  O2  UNL     1     -36.264   4.554  13.150  1.00  0.00    -0.326 OA
HETATM   45  C11 UNL     1     -36.078   5.346  14.242  1.00  0.00     0.294 C
HETATM   46  O5  UNL     1     -36.386   4.670  15.386  1.00  0.00    -0.348 OA
HETATM   47  C14 UNL     1     -37.582   4.026  15.398  1.00  0.00     0.181 C
HETATM   48  C16 UNL     1     -38.394   4.060  14.148  1.00  0.00     0.204 C
BRANCH  45  49
HETATM   49  C12 UNL     1     -36.675   6.727  14.142  1.00  0.00     0.197 C
BRANCH  49  50
HETATM   50  O3  UNL     1     -36.112   7.379  13.052  1.00  0.00    -0.389 OA
ATOM     51  H3  UNL     1     -36.790   7.877  12.610  1.00  0.00     0.210 HD
ENDBRANCH  49  50
BRANCH  49  52
HETATM   52  C13 UNL     1     -36.160   7.482  15.378  1.00  0.00     0.200 C
BRANCH  52  53
HETATM   53  O4  UNL     1     -37.048   7.361  16.433  1.00  0.00    -0.398 OA
ATOM     54  H4  UNL     1     -36.595   7.428  17.265  1.00  0.00     0.209 HD
ENDBRANCH  52  53
ENDBRANCH  49  52
ENDBRANCH  45  49
BRANCH  47  55
HETATM   55  C15 UNL     1     -37.299   2.578  15.834  1.00  0.00     0.199 C
BRANCH  55  56
HETATM   56  O6  UNL     1     -36.542   1.949  14.845  1.00  0.00    -0.398 OA
ATOM     57  H6  UNL     1     -35.860   1.435  15.260  1.00  0.00     0.209 HD
ENDBRANCH  55  56
ENDBRANCH  47  55
BRANCH  48  58
HETATM   58  O7  UNL     1     -39.124   2.844  14.134  1.00  0.00    -0.388 OA
ATOM     59  H7  UNL     1     -38.800   2.235  14.788  1.00  0.00     0.210 HD
ENDBRANCH  48  58
ENDBRANCH  42  43
ENDBRANCH   5  42
BRANCH   4  60
HETATM   60  N4  UNL     1     -39.049   7.287  10.660  1.00  0.00    -0.072 N
ATOM     61  H43 UNL     1     -39.700   7.874  10.139  1.00  0.00     0.274 HD
ATOM     62  H42 UNL     1     -39.547   7.241  11.549  1.00  0.00     0.274 HD
ATOM     63  H41 UNL     1     -38.144   7.745  10.769  1.00  0.00     0.274 HD
ENDBRANCH   4  60
TORSDOF 21
ENDMDL