MODEL 5
REMARK VINA RESULT: -9.013075727      1.737      2.588
REMARK  6 active torsions:
REMARK  status: ('A' for Active; 'I' for Inactive)
REMARK    1  A    between atoms: C2_2  and  C3_4
REMARK    2  A    between atoms: C4_5  and  N1_6
REMARK       I    between atoms: N1_6  and  C5_8
REMARK    3  A    between atoms: C5_8  and  C6_10
REMARK    4  A    between atoms: C6_10  and  S1_11
REMARK    5  A    between atoms: S1_11  and  C7_12
REMARK    6  A    between atoms: C16_27  and  C17_28
ROOT
HETATM    1  C3  UNL     1      13.930  15.713  62.883  1.00  0.00     0.055 A
HETATM    2  C4  UNL     1      12.837  14.967  63.302  1.00  0.00     0.092 A
HETATM    3  S2  UNL     1      13.508  13.419  63.614  1.00  0.00    -0.071 SA
HETATM    4  C13 UNL     1      15.123  13.740  63.215  1.00  0.00     0.021 A
HETATM    5  C14 UNL     1      16.281  12.935  63.225  1.00  0.00     0.062 A
HETATM    6  C15 UNL     1      17.489  13.457  62.848  1.00  0.00     0.124 A
HETATM    7  F1  UNL     1      18.582  12.656  62.869  1.00  0.00    -0.205 F
HETATM    8  C16 UNL     1      17.506  14.757  62.476  1.00  0.00    -0.011 A
HETATM    9  C21 UNL     1      16.381  15.541  62.467  1.00  0.00     0.025 A
HETATM   10  C22 UNL     1      15.120  15.054  62.844  1.00  0.00    -0.002 A
ENDROOT
BRANCH   2  11
HETATM   11  N1  UNL     1      11.452  15.316  63.465  1.00  0.00    -0.320 N
HETATM   12  C5  UNL     1      10.920  15.228  64.794  1.00  0.00     0.232 C
HETATM   13  O2  UNL     1      11.627  14.867  65.763  1.00  0.00    -0.272 OA
ATOM     14  H1  UNL     1      10.878  15.610  62.676  1.00  0.00     0.169 HD
BRANCH  12  15
HETATM   15  C6  UNL     1       9.506  15.578  65.001  1.00  0.00     0.185 C
BRANCH  15  16
HETATM   16  S1  UNL     1       8.807  14.519  66.270  1.00  0.00    -0.085 SA
BRANCH  16  17
HETATM   17  C7  UNL     1       7.073  14.224  66.001  1.00  0.00     0.145 A
HETATM   18  N2  UNL     1       6.623  13.712  64.844  1.00  0.00    -0.341 N
HETATM   19  C8  UNL     1       5.331  13.491  64.641  1.00  0.00     0.009 A
ATOM     20  H2  UNL     1       7.290  13.488  64.105  1.00  0.00     0.167 HD
HETATM   21  C9  UNL     1       4.845  12.927  63.365  1.00  0.00     0.068 C
HETATM   22  C10 UNL     1       4.440  13.805  65.665  1.00  0.00     0.049 A
HETATM   23  C11 UNL     1       4.905  14.334  66.857  1.00  0.00     0.009 A
HETATM   24  C12 UNL     1       3.960  14.678  67.967  1.00  0.00     0.068 C
HETATM   25  N3  UNL     1       6.223  14.537  67.009  1.00  0.00    -0.341 N
ATOM     26  H3  UNL     1       6.583  14.926  67.881  1.00  0.00     0.167 HD
ENDBRANCH  16  17
ENDBRANCH  15  16
ENDBRANCH  12  15
ENDBRANCH   2  11
BRANCH   1  27
HETATM   27  C2  UNL     1      13.687  17.136  62.528  1.00  0.00     0.159 C
HETATM   28  C1  UNL     1      14.651  18.236  62.567  1.00  0.00     0.097 C
HETATM   29  O1  UNL     1      12.519  17.508  62.132  1.00  0.00    -0.293 OA
ENDBRANCH   1  27
BRANCH   8  30
HETATM   30  C17 UNL     1      18.838  15.314  62.066  1.00  0.00    -0.021 C
HETATM   31  C18 UNL     1      19.958  14.697  62.875  1.00  0.00     0.019 C
HETATM   32  C19 UNL     1      18.876  16.821  62.213  1.00  0.00     0.019 C
HETATM   33  C20 UNL     1      19.114  15.006  60.608  1.00  0.00     0.019 C
ENDBRANCH   8  30
TORSDOF 6
ENDMDL