MODEL 1
REMARK VINA RESULT: -9.876896045      0.000      0.000
REMARK  7 active torsions:
REMARK  status: ('A' for Active; 'I' for Inactive)
REMARK    1  A    between atoms: C2_2  and  C3_3
REMARK    2  A    between atoms: C6_6  and  C7_7
REMARK    3  A    between atoms: C7_7  and  C8_8
REMARK    4  A    between atoms: C8_8  and  C9_9
REMARK    5  A    between atoms: C11_13  and  N2_14
REMARK    6  A    between atoms: N3_17  and  C12_18
REMARK    7  A    between atoms: C12_18  and  C13_19
ROOT
HETATM    1  C9  UNL     1      10.874  15.561  63.729  1.00  0.00     0.044 A
HETATM    2  C10 UNL     1      10.962  15.300  65.060  1.00  0.00     0.149 A
HETATM    3  N1  UNL     1       9.696  14.968  65.468  1.00  0.00    -0.121 N
HETATM    4  S1  UNL     1       8.724  14.512  66.767  1.00  0.00     0.046 SA
HETATM    5  C11 UNL     1       7.235  14.394  65.945  1.00  0.00     0.177 A
HETATM    6  N3  UNL     1       7.570  14.716  64.695  1.00  0.00    -0.159 N
HETATM    7  C19 UNL     1       8.837  15.009  64.458  1.00  0.00     0.699 A
HETATM    8  N4  UNL     1       9.611  15.388  63.375  1.00  0.00    -0.193 N
ATOM      9  H4  UNL     1       9.255  15.516  62.429  1.00  0.00     0.184 HD
ENDROOT
BRANCH   1  10
HETATM   10  C8  UNL     1      11.955  15.972  62.773  1.00  0.00     0.064 C
BRANCH  10  11
HETATM   11  C7  UNL     1      13.258  15.337  63.204  1.00  0.00     0.045 C
BRANCH  11  12
HETATM   12  C6  UNL     1      14.354  16.284  62.911  1.00  0.00    -0.046 A
HETATM   13  C5  UNL     1      15.712  15.888  62.886  1.00  0.00    -0.012 A
HETATM   14  C4  UNL     1      16.199  14.643  63.117  1.00  0.00     0.027 A
HETATM   15  C23 UNL     1      16.625  16.864  62.601  1.00  0.00     0.016 A
HETATM   16  C3  UNL     1      17.551  14.477  63.044  1.00  0.00    -0.016 A
HETATM   17  S2  UNL     1      18.115  16.038  62.659  1.00  0.00    -0.094 SA
HETATM   18  C22 UNL     1      16.255  18.197  62.342  1.00  0.00     0.020 A
HETATM   19  C21 UNL     1      14.932  18.585  62.366  1.00  0.00     0.002 A
HETATM   20  C20 UNL     1      14.022  17.579  62.657  1.00  0.00     0.008 A
BRANCH  16  21
HETATM   21  C2  UNL     1      18.338  13.205  63.255  1.00  0.00     0.041 C
HETATM   22  C1  UNL     1      17.379  12.100  63.594  1.00  0.00     0.010 C
ENDBRANCH  16  21
ENDBRANCH  11  12
ENDBRANCH  10  11
ENDBRANCH   1  10
BRANCH   6  23
HETATM   23  C12 UNL     1       6.515  14.741  63.650  1.00  0.00     0.157 C
BRANCH  23  24
HETATM   24  C13 UNL     1       6.276  13.410  63.029  1.00  0.00     0.038 C
HETATM   25  C14 UNL     1       6.503  13.388  61.536  1.00  0.00     0.009 C
HETATM   26  C15 UNL     1       6.241  12.058  60.899  1.00  0.00     0.001 C
HETATM   27  C16 UNL     1       5.059  11.352  61.490  1.00  0.00     0.003 C
HETATM   28  C17 UNL     1       4.155  12.381  62.126  1.00  0.00     0.037 C
HETATM   29  C18 UNL     1       4.816  13.049  63.312  1.00  0.00     0.175 C
HETATM   30  F1  UNL     1       4.696  12.308  64.469  1.00  0.00    -0.249 F
ENDBRANCH  23  24
ENDBRANCH   6  23
BRANCH   5  31
HETATM   31  N2  UNL     1       6.046  14.071  66.402  1.00  0.00    -0.378 N
ATOM     32  H22 UNL     1       5.823  13.457  67.186  1.00  0.00     0.158 HD
ATOM     33  H21 UNL     1       5.122  14.357  66.078  1.00  0.00     0.158 HD
ENDBRANCH   5  31
TORSDOF 7
ENDMDL