MODEL 5
REMARK VINA RESULT: -7.357578220      1.691      2.003
REMARK  6 active torsions:
REMARK  status: ('A' for Active; 'I' for Inactive)
REMARK    1  A    between atoms: C2_2  and  O1_3
REMARK    2  A    between atoms: O1_3  and  C3_4
REMARK    3  A    between atoms: C3_4  and  C4_6
REMARK    4  A    between atoms: C9_12  and  C10_13
REMARK    5  A    between atoms: C12_15  and  N1_16
REMARK       I    between atoms: N1_16  and  C13_18
REMARK    6  A    between atoms: C13_18  and  C14_20
ROOT
HETATM    1  C4  UNL     1      18.054  16.336  62.009  1.00  0.00     0.064 A
HETATM    2  C5  UNL     1      19.130  15.915  61.276  1.00  0.00    -0.004 A
HETATM    3  C6  UNL     1      20.331  15.116  61.749  1.00  0.00     0.057 C
HETATM    4  S1  UNL     1      18.792  16.501  59.720  1.00  0.00    -0.097 SA
HETATM    5  C7  UNL     1      17.337  17.240  60.047  1.00  0.00     0.005 A
HETATM    6  C8  UNL     1      17.071  17.050  61.387  1.00  0.00     0.004 A
HETATM    7  C9  UNL     1      15.896  17.508  62.218  1.00  0.00    -0.011 C
HETATM    8  C19 UNL     1      15.347  18.858  62.142  1.00  0.00     0.053 C
HETATM    9  C20 UNL     1      14.779  19.352  60.779  1.00  0.00     0.085 C
HETATM   10  C21 UNL     1      15.585  18.798  59.768  1.00  0.00    -0.178 C
HETATM   11  C22 UNL     1      16.490  17.991  59.019  1.00  0.00     0.127 C
ENDROOT
BRANCH   7  12
HETATM   12  C10 UNL     1      14.908  16.411  62.437  1.00  0.00     0.084 A
HETATM   13  C11 UNL     1      13.652  16.595  62.939  1.00  0.00     0.069 A
HETATM   14  C12 UNL     1      13.004  15.352  63.009  1.00  0.00     0.060 A
HETATM   15  C18 UNL     1      13.936  14.474  62.532  1.00  0.00     0.172 A
HETATM   16  O4  UNL     1      15.036  15.132  62.208  1.00  0.00    -0.320 OA
BRANCH  14  17
HETATM   17  N1  UNL     1      11.680  15.178  63.487  1.00  0.00    -0.321 N
HETATM   18  C13 UNL     1      11.336  15.088  64.836  1.00  0.00     0.266 C
HETATM   19  O3  UNL     1      12.241  15.162  65.707  1.00  0.00    -0.267 OA
ATOM     20  H1  UNL     1      10.929  15.116  62.798  1.00  0.00     0.169 HD
BRANCH  18  21
HETATM   21  C14 UNL     1       9.966  14.908  65.331  1.00  0.00     0.111 A
HETATM   22  S2  UNL     1       8.561  15.742  64.737  1.00  0.00    -0.093 SA
HETATM   23  C15 UNL     1       7.380  15.050  65.746  1.00  0.00     0.054 A
HETATM   24  C16 UNL     1       8.107  14.190  66.516  1.00  0.00     0.051 A
HETATM   25  C17 UNL     1       9.431  14.121  66.300  1.00  0.00     0.139 A
HETATM   26  F1  UNL     1      10.232  13.263  67.054  1.00  0.00    -0.204 F
ENDBRANCH  18  21
ENDBRANCH  14  17
ENDBRANCH   7  12
BRANCH   1  27
HETATM   27  C3  UNL     1      18.066  15.957  63.474  1.00  0.00     0.295 C
HETATM   28  O2  UNL     1      18.416  16.775  64.351  1.00  0.00    -0.259 OA
BRANCH  27  29
HETATM   29  O1  UNL     1      17.690  14.693  63.875  1.00  0.00    -0.318 OA
BRANCH  29  30
HETATM   30  C2  UNL     1      18.013  13.500  63.244  1.00  0.00     0.174 C
HETATM   31  C1  UNL     1      17.021  12.402  63.425  1.00  0.00     0.034 C
ENDBRANCH  29  30
ENDBRANCH  27  29
ENDBRANCH   1  27
TORSDOF 6
ENDMDL