MODEL 5
REMARK VINA RESULT: -7.080123130      3.411      6.942
REMARK  8 active torsions:
REMARK  status: ('A' for Active; 'I' for Inactive)
REMARK    1  A    between atoms: C2_2  and  O1_3
REMARK    2  A    between atoms: O1_3  and  C3_4
REMARK    3  A    between atoms: C3_4  and  C4_6
REMARK    4  A    between atoms: C5_8  and  O4_9
REMARK    5  A    between atoms: C7_13  and  O5_14
REMARK    6  A    between atoms: O5_14  and  C8_15
REMARK    7  A    between atoms: C16_23  and  C17_24
REMARK    8  A    between atoms: C17_24  and  C18_25
ROOT
HETATM    1  C8  UNL     1      21.137  15.861  60.114  1.00  0.00     0.138 C
HETATM    2  C9  UNL     1      21.746  15.743  58.711  1.00  0.00     0.036 C
HETATM    3  C10 UNL     1      23.211  15.346  58.892  1.00  0.00     0.040 C
HETATM    4  C11 UNL     1      23.246  14.156  59.828  1.00  0.00     0.058 C
HETATM    5  C12 UNL     1      24.101  13.103  59.102  1.00  0.00     0.046 C
HETATM    6  C13 UNL     1      21.918  13.528  60.023  1.00  0.00     0.050 C
HETATM    7  C14 UNL     1      20.827  14.429  60.578  1.00  0.00    -0.011 C
HETATM    8  C15 UNL     1      19.568  13.876  59.964  1.00  0.00     0.018 C
HETATM    9  C16 UNL     1      20.756  14.440  62.067  1.00  0.00    -0.000 C
HETATM   10  C22 UNL     1      22.016  14.540  62.826  1.00  0.00     0.008 C
HETATM   11  C23 UNL     1      22.971  13.432  62.873  1.00  0.00     0.027 C
HETATM   12  C24 UNL     1      24.096  13.481  61.863  1.00  0.00     0.168 C
HETATM   13  O6  UNL     1      23.901  14.504  60.976  1.00  0.00    -0.381 OA
ENDROOT
BRANCH   1  14
HETATM   14  O5  UNL     1      20.329  16.850  60.348  1.00  0.00    -0.340 OA
BRANCH  14  15
HETATM   15  C7  UNL     1      19.505  17.823  60.536  1.00  0.00     0.136 A
HETATM   16  C4  UNL     1      19.854  19.179  60.636  1.00  0.00     0.188 A
HETATM   17  O3  UNL     1      18.756  19.871  60.818  1.00  0.00    -0.277 OA
HETATM   18  C5  UNL     1      17.719  19.121  60.851  1.00  0.00     0.209 A
HETATM   19  C6  UNL     1      18.112  17.814  60.680  1.00  0.00     0.128 A
HETATM   20 CL1  UNL     1      17.037  16.421  60.659  1.00  0.00    -0.076 Cl
BRANCH  16  21
HETATM   21  C3  UNL     1      21.168  19.817  60.568  1.00  0.00     0.320 C
HETATM   22  O2  UNL     1      21.641  20.427  59.604  1.00  0.00    -0.257 OA
BRANCH  21  23
HETATM   23  O1  UNL     1      21.996  19.744  61.696  1.00  0.00    -0.316 OA
BRANCH  23  24
HETATM   24  C2  UNL     1      23.407  19.590  61.558  1.00  0.00     0.175 C
HETATM   25  C1  UNL     1      23.667  18.102  61.431  1.00  0.00     0.034 C
ENDBRANCH  23  24
ENDBRANCH  21  23
ENDBRANCH  16  21
BRANCH  18  26
HETATM   26  O4  UNL     1      16.402  19.528  61.028  1.00  0.00    -0.339 OA
ATOM     27  H4  UNL     1      15.942  19.621  61.853  1.00  0.00     0.220 HD
ENDBRANCH  18  26
ENDBRANCH  14  15
ENDBRANCH   1  14
BRANCH   9  28
HETATM   28  C17 UNL     1      19.802  13.474  62.685  1.00  0.00     0.033 C
BRANCH  28  29
HETATM   29  C18 UNL     1      18.548  14.200  63.019  1.00  0.00    -0.024 C
HETATM   30  C19 UNL     1      17.387  13.693  63.304  1.00  0.00    -0.091 C
HETATM   31  C20 UNL     1      17.127  12.229  63.336  1.00  0.00     0.042 C
HETATM   32  C21 UNL     1      16.228  14.583  63.618  1.00  0.00     0.042 C
ENDBRANCH  28  29
ENDBRANCH   9  28
TORSDOF 8
ENDMDL