MODEL 1
REMARK VINA RESULT: -8.336830058      0.000      0.000
REMARK  5 active torsions:
REMARK  status: ('A' for Active; 'I' for Inactive)
REMARK    1  A    between atoms: O1_2  and  C2_3
REMARK    2  A    between atoms: C3_4  and  N1_5
REMARK       I    between atoms: N1_5  and  C4_7
REMARK    3  A    between atoms: C4_7  and  C5_9
REMARK    4  A    between atoms: C14_20  and  N2_21
REMARK    5  A    between atoms: C15_24  and  N3_25
ROOT
HETATM    1  C2  UNL     1      17.193  15.039  62.950  1.00  0.00     0.131 A
HETATM    2  C3  UNL     1      16.232  15.981  62.684  1.00  0.00     0.093 A
HETATM    3  C11 UNL     1      16.416  16.886  61.665  1.00  0.00     0.064 A
HETATM    4 CL1  UNL     1      15.186  18.061  61.354  1.00  0.00    -0.082 Cl
HETATM    5  C12 UNL     1      17.568  16.879  60.881  1.00  0.00     0.043 A
HETATM    6  C13 UNL     1      18.511  15.917  61.179  1.00  0.00     0.040 A
HETATM    7  C14 UNL     1      19.756  15.627  60.609  1.00  0.00     0.167 A
HETATM    8  C15 UNL     1      20.281  14.573  61.286  1.00  0.00     0.180 A
HETATM    9  O6  UNL     1      19.427  14.226  62.215  1.00  0.00    -0.287 OA
HETATM   10  C21 UNL     1      18.365  14.991  62.191  1.00  0.00     0.126 A
ENDROOT
BRANCH   2  11
HETATM   11  N1  UNL     1      15.044  16.028  63.448  1.00  0.00    -0.321 N
HETATM   12  C4  UNL     1      13.963  15.146  63.295  1.00  0.00     0.259 C
HETATM   13  O2  UNL     1      14.017  14.246  62.434  1.00  0.00    -0.270 OA
ATOM     14  H1  UNL     1      14.967  16.754  64.160  1.00  0.00     0.169 HD
BRANCH  12  15
HETATM   15  C5  UNL     1      12.757  15.258  64.132  1.00  0.00     0.168 A
HETATM   16  C6  UNL     1      11.402  15.223  63.460  1.00  0.00     0.051 C
HETATM   17  C7  UNL     1      10.344  15.619  64.432  1.00  0.00     0.004 C
HETATM   18  C8  UNL     1      10.263  14.712  65.632  1.00  0.00     0.003 C
HETATM   19  C9  UNL     1      11.548  14.006  65.932  1.00  0.00     0.035 C
HETATM   20  C10 UNL     1      12.777  14.721  65.465  1.00  0.00     0.167 A
HETATM   21  O3  UNL     1      12.788  16.089  65.257  1.00  0.00    -0.359 OA
ENDBRANCH  12  15
ENDBRANCH   2  11
BRANCH   1  22
HETATM   22  O1  UNL     1      17.091  14.089  63.955  1.00  0.00    -0.351 OA
HETATM   23  C1  UNL     1      16.891  12.729  63.626  1.00  0.00     0.210 C
ENDBRANCH   1  22
BRANCH   7  24
HETATM   24  N2  UNL     1      20.290  16.348  59.535  1.00  0.00    -0.110 N
HETATM   25  O4  UNL     1      20.212  15.829  58.383  1.00  0.00    -0.532 OA
HETATM   26  O5  UNL     1      20.902  17.574  59.603  1.00  0.00    -0.532 OA
ENDBRANCH   7  24
BRANCH   8  27
HETATM   27  N3  UNL     1      21.527  13.941  61.051  1.00  0.00    -0.359 N
HETATM   28  C16 UNL     1      21.709  12.723  60.317  1.00  0.00     0.125 C
HETATM   29  C17 UNL     1      23.196  12.685  59.923  1.00  0.00     0.020 C
HETATM   30  C18 UNL     1      23.555  14.044  59.329  1.00  0.00     0.003 C
HETATM   31  C19 UNL     1      23.458  15.149  60.356  1.00  0.00     0.020 C
HETATM   32  C20 UNL     1      22.757  14.550  61.582  1.00  0.00     0.125 C
ENDBRANCH   8  27
TORSDOF 5
ENDMDL