MODEL 5
REMARK VINA RESULT: -7.752516725      2.438      7.709
REMARK  6 active torsions:
REMARK  status: ('A' for Active; 'I' for Inactive)
REMARK    1  A    between atoms: O1_2  and  C2_3
REMARK    2  A    between atoms: C5_6  and  C6_7
REMARK    3  A    between atoms: C9_11  and  C10_12
REMARK    4  A    between atoms: C10_12  and  C11_14
REMARK    5  A    between atoms: C18_24  and  O4_26
REMARK    6  A    between atoms: C24_31  and  O5_32
ROOT
HETATM    1  C6  UNL     1      18.598  15.113  61.320  1.00  0.00     0.170 C
HETATM    2  O2  UNL     1      17.522  14.655  62.118  1.00  0.00    -0.338 OA
HETATM    3  C7  UNL     1      16.327  15.313  62.403  1.00  0.00     0.097 A
HETATM    4  C8  UNL     1      15.356  14.446  62.914  1.00  0.00     0.057 A
HETATM    5  C9  UNL     1      14.116  14.926  63.252  1.00  0.00     0.052 A
HETATM    6  C15 UNL     1      13.853  16.298  63.070  1.00  0.00     0.132 A
HETATM    7  F1  UNL     1      12.640  16.802  63.393  1.00  0.00    -0.205 F
HETATM    8  C16 UNL     1      14.828  17.116  62.567  1.00  0.00     0.075 A
HETATM    9  C17 UNL     1      16.084  16.655  62.220  1.00  0.00     0.067 A
HETATM   10  N1  UNL     1      16.942  17.665  61.718  1.00  0.00    -0.356 N
ATOM     11  H1  UNL     1      16.554  18.606  61.758  1.00  0.00     0.162 HD
HETATM   12  C18 UNL     1      18.274  17.590  61.159  1.00  0.00     0.136 C
HETATM   13  C19 UNL     1      18.956  18.906  61.417  1.00  0.00     0.071 C
HETATM   14  C21 UNL     1      19.089  16.473  61.773  1.00  0.00     0.071 C
HETATM   15  C22 UNL     1      20.515  16.637  61.248  1.00  0.00     0.018 C
ENDROOT
BRANCH   1  16
HETATM   16  C5  UNL     1      19.723  14.158  61.523  1.00  0.00    -0.026 A
HETATM   17  C4  UNL     1      19.915  13.615  62.765  1.00  0.00     0.012 A
HETATM   18  C3  UNL     1      20.945  12.727  62.995  1.00  0.00     0.040 A
HETATM   19  C2  UNL     1      21.780  12.393  61.956  1.00  0.00     0.101 A
HETATM   20  C24 UNL     1      21.575  12.950  60.703  1.00  0.00     0.102 A
HETATM   21  C23 UNL     1      20.553  13.830  60.478  1.00  0.00     0.049 A
BRANCH  19  22
HETATM   22  O1  UNL     1      22.816  11.512  62.150  1.00  0.00    -0.353 OA
HETATM   23  C1  UNL     1      24.017  11.809  62.797  1.00  0.00     0.210 C
ENDBRANCH  19  22
BRANCH  20  24
HETATM   24  O5  UNL     1      22.429  12.595  59.680  1.00  0.00    -0.353 OA
HETATM   25  C25 UNL     1      23.586  13.349  59.367  1.00  0.00     0.210 C
ENDBRANCH  20  24
ENDBRANCH   1  16
BRANCH  12  26
HETATM   26  O4  UNL     1      18.155  17.307  59.805  1.00  0.00    -0.366 OA
HETATM   27  C20 UNL     1      17.077  17.955  59.209  1.00  0.00     0.204 C
ENDBRANCH  12  26
BRANCH   5  28
HETATM   28  C10 UNL     1      13.074  14.090  63.784  1.00  0.00     0.170 C
HETATM   29  O3  UNL     1      12.627  13.139  63.083  1.00  0.00    -0.291 OA
BRANCH  28  30
HETATM   30  C11 UNL     1      12.494  14.290  65.116  1.00  0.00     0.015 C
HETATM   31  C12 UNL     1      13.448  14.967  66.072  1.00  0.00     0.023 C
HETATM   32  C13 UNL     1      12.143  12.951  65.766  1.00  0.00     0.023 C
HETATM   33  C14 UNL     1      11.212  15.087  65.073  1.00  0.00     0.023 C
ENDBRANCH  28  30
ENDBRANCH   5  28
TORSDOF 6
ENDMDL