MODEL 2
REMARK VINA RESULT: -9.188057745      1.973      2.638
REMARK  7 active torsions:
REMARK  status: ('A' for Active; 'I' for Inactive)
REMARK    1  A    between atoms: C2_2  and  C3_3
REMARK    2  A    between atoms: C6_6  and  C7_7
REMARK    3  A    between atoms: C7_7  and  S1_8
REMARK    4  A    between atoms: S1_8  and  C8_9
REMARK    5  A    between atoms: C8_9  and  N3_26
REMARK    6  A    between atoms: N1_10  and  C9_12
REMARK    7  A    between atoms: C11_14  and  C12_15
ROOT
HETATM    1  C12 UNL     1      20.084  15.322  59.992  1.00  0.00     0.086 C
HETATM    2  C13 UNL     1      19.620  13.953  59.725  1.00  0.00     0.074 C
HETATM    3  N2  UNL     1      19.264  12.870  59.518  1.00  0.00    -0.196 NA
HETATM    4  C14 UNL     1      20.321  16.026  58.722  1.00  0.00     0.056 C
HETATM    5  C15 UNL     1      21.737  16.414  58.417  1.00  0.00     0.169 C
HETATM    6  O1  UNL     1      22.692  15.744  59.166  1.00  0.00    -0.391 OA
HETATM    7  C16 UNL     1      22.446  16.067  60.499  1.00  0.00     0.169 C
HETATM    8  C17 UNL     1      21.262  15.281  60.935  1.00  0.00     0.056 C
ENDROOT
BRANCH   1   9
HETATM    9  C11 UNL     1      18.967  15.979  60.770  1.00  0.00     0.009 A
HETATM   10  C10 UNL     1      17.687  15.557  60.996  1.00  0.00     0.048 A
HETATM   11  C9  UNL     1      16.890  16.346  61.745  1.00  0.00     0.064 A
HETATM   12  C18 UNL     1      17.454  17.517  62.217  1.00  0.00     0.101 A
HETATM   13  S2  UNL     1      19.030  17.475  61.614  1.00  0.00    -0.078 SA
HETATM   14 CL1  UNL     1      16.703  18.765  63.238  1.00  0.00    -0.074 Cl
BRANCH  11  15
HETATM   15  N1  UNL     1      15.509  16.098  62.116  1.00  0.00    -0.334 N
HETATM   16  C8  UNL     1      15.051  15.247  62.896  1.00  0.00     0.154 C
ATOM     17  H1  UNL     1      14.820  16.707  61.675  1.00  0.00     0.168 HD
BRANCH  16  18
HETATM   18  S1  UNL     1      13.262  15.216  63.138  1.00  0.00    -0.089 SA
BRANCH  18  19
HETATM   19  C7  UNL     1      12.969  15.017  64.912  1.00  0.00     0.121 C
BRANCH  19  20
HETATM   20  C6  UNL     1      11.534  14.901  65.237  1.00  0.00    -0.048 A
HETATM   21  C5  UNL     1      11.099  14.200  66.316  1.00  0.00     0.009 A
HETATM   22  C4  UNL     1       9.743  14.100  66.584  1.00  0.00     0.012 A
HETATM   23  C3  UNL     1       8.790  14.704  65.781  1.00  0.00    -0.037 A
HETATM   24  C21 UNL     1       9.238  15.414  64.691  1.00  0.00     0.012 A
HETATM   25  C20 UNL     1      10.578  15.527  64.402  1.00  0.00     0.009 A
BRANCH  23  26
HETATM   26  C2  UNL     1       7.349  14.555  66.058  1.00  0.00     0.001 C
HETATM   27  C1  UNL     1       6.385  14.982  65.422  1.00  0.00     0.012 C
ENDBRANCH  23  26
ENDBRANCH  19  20
ENDBRANCH  18  19
ENDBRANCH  16  18
BRANCH  16  28
HETATM   28  N3  UNL     1      15.804  14.307  63.624  1.00  0.00    -0.274 N
HETATM   29  C19 UNL     1      15.925  12.986  63.227  1.00  0.00     0.183 C
HETATM   30  N4  UNL     1      16.038  11.872  62.911  1.00  0.00    -0.172 NA
ATOM     31  H3  UNL     1      16.278  14.610  64.476  1.00  0.00     0.180 HD
ENDBRANCH  16  28
ENDBRANCH  11  15
ENDBRANCH   1   9
TORSDOF 7
ENDMDL