MODEL 4
REMARK VINA RESULT: -8.787509267      0.975      1.208
REMARK  8 active torsions:
REMARK  status: ('A' for Active; 'I' for Inactive)
REMARK    1  A    between atoms: C5_5  and  N1_6
REMARK    2  A    between atoms: N1_6  and  C6_8
REMARK    3  A    between atoms: C7_10  and  C8_11
REMARK    4  A    between atoms: C9_12  and  C11_15
REMARK    5  A    between atoms: C11_15  and  O3_17
REMARK    6  A    between atoms: O3_17  and  C12_18
REMARK    7  A    between atoms: C17_23  and  C18_24
REMARK    8  A    between atoms: C19_25  and  C20_26
ROOT
HETATM    1  C8  UNL     1      11.782  15.804  63.090  1.00  0.00     0.067 C
HETATM    2  C9  UNL     1      11.087  15.367  64.084  1.00  0.00     0.122 C
HETATM    3  C10 UNL     1      11.633  14.953  65.343  1.00  0.00     0.105 C
HETATM    4  N2  UNL     1      12.059  14.586  66.380  1.00  0.00    -0.191 NA
ENDROOT
BRANCH   2   5
HETATM    5  C11 UNL     1       9.610  15.290  63.900  1.00  0.00     0.304 C
HETATM    6  O2  UNL     1       9.092  15.003  62.808  1.00  0.00    -0.258 OA
BRANCH   5   7
HETATM    7  O3  UNL     1       8.786  15.543  64.970  1.00  0.00    -0.312 OA
BRANCH   7   8
HETATM    8  C12 UNL     1       7.698  14.717  65.328  1.00  0.00     0.124 C
HETATM    9  C13 UNL     1       7.993  14.012  66.620  1.00  0.00     0.040 C
HETATM   10  C14 UNL     1       6.387  15.457  65.376  1.00  0.00     0.040 C
ENDBRANCH   7   8
ENDBRANCH   5   7
ENDBRANCH   2   5
BRANCH   1  11
HETATM   11  C7  UNL     1      13.216  15.991  62.976  1.00  0.00     0.087 A
HETATM   12  O1  UNL     1      13.852  17.158  62.986  1.00  0.00    -0.292 OA
HETATM   13  C6  UNL     1      15.145  16.970  62.869  1.00  0.00     0.169 A
HETATM   14  C17 UNL     1      15.396  15.600  62.777  1.00  0.00     0.077 A
HETATM   15  C15 UNL     1      14.156  15.003  62.849  1.00  0.00    -0.005 A
HETATM   16  C16 UNL     1      14.014  13.518  62.821  1.00  0.00     0.052 C
BRANCH  13  17
HETATM   17  N1  UNL     1      16.146  17.977  62.838  1.00  0.00    -0.322 N
ATOM     18  H1  UNL     1      16.069  18.809  63.424  1.00  0.00     0.169 HD
BRANCH  17  19
HETATM   19  C5  UNL     1      17.260  17.796  61.969  1.00  0.00     0.109 A
HETATM   20  C4  UNL     1      18.557  17.944  62.411  1.00  0.00     0.049 A
HETATM   21  C3  UNL     1      19.585  17.754  61.521  1.00  0.00     0.015 A
HETATM   22  C2  UNL     1      19.365  17.423  60.204  1.00  0.00    -0.006 A
HETATM   23  C1  UNL     1      20.456  17.211  59.216  1.00  0.00     0.053 C
HETATM   24  C25 UNL     1      18.033  17.291  59.829  1.00  0.00     0.195 A
HETATM   25  N3  UNL     1      17.032  17.474  60.694  1.00  0.00    -0.319 N
HETATM   26  F1  UNL     1      17.815  16.961  58.520  1.00  0.00    -0.186 F
ATOM     27  H3  UNL     1      16.070  17.366  60.372  1.00  0.00     0.169 HD
ENDBRANCH  17  19
ENDBRANCH  13  17
BRANCH  14  28
HETATM   28  C18 UNL     1      16.651  14.925  62.638  1.00  0.00    -0.061 C
HETATM   29  C19 UNL     1      17.710  14.333  62.516  1.00  0.00    -0.096 C
BRANCH  29  30
HETATM   30  C20 UNL     1      18.999  13.641  62.366  1.00  0.00     0.065 C
HETATM   31  C21 UNL     1      20.051  14.580  62.914  1.00  0.00     0.017 C
HETATM   32  C22 UNL     1      21.252  14.398  62.019  1.00  0.00     0.001 C
HETATM   33  C23 UNL     1      20.728  13.900  60.695  1.00  0.00     0.001 C
HETATM   34  C24 UNL     1      19.334  13.409  60.909  1.00  0.00     0.017 C
ENDBRANCH  29  30
ENDBRANCH  14  28
ENDBRANCH   1  11
TORSDOF 8
ENDMDL