MODEL 1
REMARK VINA RESULT: -8.370439319      0.000      0.000
REMARK  8 active torsions:
REMARK  status: ('A' for Active; 'I' for Inactive)
REMARK    1  A    between atoms: C3_3  and  N1_4
REMARK    2  A    between atoms: N1_4  and  O1_6
REMARK    3  A    between atoms: C4_10  and  S1_11
REMARK    4  A    between atoms: S1_11  and  C5_12
REMARK    5  A    between atoms: C5_12  and  C6_13
REMARK       I    between atoms: C6_13  and  N3_15
REMARK    6  A    between atoms: N3_15  and  C7_16
REMARK    7  A    between atoms: C10_20  and  N4_21
REMARK    8  A    between atoms: C12_25  and  C13_26
ROOT
HETATM    1  C6  UNL     1      18.502  13.594  62.545  1.00  0.00     0.301 C
HETATM    2  O2  UNL     1      19.061  12.788  63.375  1.00  0.00    -0.256 OA
HETATM    3  N3  UNL     1      17.235  14.085  62.632  1.00  0.00    -0.368 NA
ENDROOT
BRANCH   1   4
HETATM    4  C5  UNL     1      19.439  13.970  61.433  1.00  0.00     0.200 C
BRANCH   4   5
HETATM    5  S1  UNL     1      20.725  15.112  61.704  1.00  0.00    -0.101 SA
BRANCH   5   6
HETATM    6  C4  UNL     1      20.918  16.601  60.805  1.00  0.00     0.078 A
HETATM    7  N2  UNL     1      20.401  17.775  61.317  1.00  0.00    -0.335 N
HETATM    8  C3  UNL     1      20.626  18.983  60.769  1.00  0.00     0.132 A
ATOM      9  H2  UNL     1      19.819  17.724  62.154  1.00  0.00     0.168 HD
HETATM   10  C2  UNL     1      21.382  19.147  59.643  1.00  0.00    -0.010 A
HETATM   11  C1  UNL     1      21.652  20.466  59.081  1.00  0.00     0.052 C
HETATM   12  C19 UNL     1      21.913  18.014  59.071  1.00  0.00    -0.044 A
HETATM   13  C17 UNL     1      21.666  16.784  59.673  1.00  0.00    -0.022 A
HETATM   14  C20 UNL     1      22.727  18.146  57.871  1.00  0.00     0.049 C
HETATM   15  C18 UNL     1      22.281  15.579  59.024  1.00  0.00     0.052 C
BRANCH   8  16
HETATM   16  N1  UNL     1      20.084  20.179  61.351  1.00  0.00    -0.253 N
ATOM     17  H1  UNL     1      20.670  21.003  61.481  1.00  0.00     0.196 HD
BRANCH  16  18
HETATM   18  O1  UNL     1      18.873  20.194  61.697  1.00  0.00    -0.288 OA
ATOM     19  H1  UNL     1      18.380  21.001  61.610  1.00  0.00     0.244 HD
ENDBRANCH  16  18
ENDBRANCH   8  16
ENDBRANCH   5   6
ENDBRANCH   4   5
ENDBRANCH   1   4
BRANCH   3  20
HETATM   20  C7  UNL     1      15.953  14.531  62.798  1.00  0.00     0.139 A
HETATM   21  C8  UNL     1      15.034  13.500  63.179  1.00  0.00     0.077 A
HETATM   22 CL1  UNL     1      15.591  11.809  63.148  1.00  0.00    -0.081 Cl
HETATM   23  C9  UNL     1      13.741  13.807  63.522  1.00  0.00     0.063 A
HETATM   24  C10 UNL     1      13.287  15.101  63.512  1.00  0.00     0.105 A
HETATM   25  C11 UNL     1      14.190  16.113  63.133  1.00  0.00     0.047 A
HETATM   26  C12 UNL     1      15.481  15.861  62.781  1.00  0.00    -0.006 A
BRANCH  24  27
HETATM   27  N4  UNL     1      11.958  15.435  63.852  1.00  0.00    -0.116 N
HETATM   28  O3  UNL     1      11.190  15.844  62.954  1.00  0.00    -0.532 OA
HETATM   29  O4  UNL     1      11.482  15.337  65.092  1.00  0.00    -0.532 OA
ENDBRANCH  24  27
BRANCH  26  30
HETATM   30  C13 UNL     1      16.281  16.924  62.280  1.00  0.00    -0.021 C
HETATM   31  C14 UNL     1      17.374  17.382  63.239  1.00  0.00     0.019 C
HETATM   32  C15 UNL     1      15.325  18.193  62.345  1.00  0.00     0.019 C
HETATM   33  C16 UNL     1      16.919  16.856  60.948  1.00  0.00     0.019 C
ENDBRANCH  26  30
ENDBRANCH   3  20
TORSDOF 8
ENDMDL