MODEL 5
REMARK VINA RESULT: -8.547918710      5.065     10.910
REMARK  8 active torsions:
REMARK  status: ('A' for Active; 'I' for Inactive)
REMARK    1  A    between atoms: O1_2  and  C2_3
REMARK    2  A    between atoms: C2_3  and  C3_5
REMARK    3  A    between atoms: C5_8  and  C6_9
REMARK    4  A    between atoms: C6_9  and  N1_10
REMARK    5  A    between atoms: N1_10  and  N2_12
REMARK    6  A    between atoms: N2_12  and  C7_14
REMARK    7  A    between atoms: C15_26  and  C16_27
REMARK    8  A    between atoms: C17_28  and  C18_29
ROOT
HETATM    1  C6  UNL     1       8.061  15.884  65.599  1.00  0.00     0.120 C
ENDROOT
BRANCH   1   2
HETATM    2  C5  UNL     1       7.413  15.033  64.555  1.00  0.00    -0.001 A
HETATM    3  C4  UNL     1       7.923  15.012  63.287  1.00  0.00     0.064 A
HETATM    4  S1  UNL     1       6.958  13.891  62.474  1.00  0.00    -0.094 SA
HETATM    5  C3  UNL     1       5.890  13.449  63.764  1.00  0.00     0.091 A
HETATM    6  C15 UNL     1       6.341  14.201  64.798  1.00  0.00    -0.001 A
BRANCH   5   7
HETATM    7  C2  UNL     1       4.739  12.540  63.613  1.00  0.00     0.300 C
HETATM    8  O2  UNL     1       4.470  11.823  64.648  1.00  0.00    -0.259 OA
BRANCH   7   9
HETATM    9  O1  UNL     1       3.976  12.396  62.506  1.00  0.00    -0.322 OA
HETATM   10  C1  UNL     1       4.389  11.426  61.534  1.00  0.00     0.213 C
ENDBRANCH   7   9
ENDBRANCH   5   7
BRANCH   6  11
HETATM   11  C16 UNL     1       5.821  14.071  66.183  1.00  0.00     0.014 C
HETATM   12  C17 UNL     1       4.763  14.578  66.714  1.00  0.00     0.001 C
BRANCH  12  13
HETATM   13  C18 UNL     1       3.742  15.426  66.137  1.00  0.00     0.002 C
HETATM   14  C19 UNL     1       2.967  16.209  66.876  1.00  0.00    -0.088 C
HETATM   15  C20 UNL     1       3.091  16.273  68.342  1.00  0.00     0.043 C
HETATM   16  C21 UNL     1       1.950  17.048  66.221  1.00  0.00     0.043 C
ENDBRANCH  12  13
ENDBRANCH   6  11
ENDBRANCH   1   2
BRANCH   1  17
HETATM   17  N1  UNL     1       9.160  15.595  66.067  1.00  0.00    -0.309 N
ATOM     18  H1  UNL     1       9.384  16.246  66.820  1.00  0.00     0.186 HD
BRANCH  17  19
HETATM   19  N2  UNL     1      10.153  14.732  65.934  1.00  0.00    -0.280 N
ATOM     20  H2  UNL     1       9.984  13.825  66.370  1.00  0.00     0.189 HD
BRANCH  19  21
HETATM   21  C7  UNL     1      11.302  14.836  65.345  1.00  0.00     0.164 A
HETATM   22  N3  UNL     1      11.803  15.761  64.547  1.00  0.00    -0.334 N
HETATM   23  C8  UNL     1      13.012  15.605  64.041  1.00  0.00     0.053 A
ATOM     24  H3  UNL     1      11.258  16.594  64.323  1.00  0.00     0.168 HD
HETATM   25  C9  UNL     1      13.677  16.486  63.171  1.00  0.00     0.055 A
HETATM   26  C14 UNL     1      13.695  14.475  64.377  1.00  0.00     0.035 A
HETATM   27  C10 UNL     1      14.928  16.225  62.696  1.00  0.00     0.042 A
HETATM   28 CL1  UNL     1      15.734  17.356  61.593  1.00  0.00    -0.084 Cl
HETATM   29  C11 UNL     1      15.614  15.082  63.036  1.00  0.00    -0.039 A
HETATM   30  C12 UNL     1      16.958  14.845  62.485  1.00  0.00     0.050 C
HETATM   31  C13 UNL     1      14.983  14.209  63.882  1.00  0.00     0.029 A
HETATM   32  S2  UNL     1      12.595  13.673  65.400  1.00  0.00    -0.051 SA
ENDBRANCH  19  21
ENDBRANCH  17  19
ENDBRANCH   1  17
TORSDOF 8
ENDMDL