MODEL 4
REMARK VINA RESULT: -5.506658736      2.056      4.653
REMARK  6 active torsions:
REMARK  status: ('A' for Active; 'I' for Inactive)
REMARK    1  A    between atoms: C2_2  and  C3_4
REMARK    2  A    between atoms: C3_4  and  C4_5
REMARK    3  A    between atoms: C5_7  and  C6_8
REMARK    4  A    between atoms: C6_8  and  C7_9
REMARK    5  A    between atoms: C16_19  and  O4_21
REMARK    6  A    between atoms: C19_25  and  O6_26
ROOT
HETATM    1  C4  UNL     1      28.546  16.878  28.456  1.00  0.00     0.166 C
HETATM    2  O2  UNL     1      28.106  15.640  28.830  1.00  0.00    -0.346 OA
HETATM    3  C5  UNL     1      28.908  15.063  29.804  1.00  0.00     0.065 C
HETATM    4  C10 UNL     1      30.130  14.593  29.193  1.00  0.00     0.131 C
HETATM    5  C11 UNL     1      31.099  14.048  30.171  1.00  0.00     0.181 C
HETATM    6  O3  UNL     1      31.026  13.324  31.099  1.00  0.00    -0.293 OA
HETATM    7  C12 UNL     1      32.355  14.666  29.701  1.00  0.00     0.119 C
HETATM    8  C13 UNL     1      33.400  14.543  30.752  1.00  0.00     0.055 C
HETATM    9  C14 UNL     1      32.688  13.956  28.417  1.00  0.00     0.049 C
HETATM   10  C15 UNL     1      31.597  13.533  27.552  1.00  0.00     0.042 C
HETATM   11  C16 UNL     1      30.160  13.635  28.054  1.00  0.00     0.078 C
HETATM   12  C17 UNL     1      29.351  14.052  26.842  1.00  0.00     0.047 C
HETATM   13  O5  UNL     1      31.951  15.981  29.500  1.00  0.00    -0.363 OA
HETATM   14  C18 UNL     1      30.848  15.843  28.622  1.00  0.00     0.180 C
HETATM   15  C19 UNL     1      30.024  17.066  28.561  1.00  0.00     0.178 C
ENDROOT
BRANCH   1  16
HETATM   16  C3  UNL     1      27.846  17.890  29.325  1.00  0.00     0.113 C
BRANCH  16  17
HETATM   17  C2  UNL     1      26.405  18.021  29.101  1.00  0.00     0.125 C
HETATM   18  C1  UNL     1      25.431  17.398  30.032  1.00  0.00     0.091 C
HETATM   19  O1  UNL     1      25.987  18.643  28.147  1.00  0.00    -0.298 OA
ENDBRANCH  16  17
ENDBRANCH   1  16
BRANCH  15  20
HETATM   20  O6  UNL     1      30.444  17.894  29.603  1.00  0.00    -0.390 OA
ATOM     21  H6  UNL     1      31.007  17.479  30.247  1.00  0.00     0.210 HD
ENDBRANCH  15  20
BRANCH   3  22
HETATM   22  C6  UNL     1      28.173  14.370  30.868  1.00  0.00     0.011 C
BRANCH  22  23
HETATM   23  C7  UNL     1      27.048  13.471  30.601  1.00  0.00     0.002 C
HETATM   24  C8  UNL     1      27.460  12.040  31.046  1.00  0.00     0.013 C
HETATM   25  C9  UNL     1      25.779  13.749  31.344  1.00  0.00     0.013 C
ENDBRANCH  22  23
ENDBRANCH   3  22
BRANCH  11  26
HETATM   26  O4  UNL     1      29.754  12.344  28.348  1.00  0.00    -0.389 OA
ATOM     27  H4  UNL     1      30.392  11.807  28.804  1.00  0.00     0.210 HD
ENDBRANCH  11  26
TORSDOF 6
ENDMDL