MODEL 5
REMARK VINA RESULT: -5.807245519      2.188      2.580
REMARK  7 active torsions:
REMARK  status: ('A' for Active; 'I' for Inactive)
REMARK    1  A    between atoms: C2_2  and  C3_3
REMARK    2  A    between atoms: C4_4  and  C5_5
REMARK    3  A    between atoms: C5_5  and  O1_6
REMARK    4  A    between atoms: C16_22  and  C17_23
REMARK    5  A    between atoms: C17_23  and  C18_24
REMARK    6  A    between atoms: C18_24  and  C19_25
REMARK    7  A    between atoms: C19_25  and  O6_26
ROOT
HETATM    1  C5  UNL     1      29.862  13.231  28.708  1.00  0.00     0.235 C
HETATM    2  O2  UNL     1      30.400  13.798  27.597  1.00  0.00    -0.336 OA
HETATM    3  C6  UNL     1      29.678  14.961  27.354  1.00  0.00     0.159 C
HETATM    4  C7  UNL     1      30.359  15.867  26.390  1.00  0.00     0.201 C
HETATM    5  O3  UNL     1      30.704  17.036  27.075  1.00  0.00    -0.377 OA
HETATM    6  C8  UNL     1      29.581  17.647  27.611  1.00  0.00     0.189 A
HETATM    7  C9  UNL     1      28.931  16.806  28.727  1.00  0.00     0.031 A
HETATM    8  C10 UNL     1      29.030  17.649  29.977  1.00  0.00     0.013 A
HETATM    9  C11 UNL     1      29.645  18.960  29.633  1.00  0.00     0.072 A
HETATM   10  C12 UNL     1      29.975  18.954  28.184  1.00  0.00     0.195 A
HETATM   11  O4  UNL     1      29.590  20.084  27.466  1.00  0.00    -0.328 OA
HETATM   12  C13 UNL     1      30.893  20.187  26.985  1.00  0.00     0.345 C
HETATM   13  O5  UNL     1      31.312  19.342  27.986  1.00  0.00    -0.328 OA
HETATM   14  C14 UNL     1      29.632  15.527  28.788  1.00  0.00     0.000 C
HETATM   15  C15 UNL     1      31.072  15.803  29.249  1.00  0.00     0.019 C
HETATM   16  C16 UNL     1      29.162  14.364  29.523  1.00  0.00     0.073 C
ENDROOT
BRANCH   1  17
HETATM   17  C4  UNL     1      30.861  12.665  29.616  1.00  0.00    -0.038 C
HETATM   18  C3  UNL     1      31.695  12.172  30.365  1.00  0.00    -0.102 C
BRANCH  18  19
HETATM   19  C2  UNL     1      32.681  11.559  31.259  1.00  0.00     0.089 C
HETATM   20  C1  UNL     1      32.203  10.176  31.704  1.00  0.00     0.018 C
ENDBRANCH  18  19
ENDBRANCH   1  17
BRANCH   1  21
HETATM   21  O1  UNL     1      28.944  12.259  28.321  1.00  0.00    -0.355 OA
ATOM     22  H1  UNL     1      29.359  11.611  27.765  1.00  0.00     0.214 HD
ENDBRANCH   1  21
BRANCH  16  23
HETATM   23  C17 UNL     1      27.770  13.934  29.623  1.00  0.00     0.014 C
BRANCH  23  24
HETATM   24  C18 UNL     1      27.148  13.734  30.969  1.00  0.00     0.027 C
BRANCH  24  25
HETATM   25  C19 UNL     1      26.544  12.329  31.083  1.00  0.00     0.164 C
BRANCH  25  26
HETATM   26  O6  UNL     1      27.531  11.416  30.731  1.00  0.00    -0.401 OA
ATOM     27  H6  UNL     1      27.109  10.576  30.585  1.00  0.00     0.209 HD
ENDBRANCH  25  26
ENDBRANCH  24  25
ENDBRANCH  23  24
ENDBRANCH  16  23
TORSDOF 7
ENDMDL