MODEL 3
REMARK VINA RESULT: -5.709831763      5.139      7.227
REMARK  5 active torsions:
REMARK  status: ('A' for Active; 'I' for Inactive)
REMARK    1  A    between atoms: C4_4  and  C5_5
REMARK    2  A    between atoms: C7_9  and  C8_10
REMARK    3  A    between atoms: C9_11  and  C10_12
REMARK    4  A    between atoms: C18_23  and  C19_24
REMARK    5  A    between atoms: C19_24  and  O6_25
ROOT
HETATM    1  C5  UNL     1      28.352  15.417  29.884  1.00  0.00     0.163 C
HETATM    2  O1  UNL     1      28.105  16.553  30.668  1.00  0.00    -0.310 OA
HETATM    3  C6  UNL     1      27.346  17.602  30.244  1.00  0.00     0.272 C
HETATM    4  O2  UNL     1      26.912  18.413  31.124  1.00  0.00    -0.264 OA
HETATM    5  C7  UNL     1      26.990  17.862  28.802  1.00  0.00     0.072 C
HETATM    6  C11 UNL     1      27.689  19.043  28.288  1.00  0.00     0.026 C
HETATM    7  C12 UNL     1      29.145  19.056  28.095  1.00  0.00     0.028 C
HETATM    8  C13 UNL     1      29.997  18.776  29.296  1.00  0.00     0.175 C
HETATM    9  O5  UNL     1      30.476  17.426  29.330  1.00  0.00    -0.355 OA
HETATM   10  C14 UNL     1      30.418  16.688  28.191  1.00  0.00     0.053 A
HETATM   11  C15 UNL     1      29.462  15.917  27.756  1.00  0.00    -0.037 A
HETATM   12  C16 UNL     1      30.686  16.033  26.907  1.00  0.00     0.102 A
HETATM   13  C17 UNL     1      28.180  15.642  28.401  1.00  0.00     0.058 C
HETATM   14  C18 UNL     1      27.077  16.590  28.046  1.00  0.00     0.042 C
ENDROOT
BRANCH   5  15
HETATM   15  C8  UNL     1      25.547  18.248  28.863  1.00  0.00     0.000 C
HETATM   16  C9  UNL     1      24.908  18.988  28.007  1.00  0.00     0.081 C
BRANCH  16  17
HETATM   17  C10 UNL     1      23.492  19.268  28.222  1.00  0.00     0.198 C
HETATM   18  O3  UNL     1      22.821  18.583  29.037  1.00  0.00    -0.645 OA
HETATM   19  O4  UNL     1      22.903  20.316  27.499  1.00  0.00    -0.645 OA
ENDBRANCH  16  17
ENDBRANCH   5  15
BRANCH  14  20
HETATM   20  C19 UNL     1      27.019  16.725  26.558  1.00  0.00     0.171 C
BRANCH  20  21
HETATM   21  O6  UNL     1      25.762  16.311  26.055  1.00  0.00    -0.400 OA
ATOM     22  H6  UNL     1      25.864  15.731  25.310  1.00  0.00     0.209 HD
ENDBRANCH  20  21
ENDBRANCH  14  20
BRANCH   1  23
HETATM   23  C4  UNL     1      27.372  14.378  30.341  1.00  0.00     0.008 C
HETATM   24  C2  UNL     1      27.760  13.187  30.775  1.00  0.00    -0.089 C
HETATM   25  C1  UNL     1      26.756  12.184  31.220  1.00  0.00     0.042 C
HETATM   26  C3  UNL     1      29.208  12.813  30.835  1.00  0.00     0.042 C
ENDBRANCH   1  23
TORSDOF 5
ENDMDL