MODEL 5
REMARK VINA RESULT: -5.693307181      2.583      6.042
REMARK  8 active torsions:
REMARK  status: ('A' for Active; 'I' for Inactive)
REMARK    1  A    between atoms: C2_2  and  C3_3
REMARK    2  A    between atoms: C3_3  and  O1_4
REMARK    3  A    between atoms: C5_7  and  C19_26
REMARK    4  A    between atoms: C6_8  and  C7_9
REMARK    5  A    between atoms: C7_9  and  C8_10
REMARK    6  A    between atoms: C12_16  and  C14_18
REMARK    7  A    between atoms: C14_18  and  C16_21
REMARK    8  A    between atoms: C16_21  and  O5_22
ROOT
HETATM    1  C3  UNL     1      28.621  13.579  29.960  1.00  0.00     0.094 C
HETATM    2  C4  UNL     1      29.718  14.211  30.626  1.00  0.00     0.054 C
HETATM    3  C5  UNL     1      30.904  14.873  29.991  1.00  0.00     0.023 C
HETATM    4  C6  UNL     1      32.063  13.893  30.072  1.00  0.00     0.006 C
HETATM    5  C10 UNL     1      31.684  12.480  29.712  1.00  0.00     0.089 C
HETATM    6  C11 UNL     1      30.985  12.354  28.420  1.00  0.00     0.159 C
HETATM    7  O3  UNL     1      31.621  11.601  27.679  1.00  0.00    -0.293 OA
HETATM    8  C12 UNL     1      29.757  12.851  27.729  1.00  0.00     0.029 C
HETATM    9  C13 UNL     1      28.591  13.037  28.603  1.00  0.00     0.029 C
ENDROOT
BRANCH   1  10
HETATM   10  C2  UNL     1      28.133  12.493  30.902  1.00  0.00     0.004 C
HETATM   11  C1  UNL     1      26.976  11.885  30.798  1.00  0.00     0.010 C
ENDBRANCH   1  10
BRANCH   1  12
HETATM   12  O1  UNL     1      27.459  14.426  30.064  1.00  0.00    -0.382 OA
ATOM     13  H1  UNL     1      27.337  14.331  31.001  1.00  0.00     0.211 HD
ENDBRANCH   1  12
BRANCH   3  14
HETATM   14  C19 UNL     1      30.787  15.350  28.651  1.00  0.00     0.130 C
HETATM   15  C18 UNL     1      31.926  15.439  27.651  1.00  0.00     0.038 C
HETATM   16  C17 UNL     1      31.012  16.183  26.614  1.00  0.00     0.075 C
HETATM   17  C16 UNL     1      29.978  16.900  27.497  1.00  0.00     0.200 C
HETATM   18  O6  UNL     1      30.613  16.712  28.698  1.00  0.00    -0.346 OA
BRANCH  17  19
HETATM   19  C14 UNL     1      28.649  16.294  27.656  1.00  0.00     0.168 A
HETATM   20  C15 UNL     1      27.452  17.006  27.238  1.00  0.00     0.218 A
HETATM   21  O4  UNL     1      27.870  17.187  28.562  1.00  0.00    -0.364 OA
ENDBRANCH  17  19
BRANCH  17  22
HETATM   22  O5  UNL     1      29.956  18.266  27.185  1.00  0.00    -0.363 OA
ATOM     23  H5  UNL     1      29.162  18.555  26.750  1.00  0.00     0.213 HD
ENDBRANCH  17  22
ENDBRANCH   3  14
BRANCH   4  24
HETATM   24  C7  UNL     1      32.780  13.868  31.369  1.00  0.00     0.083 C
BRANCH  24  25
HETATM   25  C8  UNL     1      33.915  14.795  31.505  1.00  0.00     0.123 C
HETATM   26  C9  UNL     1      34.603  15.358  30.304  1.00  0.00     0.091 C
HETATM   27  O2  UNL     1      34.327  15.129  32.585  1.00  0.00    -0.298 OA
ENDBRANCH  24  25
ENDBRANCH   4  24
TORSDOF 8
ENDMDL