MODEL 3
REMARK VINA RESULT: -6.572992848      2.569      7.419
REMARK  7 active torsions:
REMARK  status: ('A' for Active; 'I' for Inactive)
REMARK    1  A    between atoms: C4_4  and  O1_5
REMARK    2  A    between atoms: O1_5  and  C5_6
REMARK       I    between atoms: C5_6  and  N1_8
REMARK    3  A    between atoms: N1_8  and  C6_10
REMARK    4  A    between atoms: C13_19  and  N4_20
REMARK    5  A    between atoms: N4_20  and  N5_22
REMARK    6  A    between atoms: N5_22  and  N6_23
REMARK    7  A    between atoms: C14_26  and  C15_27
ROOT
HETATM    1  C6  UNL     1      19.669  14.154  33.138  1.00  0.00     0.124 C
HETATM    2  C7  UNL     1      19.844  13.062  34.102  1.00  0.00     0.091 C
HETATM    3  N2  UNL     1      19.983  12.206  34.842  1.00  0.00    -0.195 NA
HETATM    4  C8  UNL     1      19.179  15.400  33.795  1.00  0.00     0.047 C
HETATM    5  C9  UNL     1      18.068  15.507  32.773  1.00  0.00     0.007 C
HETATM    6  C10 UNL     1      18.352  14.083  32.368  1.00  0.00     0.047 C
ENDROOT
BRANCH   1   7
HETATM    7  N1  UNL     1      20.757  14.284  32.212  1.00  0.00    -0.314 N
HETATM    8  C5  UNL     1      22.081  14.338  32.712  1.00  0.00     0.366 C
HETATM    9  O2  UNL     1      22.317  14.275  33.957  1.00  0.00    -0.238 OA
ATOM     10  H1  UNL     1      20.579  14.336  31.209  1.00  0.00     0.166 HD
BRANCH   8  11
HETATM   11  O1  UNL     1      23.193  14.462  31.895  1.00  0.00    -0.272 OA
BRANCH  11  12
HETATM   12  C4  UNL     1      24.217  13.520  31.876  1.00  0.00     0.177 C
HETATM   13  C3  UNL     1      25.346  13.777  31.243  1.00  0.00     0.062 C
HETATM   14  C2  UNL     1      26.577  13.031  31.039  1.00  0.00    -0.016 C
HETATM   15  N3  UNL     1      25.908  14.822  30.493  1.00  0.00    -0.353 N
HETATM   16  C1  UNL     1      26.889  11.771  30.991  1.00  0.00     0.023 C
HETATM   17  C11 UNL     1      27.227  14.328  30.923  1.00  0.00     0.122 C
HETATM   18  C12 UNL     1      28.123  14.559  29.749  1.00  0.00     0.060 C
HETATM   19  C13 UNL     1      27.342  15.424  28.815  1.00  0.00     0.150 C
HETATM   20  C14 UNL     1      26.223  15.963  29.659  1.00  0.00     0.211 C
BRANCH  19  21
HETATM   21  N4  UNL     1      28.134  16.459  28.194  1.00  0.00    -0.245 N
ATOM     22  H4  UNL     1      29.070  16.681  28.531  1.00  0.00     0.197 HD
BRANCH  21  23
HETATM   23  N5  UNL     1      27.636  17.064  27.240  1.00  0.00    -0.248 NA
BRANCH  23  24
HETATM   24  N6  UNL     1      26.954  17.676  26.396  1.00  0.00    -0.261 N
ATOM     25  H62 UNL     1      26.124  17.222  26.778  1.00  0.00     0.193 HD
ATOM     26  H61 UNL     1      26.550  18.245  25.653  1.00  0.00     0.193 HD
ENDBRANCH  23  24
ENDBRANCH  21  23
ENDBRANCH  19  21
BRANCH  20  27
HETATM   27  C15 UNL     1      26.618  17.124  30.468  1.00  0.00     0.199 C
HETATM   28  O3  UNL     1      25.877  18.132  30.504  1.00  0.00    -0.646 OA
HETATM   29  O4  UNL     1      27.785  17.107  31.180  1.00  0.00    -0.646 OA
ENDBRANCH  20  27
ENDBRANCH  11  12
ENDBRANCH   8  11
ENDBRANCH   1   7
TORSDOF 7
ENDMDL