MODEL 3
REMARK VINA RESULT: -7.074211421      2.412      3.511
REMARK  7 active torsions:
REMARK  status: ('A' for Active; 'I' for Inactive)
REMARK       I    between atoms: N1_2  and  C3_4
REMARK    1  A    between atoms: C3_4  and  C4_6
REMARK    2  A    between atoms: C4_6  and  S1_8
REMARK    3  A    between atoms: S1_8  and  C5_9
REMARK    4  A    between atoms: C7_11  and  N2_12
REMARK    5  A    between atoms: C10_15  and  O3_16
REMARK    6  A    between atoms: C12_19  and  C13_20
REMARK    7  A    between atoms: C14_21  and  C16_24
ROOT
HETATM    1  C13 UNL     1      25.720  14.183  31.046  1.00  0.00     0.042 C
HETATM    2  C14 UNL     1      24.850  13.219  31.170  1.00  0.00     0.121 C
HETATM    3  C15 UNL     1      25.164  11.862  30.833  1.00  0.00     0.106 C
HETATM    4  N3  UNL     1      25.411  10.734  30.585  1.00  0.00    -0.191 NA
ENDROOT
BRANCH   2   5
HETATM    5  C16 UNL     1      23.515  13.528  31.666  1.00  0.00     0.220 C
HETATM    6  O4  UNL     1      23.129  13.053  32.784  1.00  0.00    -0.643 OA
HETATM    7  O5  UNL     1      22.691  14.337  30.912  1.00  0.00    -0.643 OA
ENDBRANCH   2   5
BRANCH   1   8
HETATM    8  C12 UNL     1      27.083  14.027  30.560  1.00  0.00    -0.015 A
HETATM    9  C5  UNL     1      27.513  14.763  29.502  1.00  0.00     0.021 A
HETATM   10  C6  UNL     1      28.797  14.540  29.048  1.00  0.00     0.052 A
HETATM   11  C7  UNL     1      29.633  13.590  29.655  1.00  0.00     0.064 A
HETATM   12  C10 UNL     1      29.185  12.854  30.724  1.00  0.00     0.093 A
HETATM   13  C11 UNL     1      27.895  13.070  31.189  1.00  0.00     0.051 A
BRANCH   9  14
HETATM   14  S1  UNL     1      26.479  16.029  28.776  1.00  0.00    -0.042 SA
BRANCH  14  15
HETATM   15  C4  UNL     1      26.931  17.600  29.566  1.00  0.00     0.281 C
HETATM   16  O2  UNL     1      26.151  18.101  30.402  1.00  0.00    -0.274 OA
BRANCH  15  17
HETATM   17  C3  UNL     1      28.176  18.258  29.228  1.00  0.00     0.300 C
HETATM   18  N1  UNL     1      28.278  19.112  28.134  1.00  0.00    -0.353 N
HETATM   19  C1  UNL     1      29.551  19.758  27.848  1.00  0.00     0.152 C
HETATM   20  C2  UNL     1      27.184  19.381  27.256  1.00  0.00     0.152 C
HETATM   21  O1  UNL     1      29.222  18.047  29.963  1.00  0.00    -0.263 OA
ENDBRANCH  15  17
ENDBRANCH  14  15
ENDBRANCH   9  14
BRANCH  11  22
HETATM   22  N2  UNL     1      30.949  13.438  29.147  1.00  0.00    -0.387 N
HETATM   23  C8  UNL     1      31.981  14.387  29.535  1.00  0.00     0.149 C
HETATM   24  C9  UNL     1      31.326  12.373  28.252  1.00  0.00     0.149 C
ENDBRANCH  11  22
BRANCH  12  25
HETATM   25  O3  UNL     1      30.019  11.928  31.302  1.00  0.00    -0.358 OA
ATOM     26  H3  UNL     1      29.752  11.497  32.105  1.00  0.00     0.217 HD
ENDBRANCH  12  25
ENDBRANCH   1   8
TORSDOF 7
ENDMDL