MODEL 3
REMARK VINA RESULT: -7.852986489      2.465      4.077
REMARK  6 active torsions:
REMARK  status: ('A' for Active; 'I' for Inactive)
REMARK    1  A    between atoms: C9_10  and  C11_12
REMARK    2  A    between atoms: C11_12  and  O2_13
REMARK    3  A    between atoms: C11_12  and  C12_15
REMARK    4  A    between atoms: C13_16  and  C14_17
REMARK    5  A    between atoms: C16_20  and  C18_22
REMARK    6  A    between atoms: C18_22  and  O4_23
ROOT
HETATM    1  C11 UNL     1      28.920  12.645  30.322  1.00  0.00     0.150 C
ENDROOT
BRANCH   1   2
HETATM    2  C9  UNL     1      29.511  13.802  29.540  1.00  0.00     0.000 C
HETATM    3  C2  UNL     1      30.171  13.299  28.287  1.00  0.00    -0.007 C
HETATM    4  C1  UNL     1      29.135  12.757  27.361  1.00  0.00     0.011 C
HETATM    5  C3  UNL     1      30.883  14.440  27.595  1.00  0.00     0.006 C
HETATM    6  C4  UNL     1      30.016  15.613  27.319  1.00  0.00     0.018 C
HETATM    7  C5  UNL     1      28.753  15.696  28.067  1.00  0.00     0.028 A
HETATM    8  C6  UNL     1      27.542  16.251  27.305  1.00  0.00     0.024 C
HETATM    9  C7  UNL     1      28.781  16.247  29.486  1.00  0.00     0.142 A
HETATM   10  C8  UNL     1      28.490  14.824  29.166  1.00  0.00     0.083 A
HETATM   11  O1  UNL     1      28.956  17.248  30.147  1.00  0.00    -0.297 OA
HETATM   12  C10 UNL     1      30.504  14.461  30.480  1.00  0.00     0.019 C
ENDBRANCH   1   2
BRANCH   1  13
HETATM   13  O2  UNL     1      29.827  11.993  31.110  1.00  0.00    -0.391 OA
ATOM     14  H2  UNL     1      30.179  12.528  31.812  1.00  0.00     0.210 HD
ENDBRANCH   1  13
BRANCH   1  15
HETATM   15  C12 UNL     1      27.706  13.106  31.048  1.00  0.00     0.004 C
HETATM   16  C13 UNL     1      26.509  12.665  30.717  1.00  0.00     0.013 C
BRANCH  16  17
HETATM   17  C14 UNL     1      25.312  13.129  31.445  1.00  0.00     0.243 C
HETATM   18  O3  UNL     1      24.190  12.392  31.007  1.00  0.00    -0.369 OA
HETATM   19  C15 UNL     1      23.108  12.773  31.797  1.00  0.00     0.209 C
HETATM   20  C16 UNL     1      22.732  14.210  31.674  1.00  0.00     0.109 C
HETATM   21  C17 UNL     1      22.681  14.864  33.038  1.00  0.00     0.051 C
HETATM   22  O5  UNL     1      23.709  14.904  30.923  1.00  0.00    -0.304 OA
HETATM   23  C19 UNL     1      25.040  14.545  31.083  1.00  0.00     0.292 C
HETATM   24  O6  UNL     1      25.935  15.409  30.918  1.00  0.00    -0.262 OA
BRANCH  20  25
HETATM   25  C18 UNL     1      21.386  14.403  30.999  1.00  0.00     0.204 C
BRANCH  25  26
HETATM   26  O4  UNL     1      21.229  15.668  30.485  1.00  0.00    -0.398 OA
ATOM     27  H4  UNL     1      21.681  16.329  30.996  1.00  0.00     0.209 HD
ENDBRANCH  25  26
ENDBRANCH  20  25
ENDBRANCH  16  17
ENDBRANCH   1  15
TORSDOF 6
ENDMDL