MODEL 2
REMARK VINA RESULT: -6.989036734      3.183      8.256
REMARK  4 active torsions:
REMARK  status: ('A' for Active; 'I' for Inactive)
REMARK    1  A    between atoms: C2_2  and  C4_4
REMARK    2  A    between atoms: C4_4  and  C6_6
REMARK       I    between atoms: C6_6  and  N1_8
REMARK       I    between atoms: N3_14  and  C10_16
REMARK       I    between atoms: C10_16  and  N4_18
REMARK    3  A    between atoms: N4_18  and  S1_20
REMARK    4  A    between atoms: S1_20  and  C11_23
ROOT
HETATM    1  C6  UNL     1      26.758  16.448  29.683  1.00  0.00     0.246 C
HETATM    2  O1  UNL     1      25.653  16.971  29.966  1.00  0.00    -0.272 OA
HETATM    3  N1  UNL     1      26.970  15.087  30.035  1.00  0.00    -0.124 N
HETATM    4  C7  UNL     1      28.072  14.374  29.802  1.00  0.00     0.136 A
HETATM    5  C8  UNL     1      27.853  13.113  30.322  1.00  0.00     0.124 A
HETATM    6  N2  UNL     1      26.611  13.125  30.849  1.00  0.00    -0.200 N
ATOM      7  H2  UNL     1      26.172  12.326  31.306  1.00  0.00     0.183 HD
HETATM    8  C9  UNL     1      26.029  14.323  30.693  1.00  0.00     0.695 A
HETATM    9  N3  UNL     1      24.869  14.755  31.038  1.00  0.00    -0.140 N
ATOM     10  H3  UNL     1      24.619  15.720  30.818  1.00  0.00     0.189 HD
HETATM   11  C10 UNL     1      23.931  13.948  31.710  1.00  0.00     0.348 C
HETATM   12  O2  UNL     1      23.818  12.695  31.478  1.00  0.00    -0.245 OA
HETATM   13  N4  UNL     1      23.058  14.495  32.684  1.00  0.00    -0.230 N
ATOM     14  H4  UNL     1      23.107  15.489  32.906  1.00  0.00     0.183 HD
ENDROOT
BRANCH  13  15
HETATM   15  S1  UNL     1      21.924  13.502  33.489  1.00  0.00     0.288 S
HETATM   16  O3  UNL     1      22.107  13.626  34.970  1.00  0.00    -0.198 OA
HETATM   17  O4  UNL     1      22.088  12.047  33.119  1.00  0.00    -0.198 OA
BRANCH  15  18
HETATM   18  C11 UNL     1      20.284  14.003  33.061  1.00  0.00     0.190 A
HETATM   19  C12 UNL     1      19.185  14.030  33.892  1.00  0.00     0.053 A
HETATM   20  C13 UNL     1      18.093  14.479  33.181  1.00  0.00     0.028 A
HETATM   21  C14 UNL     1      18.598  14.714  31.899  1.00  0.00     0.143 A
HETATM   22  O5  UNL     1      19.876  14.419  31.890  1.00  0.00    -0.310 OA
ENDBRANCH  15  18
ENDBRANCH  13  15
BRANCH   1  23
HETATM   23  C4  UNL     1      27.764  17.291  29.006  1.00  0.00     0.078 C
HETATM   24  C5  UNL     1      28.525  18.114  30.021  1.00  0.00     0.020 C
BRANCH  23  25
HETATM   25  C2  UNL     1      27.092  18.101  27.939  1.00  0.00    -0.010 C
HETATM   26  C1  UNL     1      27.874  19.332  27.553  1.00  0.00     0.010 C
HETATM   27  C3  UNL     1      26.980  17.229  26.693  1.00  0.00     0.010 C
ENDBRANCH  23  25
ENDBRANCH   1  23
TORSDOF 4
ENDMDL