MODEL 3
REMARK VINA RESULT: -6.375650584      2.353      3.854
REMARK  6 active torsions:
REMARK  status: ('A' for Active; 'I' for Inactive)
REMARK    1  A    between atoms: C2_2  and  C4_4
REMARK    2  A    between atoms: C4_4  and  O2_6
REMARK    3  A    between atoms: O2_6  and  C5_7
REMARK    4  A    between atoms: C16_20  and  O5_21
REMARK    5  A    between atoms: C16_20  and  C17_23
REMARK    6  A    between atoms: C17_23  and  C18_24
ROOT
HETATM    1  C5  UNL     1      27.733  16.165  28.827  1.00  0.00     0.185 C
HETATM    2  C6  UNL     1      27.344  14.743  29.159  1.00  0.00     0.127 C
HETATM    3  C7  UNL     1      28.498  13.804  29.039  1.00  0.00     0.266 C
HETATM    4  O3  UNL     1      29.227  13.722  28.018  1.00  0.00    -0.265 OA
HETATM    5  O4  UNL     1      28.710  13.002  30.179  1.00  0.00    -0.315 OA
HETATM    6  C8  UNL     1      27.656  12.282  30.796  1.00  0.00     0.141 A
HETATM    7  C9  UNL     1      27.096  12.639  32.094  1.00  0.00     0.045 A
HETATM    8  C10 UNL     1      26.473  13.215  30.899  1.00  0.00    -0.007 A
HETATM    9  C11 UNL     1      25.196  12.712  30.313  1.00  0.00     0.018 C
HETATM   10  C12 UNL     1      26.862  14.638  30.567  1.00  0.00     0.035 C
HETATM   11  C13 UNL     1      25.682  15.501  30.745  1.00  0.00    -0.015 C
HETATM   12  C14 UNL     1      25.617  16.632  30.054  1.00  0.00    -0.050 C
HETATM   13  C15 UNL     1      24.388  17.495  30.268  1.00  0.00     0.046 C
HETATM   14  C16 UNL     1      26.613  17.129  29.112  1.00  0.00     0.117 C
ENDROOT
BRANCH   1  15
HETATM   15  O2  UNL     1      28.880  16.576  29.543  1.00  0.00    -0.308 OA
BRANCH  15  16
HETATM   16  C4  UNL     1      29.947  17.234  28.983  1.00  0.00     0.288 C
HETATM   17  O1  UNL     1      30.058  18.458  29.216  1.00  0.00    -0.260 OA
BRANCH  16  18
HETATM   18  C2  UNL     1      30.937  16.569  28.142  1.00  0.00     0.004 C
HETATM   19  C1  UNL     1      31.981  15.989  28.675  1.00  0.00     0.024 C
HETATM   20  C3  UNL     1      30.797  16.527  26.663  1.00  0.00     0.054 C
ENDBRANCH  16  18
ENDBRANCH  15  16
ENDBRANCH   1  15
BRANCH  14  21
HETATM   21  O5  UNL     1      27.161  18.299  29.708  1.00  0.00    -0.382 OA
ATOM     22  H5  UNL     1      26.667  19.053  29.408  1.00  0.00     0.211 HD
ENDBRANCH  14  21
BRANCH  14  23
HETATM   23  C17 UNL     1      25.930  17.617  27.865  1.00  0.00     0.158 C
BRANCH  23  24
HETATM   24  C18 UNL     1      26.204  19.026  27.541  1.00  0.00     0.175 C
HETATM   25  O6  UNL     1      25.234  19.847  27.607  1.00  0.00    -0.648 OA
HETATM   26  O7  UNL     1      27.415  19.561  27.167  1.00  0.00    -0.648 OA
ENDBRANCH  23  24
ENDBRANCH  14  23
TORSDOF 6
ENDMDL