MODEL 2
REMARK VINA RESULT: -7.717985229      1.059      1.249
REMARK  7 active torsions:
REMARK  status: ('A' for Active; 'I' for Inactive)
REMARK    1  A    between atoms: C2_2  and  O1_3
REMARK    2  A    between atoms: O1_3  and  C3_4
REMARK       I    between atoms: C3_4  and  N1_6
REMARK    3  A    between atoms: C6_9  and  C7_10
REMARK       I    between atoms: C7_10  and  N2_12
REMARK    4  A    between atoms: N2_12  and  C8_14
REMARK    5  A    between atoms: C11_18  and  C12_19
REMARK       I    between atoms: C12_19  and  N3_21
REMARK    6  A    between atoms: N3_21  and  C13_23
REMARK    7  A    between atoms: C13_23  and  C14_24
ROOT
HETATM    1  C8  UNL     1      17.693  14.100  63.674  1.00  0.00     0.092 A
HETATM    2  S1  UNL     1      18.545  12.593  63.543  1.00  0.00    -0.083 SA
HETATM    3  C9  UNL     1      19.902  13.131  62.688  1.00  0.00     0.053 A
HETATM    4  C10 UNL     1      19.669  14.461  62.524  1.00  0.00     0.027 A
HETATM    5  C11 UNL     1      18.527  14.971  63.032  1.00  0.00     0.066 A
ENDROOT
BRANCH   1   6
HETATM    6  N2  UNL     1      16.423  14.281  64.324  1.00  0.00    -0.320 N
HETATM    7  C7  UNL     1      15.243  14.247  63.493  1.00  0.00     0.226 C
HETATM    8  O3  UNL     1      15.357  14.065  62.262  1.00  0.00    -0.273 OA
ATOM      9  H2  UNL     1      16.358  14.428  65.331  1.00  0.00     0.169 HD
BRANCH   7  10
HETATM   10  C6  UNL     1      13.899  14.421  64.055  1.00  0.00     0.081 C
HETATM   11  C5  UNL     1      13.839  14.203  65.529  1.00  0.00     0.034 C
HETATM   12  C4  UNL     1      12.586  14.792  66.132  1.00  0.00     0.129 C
HETATM   13  N1  UNL     1      11.552  15.004  65.140  1.00  0.00    -0.328 N
HETATM   14  C3  UNL     1      10.208  14.562  65.382  1.00  0.00     0.362 C
HETATM   15  C19 UNL     1      11.815  15.663  63.877  1.00  0.00     0.129 C
HETATM   16  O2  UNL     1       9.923  13.976  66.478  1.00  0.00    -0.238 OA
HETATM   17  C18 UNL     1      13.319  15.798  63.753  1.00  0.00     0.034 C
BRANCH  14  18
HETATM   18  O1  UNL     1       9.196  14.744  64.468  1.00  0.00    -0.304 OA
BRANCH  18  19
HETATM   19  C2  UNL     1       8.081  15.592  64.690  1.00  0.00     0.176 C
HETATM   20  C1  UNL     1       6.864  14.796  65.074  1.00  0.00     0.034 C
ENDBRANCH  18  19
ENDBRANCH  14  18
ENDBRANCH   7  10
ENDBRANCH   1   6
BRANCH   5  21
HETATM   21  C12 UNL     1      18.188  16.421  62.898  1.00  0.00     0.254 C
HETATM   22  O4  UNL     1      17.097  16.886  63.286  1.00  0.00    -0.268 OA
HETATM   23  N3  UNL     1      19.086  17.356  62.321  1.00  0.00    -0.354 N
ATOM     24  H3  UNL     1      19.991  17.020  61.989  1.00  0.00     0.162 HD
BRANCH  23  25
HETATM   25  C13 UNL     1      18.780  18.758  62.182  1.00  0.00     0.155 C
BRANCH  25  26
HETATM   26  C14 UNL     1      18.602  19.139  60.717  1.00  0.00     0.139 C
HETATM   27  C15 UNL     1      17.208  18.719  60.246  1.00  0.00     0.035 C
HETATM   28  C16 UNL     1      16.874  19.725  59.158  1.00  0.00     0.029 C
HETATM   29  C17 UNL     1      17.891  20.795  59.394  1.00  0.00     0.168 C
HETATM   30  O5  UNL     1      18.551  20.512  60.568  1.00  0.00    -0.384 OA
ENDBRANCH  25  26
ENDBRANCH  23  25
ENDBRANCH   5  21
TORSDOF 7
ENDMDL