MODEL 2
REMARK VINA RESULT: -6.687832464      2.761      7.007
REMARK  8 active torsions:
REMARK  status: ('A' for Active; 'I' for Inactive)
REMARK    1  A    between atoms: C2_2  and  C4_4
REMARK    2  A    between atoms: C18_20  and  C19_21
REMARK       I    between atoms: C19_21  and  N1_23
REMARK    3  A    between atoms: N1_23  and  C20_25
REMARK    4  A    between atoms: C20_25  and  C21_26
REMARK    5  A    between atoms: C21_26  and  C22_27
REMARK    6  A    between atoms: C22_27  and  O5_29
REMARK    7  A    between atoms: O5_29  and  C23_30
REMARK    8  A    between atoms: C23_30  and  O6_31
ROOT
HETATM    1  C4  UNL     1      20.164  14.398  61.415  1.00  0.00     0.052 C
HETATM    2  C5  UNL     1      19.845  15.565  62.345  1.00  0.00     0.026 C
HETATM    3  C6  UNL     1      18.484  16.113  62.374  1.00  0.00    -0.008 C
HETATM    4  C7  UNL     1      18.449  17.015  63.649  1.00  0.00     0.018 C
HETATM    5  C8  UNL     1      18.208  17.116  61.264  1.00  0.00     0.122 C
HETATM    6  C9  UNL     1      16.726  17.159  61.353  1.00  0.00     0.260 C
HETATM    7  O1  UNL     1      16.007  18.154  61.168  1.00  0.00    -0.265 OA
HETATM    8  O2  UNL     1      16.291  15.894  61.680  1.00  0.00    -0.315 OA
HETATM    9  C10 UNL     1      17.328  15.231  62.423  1.00  0.00     0.141 C
HETATM   10  C11 UNL     1      16.831  14.962  63.834  1.00  0.00     0.037 C
HETATM   11  C12 UNL     1      16.351  13.575  64.001  1.00  0.00     0.036 C
HETATM   12  C13 UNL     1      17.030  12.523  63.217  1.00  0.00    -0.087 C
HETATM   13  C14 UNL     1      16.116  11.722  62.347  1.00  0.00     0.043 C
HETATM   14  C15 UNL     1      18.297  12.216  63.192  1.00  0.00    -0.020 C
HETATM   15  C16 UNL     1      19.426  12.862  63.968  1.00  0.00     0.055 C
HETATM   16  C17 UNL     1      20.678  12.801  63.220  1.00  0.00    -0.010 C
HETATM   17  C18 UNL     1      21.052  13.433  62.112  1.00  0.00     0.014 C
ENDROOT
BRANCH  17  18
HETATM   18  C19 UNL     1      22.359  13.035  61.530  1.00  0.00     0.248 C
HETATM   19  O3  UNL     1      22.361  12.250  60.569  1.00  0.00    -0.268 OA
HETATM   20  N1  UNL     1      23.609  13.474  61.976  1.00  0.00    -0.353 N
ATOM     21  H1  UNL     1      23.599  14.099  62.782  1.00  0.00     0.163 HD
BRANCH  20  22
HETATM   22  C20 UNL     1      24.887  13.164  61.452  1.00  0.00     0.156 C
BRANCH  22  23
HETATM   23  C21 UNL     1      26.097  13.705  62.072  1.00  0.00     0.075 C
BRANCH  23  24
HETATM   24  C22 UNL     1      26.196  14.000  63.486  1.00  0.00     0.282 C
HETATM   25  O4  UNL     1      27.264  13.746  64.113  1.00  0.00    -0.260 OA
BRANCH  24  26
HETATM   26  O5  UNL     1      25.158  14.562  64.211  1.00  0.00    -0.293 OA
BRANCH  26  27
HETATM   27  C23 UNL     1      24.847  15.933  64.115  1.00  0.00     0.345 C
BRANCH  27  28
HETATM   28  O6  UNL     1      23.627  16.152  63.455  1.00  0.00    -0.377 OA
ATOM     29  H6  UNL     1      23.668  16.896  62.864  1.00  0.00     0.212 HD
ENDBRANCH  27  28
ENDBRANCH  26  27
ENDBRANCH  24  26
ENDBRANCH  23  24
ENDBRANCH  22  23
ENDBRANCH  20  22
ENDBRANCH  17  18
BRANCH   1  30
HETATM   30  C2  UNL     1      20.737  15.061  60.214  1.00  0.00    -0.084 C
HETATM   31  C1  UNL     1      20.207  14.835  58.994  1.00  0.00     0.014 C
HETATM   32  C3  UNL     1      21.800  16.105  60.295  1.00  0.00     0.043 C
ENDBRANCH   1  30
TORSDOF 8
ENDMDL