MODEL 1
REMARK VINA RESULT: -6.832458474      0.000      0.000
REMARK  8 active torsions:
REMARK  status: ('A' for Active; 'I' for Inactive)
REMARK    1  A    between atoms: C9_9  and  C11_11
REMARK    2  A    between atoms: C11_11  and  S1_12
REMARK    3  A    between atoms: S1_12  and  N1_15
REMARK       I    between atoms: N1_15  and  C12_17
REMARK    4  A    between atoms: C12_17  and  S2_19
REMARK    5  A    between atoms: S2_19  and  C13_20
REMARK    6  A    between atoms: C13_20  and  C14_21
REMARK    7  A    between atoms: C14_21  and  C15_22
REMARK    8  A    between atoms: C17_25  and  C18_26
ROOT
HETATM    1  C15 UNL     1       8.616  15.565  64.870  1.00  0.00     0.124 C
HETATM    2  C16 UNL     1       8.029  14.728  63.828  1.00  0.00     0.059 C
HETATM    3  N2  UNL     1       7.539  14.061  62.998  1.00  0.00    -0.197 NA
ENDROOT
BRANCH   1   4
HETATM    4  C14 UNL     1       9.720  14.841  65.605  1.00  0.00     0.025 C
BRANCH   4   5
HETATM    5  C13 UNL     1      11.069  15.114  65.027  1.00  0.00     0.085 C
BRANCH   5   6
HETATM    6  S2  UNL     1      12.423  14.436  65.974  1.00  0.00    -0.068 SA
BRANCH   6   7
HETATM    7  C12 UNL     1      13.781  14.031  64.907  1.00  0.00     0.293 C
HETATM    8  N1  UNL     1      14.573  15.049  64.377  1.00  0.00    -0.245 N
ATOM      9  H1  UNL     1      14.358  16.017  64.615  1.00  0.00     0.182 HD
HETATM   10  O3  UNL     1      14.019  12.841  64.636  1.00  0.00    -0.259 OA
BRANCH   8  11
HETATM   11  S1  UNL     1      15.930  14.716  63.311  1.00  0.00     0.234 S
HETATM   12  O1  UNL     1      16.823  13.792  64.044  1.00  0.00    -0.206 OA
HETATM   13  O2  UNL     1      15.311  13.958  62.191  1.00  0.00    -0.206 OA
BRANCH  11  14
HETATM   14  C11 UNL     1      16.643  16.262  62.895  1.00  0.00     0.174 C
BRANCH  14  15
HETATM   15  C9  UNL     1      18.065  16.299  62.508  1.00  0.00    -0.008 C
HETATM   16  C7  UNL     1      18.503  15.617  61.267  1.00  0.00    -0.028 C
HETATM   17  C2  UNL     1      19.755  16.380  60.808  1.00  0.00    -0.035 C
HETATM   18  C6  UNL     1      17.553  16.002  60.146  1.00  0.00     0.011 C
HETATM   19  C8  UNL     1      18.742  14.176  61.263  1.00  0.00     0.016 C
HETATM   20  C1  UNL     1      20.939  16.247  61.668  1.00  0.00     0.016 C
HETATM   21  C3  UNL     1      20.175  16.050  59.406  1.00  0.00     0.016 C
HETATM   22  C4  UNL     1      19.052  17.750  60.860  1.00  0.00     0.009 C
HETATM   23  C5  UNL     1      17.993  17.427  59.828  1.00  0.00     0.007 C
HETATM   24  C17 UNL     1      18.515  17.719  62.266  1.00  0.00     0.101 C
HETATM   25  C10 UNL     1      18.820  15.830  63.748  1.00  0.00     0.018 C
BRANCH  24  26
HETATM   26  C18 UNL     1      17.628  18.793  62.649  1.00  0.00     0.178 C
HETATM   27  O4  UNL     1      17.591  19.307  63.797  1.00  0.00    -0.648 OA
HETATM   28  O5  UNL     1      16.732  19.356  61.767  1.00  0.00    -0.648 OA
ENDBRANCH  24  26
ENDBRANCH  14  15
ENDBRANCH  11  14
ENDBRANCH   8  11
ENDBRANCH   6   7
ENDBRANCH   5   6
ENDBRANCH   4   5
ENDBRANCH   1   4
TORSDOF 8
ENDMDL