MODEL 2
REMARK VINA RESULT: -7.219909249      2.702      4.349
REMARK  8 active torsions:
REMARK  status: ('A' for Active; 'I' for Inactive)
REMARK    1  A    between atoms: C18_21  and  O4_22
REMARK    2  A    between atoms: C18_21  and  C19_24
REMARK    3  A    between atoms: C19_24  and  C20_26
REMARK    4  A    between atoms: C20_26  and  C21_27
REMARK    5  A    between atoms: C21_27  and  C22_28
REMARK    6  A    between atoms: C22_28  and  C23_29
REMARK    7  A    between atoms: C23_29  and  C24_30
REMARK    8  A    between atoms: C24_30  and  N1_31
ROOT
HETATM    1  C1  UNL     1      24.884  15.160  61.798  1.00  0.00     0.018 C
HETATM    2  C2  UNL     1      23.907  14.282  61.024  1.00  0.00    -0.013 C
HETATM    3  C3  UNL     1      24.458  14.134  59.636  1.00  0.00     0.022 C
HETATM    4  C4  UNL     1      25.681  13.285  59.580  1.00  0.00     0.112 C
HETATM    5  C5  UNL     1      25.607  12.142  60.495  1.00  0.00     0.259 C
HETATM    6  O1  UNL     1      26.195  11.047  60.209  1.00  0.00    -0.265 OA
HETATM    7  O2  UNL     1      24.915  12.217  61.663  1.00  0.00    -0.315 OA
HETATM    8  C6  UNL     1      23.751  13.014  61.783  1.00  0.00     0.140 C
HETATM    9  C7  UNL     1      22.518  12.227  61.503  1.00  0.00     0.034 C
HETATM   10  C8  UNL     1      21.694  12.710  60.354  1.00  0.00     0.008 C
HETATM   11  C9  UNL     1      21.549  14.183  60.228  1.00  0.00    -0.004 C
HETATM   12  C10 UNL     1      22.559  15.006  60.958  1.00  0.00     0.001 C
HETATM   13  C11 UNL     1      22.148  15.533  62.278  1.00  0.00     0.007 C
HETATM   14  C12 UNL     1      20.806  15.145  62.781  1.00  0.00     0.014 C
HETATM   15  C13 UNL     1      19.720  14.963  61.820  1.00  0.00     0.006 C
HETATM   16  C14 UNL     1      18.845  13.752  62.185  1.00  0.00     0.020 C
HETATM   17  C15 UNL     1      20.162  14.722  60.395  1.00  0.00     0.009 C
HETATM   18  C16 UNL     1      20.095  16.093  59.691  1.00  0.00     0.088 C
HETATM   19  C17 UNL     1      19.602  17.013  60.785  1.00  0.00     0.169 C
HETATM   20  O3  UNL     1      19.793  18.172  60.990  1.00  0.00    -0.294 OA
HETATM   21  C18 UNL     1      18.765  16.091  61.607  1.00  0.00     0.185 C
ENDROOT
BRANCH  21  22
HETATM   22  O4  UNL     1      17.786  15.610  60.687  1.00  0.00    -0.374 OA
ATOM     23  H4  UNL     1      17.547  14.742  60.990  1.00  0.00     0.211 HD
ENDBRANCH  21  22
BRANCH  21  24
HETATM   24  C19 UNL     1      18.090  16.671  62.737  1.00  0.00     0.169 C
HETATM   25  O5  UNL     1      18.546  17.110  63.777  1.00  0.00    -0.294 OA
BRANCH  24  26
HETATM   26  C20 UNL     1      16.584  16.783  62.696  1.00  0.00     0.082 C
BRANCH  26  27
HETATM   27  C21 UNL     1      16.177  18.240  62.599  1.00  0.00     0.007 C
BRANCH  27  28
HETATM   28  C22 UNL     1      15.846  18.617  61.169  1.00  0.00     0.002 C
BRANCH  28  29
HETATM   29  C23 UNL     1      16.698  19.762  60.684  1.00  0.00     0.027 C
BRANCH  29  30
HETATM   30  C24 UNL     1      16.964  19.571  59.203  1.00  0.00     0.229 C
BRANCH  30  31
HETATM   31  N1  UNL     1      17.142  18.161  58.881  1.00  0.00    -0.079 N
ATOM     32  H13 UNL     1      17.210  17.589  59.723  1.00  0.00     0.274 HD
ATOM     33  H12 UNL     1      16.293  17.757  58.486  1.00  0.00     0.274 HD
ATOM     34  H11 UNL     1      17.946  18.025  58.268  1.00  0.00     0.274 HD
ENDBRANCH  30  31
ENDBRANCH  29  30
ENDBRANCH  28  29
ENDBRANCH  27  28
ENDBRANCH  26  27
ENDBRANCH  24  26
ENDBRANCH  21  24
TORSDOF 8
ENDMDL