MODEL 3
REMARK VINA RESULT: -8.717391809      1.824      2.659
REMARK  7 active torsions:
REMARK  status: ('A' for Active; 'I' for Inactive)
REMARK    1  A    between atoms: N1_8  and  C6_9
REMARK    2  A    between atoms: C6_9  and  C7_10
REMARK       I    between atoms: C7_10  and  N2_12
REMARK    3  A    between atoms: N2_12  and  C8_14
REMARK    4  A    between atoms: C11_18  and  C12_19
REMARK       I    between atoms: C12_19  and  N3_21
REMARK    5  A    between atoms: N3_21  and  C13_23
REMARK    6  A    between atoms: C13_23  and  C14_24
REMARK    7  A    between atoms: C14_24  and  C15_25
ROOT
HETATM    1  C8  UNL     1      16.040  15.921  63.011  1.00  0.00     0.165 A
HETATM    2  O4  UNL     1      17.020  15.033  62.910  1.00  0.00    -0.305 OA
HETATM    3  C9  UNL     1      16.601  13.820  63.034  1.00  0.00     0.145 A
HETATM    4  C10 UNL     1      15.258  13.868  63.230  1.00  0.00     0.046 A
HETATM    5  C11 UNL     1      14.895  15.220  63.215  1.00  0.00     0.085 A
ENDROOT
BRANCH   1   6
HETATM    6  N2  UNL     1      16.178  17.340  62.919  1.00  0.00    -0.305 N
HETATM    7  C7  UNL     1      16.759  17.877  61.747  1.00  0.00     0.241 C
HETATM    8  O3  UNL     1      17.124  17.110  60.834  1.00  0.00    -0.271 OA
ATOM      9  H2  UNL     1      15.867  17.948  63.678  1.00  0.00     0.171 HD
BRANCH   7  10
HETATM   10  C6  UNL     1      16.921  19.340  61.633  1.00  0.00     0.220 C
BRANCH  10  11
HETATM   11  N1  UNL     1      18.046  19.664  60.834  1.00  0.00    -0.400 N
HETATM   12  C5  UNL     1      17.853  20.573  59.765  1.00  0.00     0.151 C
HETATM   13  C4  UNL     1      19.207  21.149  59.408  1.00  0.00     0.164 C
HETATM   14  O2  UNL     1      19.171  22.545  59.313  1.00  0.00    -0.309 OA
HETATM   15  C22 UNL     1      20.100  20.805  60.579  1.00  0.00     0.032 C
HETATM   16  C3  UNL     1      19.761  23.114  60.405  1.00  0.00     0.289 C
HETATM   17  C2  UNL     1      20.508  22.092  61.148  1.00  0.00     0.020 C
HETATM   18  O1  UNL     1      19.699  24.310  60.750  1.00  0.00    -0.260 OA
HETATM   19  C1  UNL     1      21.369  22.280  62.125  1.00  0.00     0.026 C
HETATM   20  C21 UNL     1      19.256  19.969  61.516  1.00  0.00     0.134 C
HETATM   21  C23 UNL     1      21.294  19.982  60.149  1.00  0.00     0.025 C
ENDBRANCH  10  11
ENDBRANCH   7  10
ENDBRANCH   1   6
BRANCH   5  22
HETATM   22  C12 UNL     1      13.543  15.729  63.379  1.00  0.00     0.256 C
HETATM   23  O5  UNL     1      13.090  16.732  62.782  1.00  0.00    -0.268 OA
HETATM   24  N3  UNL     1      12.621  15.073  64.273  1.00  0.00    -0.356 N
ATOM     25  H3  UNL     1      12.925  14.251  64.797  1.00  0.00     0.162 HD
BRANCH  24  26
HETATM   26  C13 UNL     1      11.272  15.566  64.436  1.00  0.00     0.127 C
BRANCH  26  27
HETATM   27  C14 UNL     1      10.652  14.798  65.566  1.00  0.00     0.053 C
BRANCH  27  28
HETATM   28  C15 UNL     1       9.174  14.773  65.562  1.00  0.00    -0.082 C
HETATM   29  C16 UNL     1       8.429  13.873  66.139  1.00  0.00    -0.024 C
HETATM   30  C17 UNL     1       6.942  13.854  66.132  1.00  0.00     0.027 C
HETATM   31  C18 UNL     1       6.317  14.826  65.189  1.00  0.00     0.004 C
HETATM   32  C19 UNL     1       7.289  15.308  64.124  1.00  0.00     0.005 C
HETATM   33  C20 UNL     1       8.507  15.895  64.825  1.00  0.00     0.034 C
ENDBRANCH  27  28
ENDBRANCH  26  27
ENDBRANCH  24  26
ENDBRANCH   5  22
TORSDOF 7
ENDMDL