MODEL 2
REMARK VINA RESULT: -8.843793857      1.024      1.523
REMARK  7 active torsions:
REMARK  status: ('A' for Active; 'I' for Inactive)
REMARK    1  A    between atoms: O1_2  and  C2_3
REMARK    2  A    between atoms: C4_5  and  C5_6
REMARK    3  A    between atoms: C6_7  and  C8_10
REMARK       I    between atoms: C8_10  and  N2_12
REMARK    4  A    between atoms: N2_12  and  C9_14
REMARK    5  A    between atoms: C18_25  and  O3_26
REMARK    6  A    between atoms: O3_26  and  C19_27
REMARK    7  A    between atoms: C19_27  and  C20_28
ROOT
HETATM    1  C5  UNL     1      15.782  14.384  63.885  1.00  0.00     0.058 C
HETATM    2  C6  UNL     1      16.237  13.257  63.384  1.00  0.00     0.114 C
HETATM    3  C7  UNL     1      15.330  12.212  63.012  1.00  0.00     0.105 C
HETATM    4  N1  UNL     1      14.598  11.345  62.684  1.00  0.00    -0.191 NA
ENDROOT
BRANCH   2   5
HETATM    5  C8  UNL     1      17.687  13.040  63.195  1.00  0.00     0.262 C
HETATM    6  O2  UNL     1      18.209  12.053  63.769  1.00  0.00    -0.267 OA
HETATM    7  N2  UNL     1      18.465  13.916  62.394  1.00  0.00    -0.351 N
ATOM      8  H2  UNL     1      18.028  14.715  61.933  1.00  0.00     0.163 HD
BRANCH   7   9
HETATM    9  C9  UNL     1      19.862  13.670  62.239  1.00  0.00     0.095 C
HETATM   10  C10 UNL     1      20.180  13.335  60.846  1.00  0.00     0.026 C
HETATM   11  C11 UNL     1      19.752  14.155  59.676  1.00  0.00     0.002 C
HETATM   12  C12 UNL     1      20.841  15.117  59.189  1.00  0.00     0.001 C
HETATM   13  C13 UNL     1      20.833  16.522  59.610  1.00  0.00     0.011 C
HETATM   14  C14 UNL     1      21.371  16.811  61.052  1.00  0.00     0.080 C
HETATM   15  C15 UNL     1      20.895  15.735  61.817  1.00  0.00    -0.181 C
HETATM   16  C16 UNL     1      20.683  14.839  62.878  1.00  0.00     0.105 C
ENDBRANCH   7   9
ENDBRANCH   2   5
BRANCH   1  17
HETATM   17  C4  UNL     1      14.407  14.731  64.125  1.00  0.00     0.036 A
HETATM   18  C3  UNL     1      13.788  14.436  65.300  1.00  0.00     0.069 A
HETATM   19  C2  UNL     1      12.464  14.719  65.553  1.00  0.00     0.105 A
HETATM   20  C18 UNL     1      11.703  15.351  64.538  1.00  0.00     0.117 A
HETATM   21  C17 UNL     1      12.392  15.632  63.351  1.00  0.00     0.128 A
HETATM   22  N3  UNL     1      13.667  15.334  63.170  1.00  0.00    -0.363 N
ATOM     23  H3  UNL     1      14.107  15.567  62.279  1.00  0.00     0.165 HD
BRANCH  19  24
HETATM   24  O1  UNL     1      11.846  14.414  66.752  1.00  0.00    -0.353 OA
HETATM   25  C1  UNL     1      11.217  13.152  66.882  1.00  0.00     0.210 C
ENDBRANCH  19  24
BRANCH  20  26
HETATM   26  O3  UNL     1      10.459  15.615  64.775  1.00  0.00    -0.346 OA
BRANCH  26  27
HETATM   27  C19 UNL     1       9.245  15.783  65.175  1.00  0.00     0.182 C
BRANCH  27  28
HETATM   28  C20 UNL     1       8.286  14.665  64.791  1.00  0.00     0.036 C
HETATM   29  C21 UNL     1       7.722  13.972  65.987  1.00  0.00     0.035 C
HETATM   30  C22 UNL     1       6.231  14.054  65.741  1.00  0.00     0.168 C
HETATM   31  O4  UNL     1       6.046  15.088  64.855  1.00  0.00    -0.391 OA
HETATM   32  C23 UNL     1       7.127  15.133  64.001  1.00  0.00     0.174 C
ENDBRANCH  27  28
ENDBRANCH  26  27
ENDBRANCH  20  26
ENDBRANCH   1  17
TORSDOF 7
ENDMDL