MODEL 2
REMARK VINA RESULT: -8.409132573      0.673      1.119
REMARK  9 active torsions:
REMARK  status: ('A' for Active; 'I' for Inactive)
REMARK    1  A    between atoms: C2_2  and  C3_3
REMARK    2  A    between atoms: C4_5  and  N1_6
REMARK    3  A    between atoms: C10_14  and  C11_15
REMARK    4  A    between atoms: C11_15  and  S2_16
REMARK    5  A    between atoms: S2_16  and  C12_17
REMARK    6  A    between atoms: C12_17  and  C13_18
REMARK    7  A    between atoms: C13_18  and  O1_19
REMARK    8  A    between atoms: C13_18  and  N3_21
REMARK    9  A    between atoms: N3_21  and  C14_23
ROOT
HETATM    1  C11 UNL     1      14.516  13.374  63.565  1.00  0.00     0.118 C
ENDROOT
BRANCH   1   2
HETATM    2  C10 UNL     1      15.731  14.159  63.022  1.00  0.00    -0.029 A
HETATM    3  C3  UNL     1      16.970  13.761  63.435  1.00  0.00     0.013 A
HETATM    4  S1  UNL     1      17.950  15.097  63.255  1.00  0.00    -0.072 SA
HETATM    5  C4  UNL     1      16.778  16.219  62.601  1.00  0.00     0.073 A
HETATM    6  C9  UNL     1      15.633  15.454  62.564  1.00  0.00     0.046 A
BRANCH   3   7
HETATM    7  C2  UNL     1      17.349  12.323  63.578  1.00  0.00     0.009 C
HETATM    8  C1  UNL     1      18.512  11.974  63.883  1.00  0.00     0.013 C
ENDBRANCH   3   7
BRANCH   5   9
HETATM    9  N1  UNL     1      17.126  17.550  62.270  1.00  0.00    -0.366 N
HETATM   10  C5  UNL     1      18.542  17.929  62.326  1.00  0.00     0.168 C
HETATM   11  C6  UNL     1      18.946  17.955  60.858  1.00  0.00     0.080 C
HETATM   12  N2  UNL     1      18.072  18.645  60.030  1.00  0.00    -0.379 N
HETATM   13  C7  UNL     1      16.700  18.749  60.283  1.00  0.00     0.080 C
ATOM     14  H2  UNL     1      18.448  19.098  59.197  1.00  0.00     0.164 HD
HETATM   15  C8  UNL     1      16.261  18.560  61.747  1.00  0.00     0.168 C
ENDBRANCH   5   9
ENDBRANCH   1   2
BRANCH   1  16
HETATM   16  S2  UNL     1      13.866  14.056  65.063  1.00  0.00    -0.133 SA
BRANCH  16  17
HETATM   17  C12 UNL     1      12.896  15.582  64.690  1.00  0.00     0.101 C
BRANCH  17  18
HETATM   18  C13 UNL     1      11.884  15.450  63.809  1.00  0.00     0.147 C
BRANCH  18  19
HETATM   19  O1  UNL     1      12.311  16.586  62.830  1.00  0.00    -0.346 OA
ATOM     20  H1  UNL     1      13.249  16.439  62.867  1.00  0.00     0.219 HD
ENDBRANCH  18  19
BRANCH  18  21
HETATM   21  N3  UNL     1      10.766  15.051  63.163  1.00  0.00    -0.330 N
ATOM     22  H3  UNL     1      10.788  14.892  62.156  1.00  0.00     0.168 HD
BRANCH  21  23
HETATM   23  C14 UNL     1       9.533  14.847  63.904  1.00  0.00     0.093 A
HETATM   24  C15 UNL     1       8.351  14.232  63.420  1.00  0.00     0.128 A
HETATM   25  N4  UNL     1       7.498  14.025  64.379  1.00  0.00    -0.352 N
HETATM   26  C16 UNL     1       7.608  14.303  65.578  1.00  0.00     0.055 A
HETATM   27  C19 UNL     1       6.095  13.350  64.222  1.00  0.00     0.129 A
HETATM   28  S3  UNL     1       9.238  15.028  65.571  1.00  0.00    -0.058 SA
HETATM   29  C17 UNL     1       6.521  13.954  66.503  1.00  0.00     0.067 A
HETATM   30  C18 UNL     1       5.564  13.257  65.588  1.00  0.00     0.027 A
ENDBRANCH  21  23
ENDBRANCH  18  21
ENDBRANCH  17  18
ENDBRANCH  16  17
ENDBRANCH   1  16
TORSDOF 9
ENDMDL