MODEL 1
REMARK VINA RESULT: -6.168075293      0.000      0.000
REMARK  10 active torsions:
REMARK  status: ('A' for Active; 'I' for Inactive)
REMARK    1  A    between atoms: C2_2  and  O2_4
REMARK    2  A    between atoms: O2_4  and  C3_5
REMARK    3  A    between atoms: C3_5  and  O3_7
REMARK    4  A    between atoms: O3_7  and  C5_8
REMARK    5  A    between atoms: C5_8  and  C6_9
REMARK    6  A    between atoms: C5_8  and  C7_12
REMARK    7  A    between atoms: N1_17  and  C12_18
REMARK    8  A    between atoms: C12_18  and  C13_20
REMARK    9  A    between atoms: C13_20  and  C15_22
REMARK   10  A    between atoms: C15_22  and  O6_23
ROOT
HETATM    1  C7  UNL     1      19.293  18.967  61.186  1.00  0.00     0.124 C
HETATM    2  C8  UNL     1      18.402  19.062  62.414  1.00  0.00     0.028 C
HETATM    3  C9  UNL     1      16.990  18.861  61.910  1.00  0.00     0.004 C
HETATM    4  C10 UNL     1      16.822  17.531  61.213  1.00  0.00     0.020 C
HETATM    5  C11 UNL     1      17.830  17.424  60.106  1.00  0.00     0.124 C
HETATM    6  N1  UNL     1      19.179  17.659  60.708  1.00  0.00    -0.367 N
ENDROOT
BRANCH   6   7
HETATM    7  C12 UNL     1      20.011  16.529  60.677  1.00  0.00     0.082 C
HETATM    8  S1  UNL     1      20.623  15.835  59.298  1.00  0.00    -0.065 SA
BRANCH   7   9
HETATM    9  C13 UNL     1      20.475  15.760  61.869  1.00  0.00     0.077 C
HETATM   10  C14 UNL     1      21.731  14.937  61.481  1.00  0.00     0.020 C
BRANCH   9  11
HETATM   11  C15 UNL     1      19.503  14.729  62.358  1.00  0.00     0.067 C
HETATM   12  C16 UNL     1      20.093  13.491  62.904  1.00  0.00     0.038 C
HETATM   13  C17 UNL     1      19.139  12.679  63.716  1.00  0.00     0.003 C
HETATM   14  C18 UNL     1      17.679  12.944  63.443  1.00  0.00     0.000 C
HETATM   15  C19 UNL     1      17.340  14.414  63.507  1.00  0.00     0.003 C
HETATM   16  C20 UNL     1      18.583  15.278  63.462  1.00  0.00     0.038 C
BRANCH  11  17
HETATM   17  O6  UNL     1      18.610  14.380  61.310  1.00  0.00    -0.389 OA
ATOM     18  H6  UNL     1      17.722  14.345  61.646  1.00  0.00     0.210 HD
ENDBRANCH  11  17
ENDBRANCH   9  11
ENDBRANCH   7   9
ENDBRANCH   6   7
BRANCH   1  19
HETATM   19  C5  UNL     1      20.605  19.685  61.378  1.00  0.00     0.248 C
BRANCH  19  20
HETATM   20  O3  UNL     1      21.657  19.278  60.696  1.00  0.00    -0.343 OA
BRANCH  20  21
HETATM   21  C3  UNL     1      22.897  19.667  60.680  1.00  0.00     0.266 C
HETATM   22  C4  UNL     1      23.531  18.101  60.232  1.00  0.00     0.071 C
BRANCH  21  23
HETATM   23  O2  UNL     1      22.844  20.196  59.125  1.00  0.00    -0.290 OA
BRANCH  23  24
HETATM   24  C2  UNL     1      23.147  21.447  58.867  1.00  0.00     0.257 C
HETATM   25  C1  UNL     1      24.572  21.903  59.087  1.00  0.00     0.126 C
HETATM   26  O1  UNL     1      22.332  22.273  58.454  1.00  0.00    -0.266 OA
ENDBRANCH  23  24
ENDBRANCH  21  23
ENDBRANCH  20  21
ENDBRANCH  19  20
BRANCH  19  27
HETATM   27  C6  UNL     1      20.316  21.177  61.295  1.00  0.00     0.205 C
HETATM   28  O4  UNL     1      19.640  21.535  60.293  1.00  0.00    -0.646 OA
HETATM   29  O5  UNL     1      20.720  22.111  62.181  1.00  0.00    -0.646 OA
ENDBRANCH  19  27
ENDBRANCH   1  19
TORSDOF 10
ENDMDL