MODEL 1
REMARK VINA RESULT: -7.616951303      0.000      0.000
REMARK  8 active torsions:
REMARK  status: ('A' for Active; 'I' for Inactive)
REMARK    1  A    between atoms: O1_2  and  C2_3
REMARK    2  A    between atoms: C2_3  and  C3_5
REMARK    3  A    between atoms: C3_5  and  N1_6
REMARK    4  A    between atoms: N1_6  and  S1_8
REMARK    5  A    between atoms: S1_8  and  C4_11
REMARK    6  A    between atoms: C7_14  and  O5_15
REMARK    7  A    between atoms: C9_17  and  N2_18
REMARK       I    between atoms: N2_18  and  C10_19
REMARK    8  A    between atoms: C10_19  and  C11_21
ROOT
HETATM    1  C4  UNL     1      18.602  14.483  62.544  1.00  0.00     0.083 A
HETATM    2  C5  UNL     1      18.802  13.179  62.225  1.00  0.00     0.028 A
HETATM    3  C6  UNL     1      17.879  12.223  62.568  1.00  0.00     0.042 A
HETATM    4  C7  UNL     1      16.753  12.587  63.236  1.00  0.00     0.108 A
HETATM    5  C9  UNL     1      16.476  13.950  63.605  1.00  0.00     0.145 A
HETATM    6  C16 UNL     1      17.449  14.826  63.220  1.00  0.00     0.073 A
ENDROOT
BRANCH   1   7
HETATM    7  S1  UNL     1      19.811  15.666  62.106  1.00  0.00     0.260 S
HETATM    8  O3  UNL     1      20.038  15.492  60.652  1.00  0.00    -0.200 OA
HETATM    9  O4  UNL     1      21.101  15.208  62.785  1.00  0.00    -0.200 OA
BRANCH   7  10
HETATM   10  N1  UNL     1      19.385  17.128  62.695  1.00  0.00    -0.296 N
ATOM     11  H1  UNL     1      19.700  17.357  63.638  1.00  0.00     0.173 HD
BRANCH  10  12
HETATM   12  C3  UNL     1      18.636  18.087  62.032  1.00  0.00     0.128 C
HETATM   13  C17 UNL     1      17.763  18.795  63.054  1.00  0.00     0.042 C
HETATM   14  C18 UNL     1      16.341  18.538  62.639  1.00  0.00     0.003 C
HETATM   15  C19 UNL     1      16.447  18.587  61.145  1.00  0.00     0.003 C
HETATM   16  C20 UNL     1      17.736  17.781  60.926  1.00  0.00     0.042 C
BRANCH  12  17
HETATM   17  C2  UNL     1      19.609  19.123  61.555  1.00  0.00     0.287 C
HETATM   18  O2  UNL     1      20.389  18.926  60.595  1.00  0.00    -0.262 OA
BRANCH  17  19
HETATM   19  O1  UNL     1      19.660  20.363  62.205  1.00  0.00    -0.325 OA
HETATM   20  C1  UNL     1      20.584  21.331  61.696  1.00  0.00     0.213 C
ENDBRANCH  17  19
ENDBRANCH  12  17
ENDBRANCH  10  12
ENDBRANCH   7  10
ENDBRANCH   1   7
BRANCH   5  21
HETATM   21  N2  UNL     1      15.311  14.109  64.270  1.00  0.00    -0.367 NA
HETATM   22  C10 UNL     1      14.150  14.266  64.936  1.00  0.00     0.296 C
HETATM   23  O6  UNL     1      13.570  13.395  65.659  1.00  0.00    -0.257 OA
BRANCH  22  24
HETATM   24  C11 UNL     1      13.351  15.572  64.900  1.00  0.00     0.093 C
HETATM   25  C12 UNL     1      13.322  16.091  63.499  1.00  0.00     0.015 C
HETATM   26  C13 UNL     1      12.018  15.717  62.879  1.00  0.00     0.001 C
HETATM   27  C14 UNL     1      11.098  15.313  63.987  1.00  0.00     0.001 C
HETATM   28  C15 UNL     1      11.925  15.255  65.225  1.00  0.00     0.015 C
ENDBRANCH  22  24
ENDBRANCH   5  21
BRANCH   4  29
HETATM   29  O5  UNL     1      15.809  11.646  63.593  1.00  0.00    -0.353 OA
HETATM   30  C8  UNL     1      14.766  11.362  62.679  1.00  0.00     0.210 C
ENDBRANCH   4  29
TORSDOF 8
ENDMDL