MODEL 1
REMARK VINA RESULT: -8.264103156      0.000      0.000
REMARK  11 active torsions:
REMARK  status: ('A' for Active; 'I' for Inactive)
REMARK    1  A    between atoms: O1_2  and  C2_3
REMARK    2  A    between atoms: C2_3  and  C3_5
REMARK    3  A    between atoms: C9_11  and  C10_12
REMARK    4  A    between atoms: C10_12  and  C11_13
REMARK    5  A    between atoms: C10_12  and  C12_16
REMARK    6  A    between atoms: C11_13  and  O3_14
REMARK    7  A    between atoms: C12_16  and  C13_17
REMARK    8  A    between atoms: C13_17  and  O4_18
REMARK    9  A    between atoms: O4_18  and  C14_19
REMARK   10  A    between atoms: C14_19  and  C15_21
REMARK   11  A    between atoms: C23_30  and  O7_31
ROOT
HETATM    1  C3  UNL     1      17.964  18.594  61.600  1.00  0.00     0.080 C
HETATM    2  C4  UNL     1      17.647  18.528  63.076  1.00  0.00     0.023 C
HETATM    3  C5  UNL     1      18.313  17.386  63.724  1.00  0.00     0.009 C
HETATM    4  C6  UNL     1      18.625  16.191  62.897  1.00  0.00     0.020 C
HETATM    5  C7  UNL     1      18.586  14.985  63.791  1.00  0.00     0.010 C
HETATM    6  C8  UNL     1      17.430  14.058  63.508  1.00  0.00     0.033 C
HETATM    7  C9  UNL     1      16.342  14.868  62.866  1.00  0.00     0.128 C
HETATM    8  O6  UNL     1      16.786  15.204  61.625  1.00  0.00    -0.374 OA
HETATM    9  C18 UNL     1      17.904  16.054  61.594  1.00  0.00     0.066 C
HETATM   10  C19 UNL     1      18.827  15.386  60.584  1.00  0.00     0.047 C
HETATM   11  C20 UNL     1      17.436  17.330  61.023  1.00  0.00     0.041 C
HETATM   12  C21 UNL     1      17.510  17.562  59.576  1.00  0.00     0.011 C
HETATM   13  C22 UNL     1      16.968  18.997  59.463  1.00  0.00     0.033 C
HETATM   14  C23 UNL     1      16.968  19.555  60.895  1.00  0.00     0.137 C
ENDROOT
BRANCH   7  15
HETATM   15  C10 UNL     1      15.016  14.162  62.766  1.00  0.00     0.040 C
BRANCH  15  16
HETATM   16  C11 UNL     1      14.920  12.876  63.497  1.00  0.00     0.171 C
BRANCH  16  17
HETATM   17  O3  UNL     1      14.579  11.779  62.724  1.00  0.00    -0.400 OA
ATOM     18  H3  UNL     1      13.762  11.355  62.957  1.00  0.00     0.209 HD
ENDBRANCH  16  17
ENDBRANCH  15  16
BRANCH  15  19
HETATM   19  C12 UNL     1      13.909  15.148  63.087  1.00  0.00     0.036 C
BRANCH  19  20
HETATM   20  C13 UNL     1      13.106  14.766  64.299  1.00  0.00     0.179 C
BRANCH  20  21
HETATM   21  O4  UNL     1      11.983  15.569  64.532  1.00  0.00    -0.321 OA
BRANCH  21  22
HETATM   22  C14 UNL     1      10.685  15.264  64.215  1.00  0.00     0.262 C
HETATM   23  O5  UNL     1      10.392  14.917  63.057  1.00  0.00    -0.265 OA
BRANCH  22  24
HETATM   24  C15 UNL     1       9.660  15.366  65.306  1.00  0.00     0.077 C
HETATM   25  C16 UNL     1       8.282  15.264  64.701  1.00  0.00     0.020 C
HETATM   26  C17 UNL     1       9.926  14.332  66.348  1.00  0.00     0.020 C
ENDBRANCH  22  24
ENDBRANCH  21  22
ENDBRANCH  20  21
ENDBRANCH  19  20
ENDBRANCH  15  19
ENDBRANCH   7  15
BRANCH   1  27
HETATM   27  C2  UNL     1      19.315  18.999  61.313  1.00  0.00     0.270 C
HETATM   28  O2  UNL     1      20.136  18.292  60.718  1.00  0.00    -0.264 OA
BRANCH  27  29
HETATM   29  O1  UNL     1      19.738  20.257  61.723  1.00  0.00    -0.326 OA
HETATM   30  C1  UNL     1      21.047  20.731  61.469  1.00  0.00     0.213 C
ENDBRANCH  27  29
ENDBRANCH   1  27
BRANCH  14  31
HETATM   31  O7  UNL     1      15.730  19.358  61.474  1.00  0.00    -0.394 OA
ATOM     32  H7  UNL     1      15.078  19.476  60.792  1.00  0.00     0.210 HD
ENDBRANCH  14  31
TORSDOF 11
ENDMDL