MODEL 2
REMARK VINA RESULT: -8.722407380      0.917      1.291
REMARK  11 active torsions:
REMARK  status: ('A' for Active; 'I' for Inactive)
REMARK    1  A    between atoms: N1_3  and  C3_5
REMARK    2  A    between atoms: C3_5  and  C4_6
REMARK    3  A    between atoms: C3_5  and  N3_18
REMARK    4  A    between atoms: C4_6  and  C5_7
REMARK    5  A    between atoms: C5_7  and  C6_8
REMARK    6  A    between atoms: C9_11  and  N2_12
REMARK    7  A    between atoms: N2_12  and  O1_14
REMARK    8  A    between atoms: N3_18  and  C13_20
REMARK    9  A    between atoms: C16_23  and  S1_24
REMARK   10  A    between atoms: S1_24  and  N4_27
REMARK   11  A    between atoms: N4_27  and  C17_29
ROOT
HETATM    1  N3  UNL     1      17.019  -2.069  57.168  1.00  0.00    -0.343 N
ATOM      2  H3  UNL     1      16.001  -2.022  57.220  1.00  0.00     0.167 HD
ENDROOT
BRANCH   1   3
HETATM    3  C3  UNL     1      17.637  -1.640  56.072  1.00  0.00     0.105 C
BRANCH   3   4
HETATM    4  N1  UNL     1      17.288  -2.404  54.945  1.00  0.00    -0.356 N
HETATM    5  C2  UNL     1      16.556  -2.049  53.969  1.00  0.00     0.058 C
HETATM    6  C1  UNL     1      15.899  -0.744  53.793  1.00  0.00     0.054 C
ATOM      7  H1  UNL     1      17.665  -3.351  54.907  1.00  0.00     0.166 HD
ENDBRANCH   3   4
BRANCH   3   8
HETATM    8  C4  UNL     1      18.519  -0.534  56.203  1.00  0.00     0.049 C
BRANCH   8   9
HETATM    9  C5  UNL     1      18.971   0.422  55.489  1.00  0.00     0.015 C
BRANCH   9  10
HETATM   10  C6  UNL     1      19.939   0.607  54.447  1.00  0.00    -0.036 A
HETATM   11  C7  UNL     1      20.138   1.933  54.016  1.00  0.00     0.013 A
HETATM   12  C8  UNL     1      20.989   2.245  52.990  1.00  0.00     0.032 A
HETATM   13  C9  UNL     1      21.696   1.264  52.328  1.00  0.00     0.056 A
HETATM   14  C11 UNL     1      21.503  -0.031  52.747  1.00  0.00     0.032 A
HETATM   15  C12 UNL     1      20.637  -0.372  53.793  1.00  0.00     0.013 A
BRANCH  13  16
HETATM   16  N2  UNL     1      22.581   1.557  51.279  1.00  0.00    -0.266 N
HETATM   17  C10 UNL     1      23.900   0.984  51.301  1.00  0.00     0.185 C
BRANCH  16  18
HETATM   18  O1  UNL     1      22.267   2.302  50.334  1.00  0.00    -0.288 OA
ATOM     19  H1  UNL     1      22.838   2.443  49.587  1.00  0.00     0.244 HD
ENDBRANCH  16  18
ENDBRANCH  13  16
ENDBRANCH   9  10
ENDBRANCH   8   9
ENDBRANCH   3   8
ENDBRANCH   1   3
BRANCH   1  20
HETATM   20  C13 UNL     1      17.738  -2.584  58.255  1.00  0.00     0.033 A
HETATM   21  C14 UNL     1      17.756  -1.977  59.513  1.00  0.00     0.031 A
HETATM   22  C15 UNL     1      18.492  -2.557  60.516  1.00  0.00     0.027 A
HETATM   23  C16 UNL     1      19.214  -3.708  60.345  1.00  0.00     0.080 A
HETATM   24  C20 UNL     1      19.199  -4.308  59.108  1.00  0.00     0.027 A
HETATM   25  C21 UNL     1      18.471  -3.756  58.077  1.00  0.00     0.031 A
BRANCH  23  26
HETATM   26  S1  UNL     1      20.106  -4.378  61.678  1.00  0.00     0.264 S
HETATM   27  O2  UNL     1      21.058  -5.431  61.122  1.00  0.00    -0.200 OA
HETATM   28  O3  UNL     1      20.966  -3.309  62.346  1.00  0.00    -0.200 OA
BRANCH  26  29
HETATM   29  N4  UNL     1      19.130  -5.140  62.826  1.00  0.00    -0.260 N
ATOM     30  H4  UNL     1      18.686  -6.022  62.575  1.00  0.00     0.181 HD
BRANCH  29  31
HETATM   31  C17 UNL     1      18.918  -4.661  64.010  1.00  0.00     0.159 A
HETATM   32  N5  UNL     1      19.716  -4.021  64.855  1.00  0.00    -0.344 N
HETATM   33  C18 UNL     1      19.258  -3.630  66.006  1.00  0.00     0.116 A
ATOM     34  H5  UNL     1      20.686  -3.836  64.602  1.00  0.00     0.167 HD
HETATM   35  C19 UNL     1      17.949  -3.903  66.302  1.00  0.00     0.070 A
HETATM   36 BR1  UNL     1      16.969  -3.465  67.904  1.00  0.00    -0.042 Br
HETATM   37  S2  UNL     1      17.427  -4.716  64.898  1.00  0.00    -0.044 SA
ENDBRANCH  29  31
ENDBRANCH  26  29
ENDBRANCH  23  26
ENDBRANCH   1  20
TORSDOF 11
ENDMDL