MODEL 1
REMARK VINA RESULT: -9.965557568      0.000      0.000
REMARK  8 active torsions:
REMARK  status: ('A' for Active; 'I' for Inactive)
REMARK    1  A    between atoms: C6_8  and  C7_9
REMARK    2  A    between atoms: C7_9  and  C8_10
REMARK    3  A    between atoms: C7_9  and  C19_23
REMARK    4  A    between atoms: C11_13  and  C12_14
REMARK    5  A    between atoms: C13_15  and  C14_16
REMARK       I    between atoms: C14_16  and  N2_18
REMARK    6  A    between atoms: N4_28  and  C22_29
REMARK    7  A    between atoms: C22_29  and  C23_30
REMARK    8  A    between atoms: C29_37  and  N5_38
ROOT
HETATM    1  C7  UNL     1      17.767  -2.690  55.812  1.00  0.00     0.089 C
ENDROOT
BRANCH   1   2
HETATM    2  C6  UNL     1      18.486  -1.540  55.260  1.00  0.00    -0.044 A
HETATM    3  C5  UNL     1      18.150  -0.223  55.524  1.00  0.00     0.010 A
HETATM    4  C4  UNL     1      18.797   0.857  55.027  1.00  0.00     0.031 A
HETATM    5  C3  UNL     1      19.902   0.684  54.169  1.00  0.00     0.050 A
HETATM    6  N1  UNL     1      20.606   1.644  53.627  1.00  0.00    -0.353 N
HETATM    7  C31 UNL     1      20.266  -0.603  53.883  1.00  0.00     0.034 A
HETATM    8  C2  UNL     1      21.621   1.350  52.838  1.00  0.00     0.048 A
ATOM      9  H1  UNL     1      20.369   2.619  53.813  1.00  0.00     0.166 HD
HETATM   10  C1  UNL     1      22.553   2.298  52.118  1.00  0.00     0.076 C
HETATM   11  S1  UNL     1      21.603  -0.359  52.846  1.00  0.00    -0.075 SA
HETATM   12  C30 UNL     1      19.578  -1.706  54.412  1.00  0.00     0.029 A
ENDBRANCH   1   2
BRANCH   1  13
HETATM   13  C8  UNL     1      17.112  -2.300  57.089  1.00  0.00    -0.045 A
HETATM   14  C9  UNL     1      15.743  -2.428  57.260  1.00  0.00     0.009 A
HETATM   15  C10 UNL     1      15.117  -2.101  58.435  1.00  0.00     0.012 A
HETATM   16  C11 UNL     1      15.838  -1.615  59.535  1.00  0.00    -0.036 A
HETATM   17  C17 UNL     1      17.201  -1.484  59.377  1.00  0.00     0.012 A
HETATM   18  C18 UNL     1      17.814  -1.823  58.170  1.00  0.00     0.009 A
BRANCH  16  19
HETATM   19  C12 UNL     1      15.125  -1.290  60.736  1.00  0.00     0.017 C
HETATM   20  C13 UNL     1      15.723  -0.706  61.763  1.00  0.00     0.075 C
BRANCH  20  21
HETATM   21  C14 UNL     1      14.950  -0.390  62.979  1.00  0.00     0.242 C
HETATM   22  O1  UNL     1      14.223   0.635  63.038  1.00  0.00    -0.268 OA
HETATM   23  N2  UNL     1      15.047  -1.270  64.080  1.00  0.00    -0.357 N
HETATM   24  C15 UNL     1      14.303  -0.984  65.280  1.00  0.00     0.152 C
HETATM   25  C16 UNL     1      15.875  -2.440  64.019  1.00  0.00     0.152 C
ENDBRANCH  20  21
ENDBRANCH  16  19
ENDBRANCH   1  13
BRANCH   1  26
HETATM   26  C19 UNL     1      16.862  -3.383  54.867  1.00  0.00     0.014 A
HETATM   27  C20 UNL     1      15.742  -2.734  54.392  1.00  0.00     0.101 A
HETATM   28  N3  UNL     1      14.930  -3.392  53.520  1.00  0.00    -0.361 N
HETATM   29  C21 UNL     1      15.179  -4.639  53.109  1.00  0.00     0.184 A
ATOM     30  H3  UNL     1      14.100  -2.916  53.167  1.00  0.00     0.166 HD
HETATM   31  N4  UNL     1      16.255  -5.307  53.545  1.00  0.00    -0.325 N
HETATM   32  C29 UNL     1      17.089  -4.686  54.415  1.00  0.00     0.111 A
BRANCH  31  33
HETATM   33  C22 UNL     1      16.553  -6.663  53.134  1.00  0.00     0.170 C
BRANCH  33  34
HETATM   34  C23 UNL     1      16.138  -7.688  54.117  1.00  0.00    -0.040 A
HETATM   35  C24 UNL     1      15.213  -7.470  55.110  1.00  0.00     0.012 A
HETATM   36  C25 UNL     1      14.843  -8.463  56.003  1.00  0.00     0.043 A
HETATM   37  C26 UNL     1      15.428  -9.705  55.879  1.00  0.00     0.116 A
HETATM   38  F1  UNL     1      15.071 -10.692  56.752  1.00  0.00    -0.206 F
HETATM   39  C27 UNL     1      16.358  -9.939  54.888  1.00  0.00     0.043 A
HETATM   40  C28 UNL     1      16.709  -8.942  54.016  1.00  0.00     0.012 A
ENDBRANCH  33  34
ENDBRANCH  31  33
BRANCH  32  41
HETATM   41  N5  UNL     1      18.125  -5.293  54.853  1.00  0.00    -0.385 N
ATOM     42  H52 UNL     1      18.580  -4.974  55.709  1.00  0.00     0.157 HD
ATOM     43  H51 UNL     1      18.467  -6.091  54.318  1.00  0.00     0.157 HD
ENDBRANCH  32  41
ENDBRANCH   1  26
TORSDOF 8
ENDMDL