MODEL 3
REMARK VINA RESULT: -8.436373882      3.957      8.273
REMARK  9 active torsions:
REMARK  status: ('A' for Active; 'I' for Inactive)
REMARK    1  A    between atoms: C2_2  and  O2_4
REMARK    2  A    between atoms: O2_4  and  C3_5
REMARK    3  A    between atoms: C17_20  and  C18_21
REMARK    4  A    between atoms: C18_21  and  C20_23
REMARK    5  A    between atoms: C20_23  and  C21_24
REMARK    6  A    between atoms: C21_24  and  C22_25
REMARK    7  A    between atoms: C22_25  and  C23_27
REMARK    8  A    between atoms: C25_30  and  S1_31
REMARK    9  A    between atoms: S1_31  and  C26_32
ROOT
HETATM    1  C3  UNL     1      15.119  -0.946  61.627  1.00  0.00     0.137 C
HETATM    2  C4  UNL     1      16.400  -0.359  61.083  1.00  0.00     0.068 C
HETATM    3  C5  UNL     1      16.878  -1.414  60.147  1.00  0.00    -0.062 C
HETATM    4  C6  UNL     1      17.662  -1.384  59.094  1.00  0.00    -0.022 C
HETATM    5  C7  UNL     1      17.985  -2.589  58.318  1.00  0.00     0.033 C
HETATM    6  C8  UNL     1      17.009  -3.705  58.401  1.00  0.00     0.000 C
HETATM    7  C9  UNL     1      15.785  -3.391  59.195  1.00  0.00     0.014 C
HETATM    8  C10 UNL     1      14.912  -2.493  58.421  1.00  0.00     0.007 C
HETATM    9  C11 UNL     1      15.150  -2.460  56.931  1.00  0.00     0.011 C
HETATM   10  C12 UNL     1      15.543  -3.745  56.320  1.00  0.00    -0.025 C
HETATM   11  C13 UNL     1      14.336  -4.742  56.404  1.00  0.00     0.016 C
HETATM   12  C14 UNL     1      16.709  -4.338  57.076  1.00  0.00     0.006 C
HETATM   13  C15 UNL     1      17.875  -4.365  56.148  1.00  0.00     0.084 C
HETATM   14  C16 UNL     1      17.464  -3.603  54.941  1.00  0.00     0.136 C
HETATM   15  O3  UNL     1      18.123  -3.000  54.174  1.00  0.00    -0.297 OA
HETATM   16  C17 UNL     1      15.968  -3.786  54.929  1.00  0.00     0.092 C
HETATM   17  C25 UNL     1      16.315  -2.743  60.505  1.00  0.00     0.044 C
HETATM   18  C27 UNL     1      15.233  -2.437  61.472  1.00  0.00     0.058 C
ENDROOT
BRANCH  16  19
HETATM   19  C18 UNL     1      15.330  -3.018  53.836  1.00  0.00    -0.075 C
HETATM   20  C19 UNL     1      15.727  -1.657  53.528  1.00  0.00     0.044 C
BRANCH  19  21
HETATM   21  C20 UNL     1      15.096  -3.933  52.677  1.00  0.00    -0.016 C
BRANCH  21  22
HETATM   22  C21 UNL     1      14.596  -5.291  52.838  1.00  0.00     0.107 C
BRANCH  22  23
HETATM   23  C22 UNL     1      15.347  -6.343  52.170  1.00  0.00     0.148 C
HETATM   24  O4  UNL     1      15.248  -6.606  51.006  1.00  0.00    -0.296 OA
BRANCH  23  25
HETATM   25  C23 UNL     1      16.319  -7.156  52.992  1.00  0.00     0.148 C
HETATM   26  C24 UNL     1      15.770  -7.306  54.373  1.00  0.00     0.034 C
HETATM   27 CL1  UNL     1      17.887  -6.323  53.090  1.00  0.00    -0.117 Cl
ENDBRANCH  23  25
ENDBRANCH  22  23
ENDBRANCH  21  22
ENDBRANCH  19  21
ENDBRANCH  16  19
BRANCH  17  28
HETATM   28  S1  UNL     1      17.514  -3.928  61.109  1.00  0.00    -0.088 SA
BRANCH  28  29
HETATM   29  C26 UNL     1      18.816  -3.386  62.093  1.00  0.00     0.150 C
HETATM   30  N1  UNL     1      20.009  -2.907  61.462  1.00  0.00    -0.082 NA
HETATM   31  S2  UNL     1      18.807  -3.394  63.705  1.00  0.00    -0.056 SA
ENDBRANCH  28  29
ENDBRANCH  17  28
BRANCH   1  32
HETATM   32  O2  UNL     1      14.871  -0.497  62.918  1.00  0.00    -0.316 OA
BRANCH  32  33
HETATM   33  C2  UNL     1      14.013   0.538  63.247  1.00  0.00     0.255 C
HETATM   34  C1  UNL     1      14.527   1.912  63.413  1.00  0.00     0.126 C
HETATM   35  O1  UNL     1      12.794   0.274  63.397  1.00  0.00    -0.266 OA
ENDBRANCH  32  33
ENDBRANCH   1  32
TORSDOF 9
ENDMDL