MODEL 1
REMARK VINA RESULT: -8.910088793      0.000      0.000
REMARK  7 active torsions:
REMARK  status: ('A' for Active; 'I' for Inactive)
REMARK    1  A    between atoms: O1_2  and  C2_3
REMARK    2  A    between atoms: C4_6  and  O3_7
REMARK    3  A    between atoms: O3_7  and  C5_8
REMARK    4  A    between atoms: C5_8  and  C7_10
REMARK    5  A    between atoms: C10_13  and  O4_14
REMARK    6  A    between atoms: O4_14  and  C11_15
REMARK    7  A    between atoms: C22_27  and  N1_28
REMARK       I    between atoms: N1_28  and  C23_30
REMARK       I    between atoms: C23_30  and  N2_32
ROOT
HETATM    1  C11 UNL     1      16.329  -4.623  56.317  1.00  0.00     0.117 A
HETATM    2  C12 UNL     1      16.968  -5.656  55.681  1.00  0.00    -0.019 A
HETATM    3  C13 UNL     1      16.603  -7.090  55.866  1.00  0.00     0.052 C
HETATM    4  C14 UNL     1      18.044  -5.432  54.830  1.00  0.00    -0.046 A
HETATM    5  C15 UNL     1      18.744  -6.535  54.122  1.00  0.00     0.049 C
HETATM    6  C16 UNL     1      18.498  -4.110  54.614  1.00  0.00    -0.041 A
HETATM    7  C17 UNL     1      17.884  -3.066  55.233  1.00  0.00     0.000 A
HETATM    8  C18 UNL     1      16.793  -3.355  56.086  1.00  0.00     0.158 A
HETATM    9  F1  UNL     1      16.238  -2.266  56.660  1.00  0.00    -0.203 F
HETATM   10  C19 UNL     1      18.317  -1.691  55.048  1.00  0.00     0.004 C
HETATM   11  C20 UNL     1      17.109  -0.874  54.598  1.00  0.00     0.022 C
HETATM   12  C21 UNL     1      18.794  -1.014  56.314  1.00  0.00     0.022 C
HETATM   13  C22 UNL     1      19.327  -1.562  53.949  1.00  0.00     0.099 C
HETATM   14  C26 UNL     1      20.372  -2.682  54.136  1.00  0.00     0.031 C
HETATM   15  C27 UNL     1      19.649  -3.934  53.697  1.00  0.00     0.042 C
ENDROOT
BRANCH   1  16
HETATM   16  O4  UNL     1      15.266  -4.859  57.146  1.00  0.00    -0.312 OA
BRANCH  16  17
HETATM   17  C10 UNL     1      13.905  -4.668  56.864  1.00  0.00     0.322 C
HETATM   18  C4  UNL     1      13.232  -5.736  56.063  1.00  0.00     0.315 C
HETATM   19  O2  UNL     1      12.312  -6.346  56.945  1.00  0.00    -0.354 OA
HETATM   20  C3  UNL     1      12.850  -7.284  57.763  1.00  0.00     0.205 C
HETATM   21  C2  UNL     1      13.747  -6.802  58.832  1.00  0.00     0.173 C
HETATM   22  C28 UNL     1      13.751  -5.332  59.098  1.00  0.00     0.151 C
HETATM   23  O6  UNL     1      13.276  -4.526  58.100  1.00  0.00    -0.348 OA
HETATM   24  C29 UNL     1      13.143  -5.015  60.448  1.00  0.00     0.042 C
BRANCH  18  25
HETATM   25  O3  UNL     1      12.375  -5.208  55.059  1.00  0.00    -0.351 OA
BRANCH  25  26
HETATM   26  C5  UNL     1      12.812  -5.448  53.787  1.00  0.00     0.124 C
HETATM   27  C6  UNL     1      12.084  -4.475  52.802  1.00  0.00     0.040 C
BRANCH  26  28
HETATM   28  C7  UNL     1      14.256  -5.101  53.629  1.00  0.00     0.006 C
HETATM   29  C8  UNL     1      14.440  -3.645  53.216  1.00  0.00     0.012 C
HETATM   30  C9  UNL     1      14.919  -5.984  52.627  1.00  0.00     0.012 C
ENDBRANCH  26  28
ENDBRANCH  25  26
ENDBRANCH  18  25
BRANCH  21  31
HETATM   31  O1  UNL     1      15.032  -7.313  58.626  1.00  0.00    -0.386 OA
HETATM   32  C1  UNL     1      15.367  -8.361  59.442  1.00  0.00     0.202 C
ENDBRANCH  21  31
ENDBRANCH  16  17
ENDBRANCH   1  16
BRANCH  13  33
HETATM   33  N1  UNL     1      20.013  -0.313  53.920  1.00  0.00    -0.337 N
HETATM   34  C23 UNL     1      21.025  -0.095  52.946  1.00  0.00     0.317 C
HETATM   35  O5  UNL     1      21.317  -1.011  52.103  1.00  0.00    -0.247 OA
HETATM   36  N2  UNL     1      21.765   1.113  52.834  1.00  0.00    -0.343 N
HETATM   37  C24 UNL     1      21.478   2.185  53.760  1.00  0.00     0.154 C
HETATM   38  C25 UNL     1      22.788   1.325  51.845  1.00  0.00     0.154 C
ATOM     39  H1  UNL     1      19.780   0.418  54.592  1.00  0.00     0.164 HD
ENDBRANCH  13  33
TORSDOF 7
ENDMDL