MODEL 1
REMARK VINA RESULT: -9.587182305      0.000      0.000
REMARK  8 active torsions:
REMARK  status: ('A' for Active; 'I' for Inactive)
REMARK    1  A    between atoms: C2_2  and  N1_3
REMARK    2  A    between atoms: N1_3  and  C3_4
REMARK    3  A    between atoms: N1_3  and  C9_14
REMARK    4  A    between atoms: C3_4  and  C4_5
REMARK    5  A    between atoms: C4_5  and  C5_6
REMARK    6  A    between atoms: C8_11  and  O3_12
REMARK    7  A    between atoms: C9_14  and  C10_15
REMARK    8  A    between atoms: C10_15  and  C11_16
ROOT
HETATM    1  C11 UNL     1      17.207  -4.234  55.201  1.00  0.00     0.072 C
HETATM    2  C12 UNL     1      18.503  -4.834  55.682  1.00  0.00     0.071 C
HETATM    3  N2  UNL     1      19.528  -5.272  56.082  1.00  0.00    -0.196 NA
HETATM    4  C13 UNL     1      16.172  -4.296  56.266  1.00  0.00     0.020 C
HETATM    5  C14 UNL     1      14.768  -4.121  55.701  1.00  0.00     0.024 C
HETATM    6  C15 UNL     1      16.261  -5.658  56.876  1.00  0.00    -0.007 C
HETATM    7  N3  UNL     1      16.403  -6.602  55.971  1.00  0.00    -0.386 N
ATOM      8  H3  UNL     1      16.463  -7.539  56.370  1.00  0.00     0.160 HD
HETATM    9  C16 UNL     1      16.488  -6.588  54.583  1.00  0.00     0.031 C
HETATM   10  C17 UNL     1      17.507  -7.748  54.286  1.00  0.00     0.039 C
HETATM   11  C18 UNL     1      15.295  -7.232  53.880  1.00  0.00     0.039 C
HETATM   12  C19 UNL     1      16.929  -5.290  54.033  1.00  0.00    -0.001 C
HETATM   13  C20 UNL     1      16.173  -4.701  52.899  1.00  0.00     0.019 C
HETATM   14  C21 UNL     1      18.338  -5.487  53.433  1.00  0.00     0.019 C
HETATM   15  C22 UNL     1      16.262  -6.413  58.162  1.00  0.00     0.057 C
HETATM   16  C23 UNL     1      16.559  -5.642  59.437  1.00  0.00     0.040 C
HETATM   17  C24 UNL     1      16.163  -4.266  59.206  1.00  0.00    -0.077 C
HETATM   18  C25 UNL     1      15.025  -3.802  59.645  1.00  0.00     0.002 C
HETATM   19  C26 UNL     1      14.844  -2.348  59.232  1.00  0.00     0.055 C
HETATM   20 CL1  UNL     1      13.190  -1.828  59.546  1.00  0.00    -0.115 Cl
HETATM   21  C27 UNL     1      15.897  -1.421  59.597  1.00  0.00     0.030 C
HETATM   22  C28 UNL     1      17.192  -1.984  59.127  1.00  0.00     0.011 C
HETATM   23  C29 UNL     1      17.026  -3.310  58.435  1.00  0.00     0.019 C
HETATM   24  C30 UNL     1      16.217  -3.132  57.204  1.00  0.00     0.011 C
HETATM   25  C31 UNL     1      14.909  -2.581  57.671  1.00  0.00     0.036 C
ENDROOT
BRANCH   1  26
HETATM   26  C10 UNL     1      17.536  -3.034  54.425  1.00  0.00     0.047 C
BRANCH  26  27
HETATM   27  C9  UNL     1      18.515  -2.017  54.860  1.00  0.00     0.129 C
BRANCH  27  28
HETATM   28  N1  UNL     1      17.833  -0.748  55.131  1.00  0.00    -0.374 N
BRANCH  28  29
HETATM   29  C2  UNL     1      17.049  -0.208  54.108  1.00  0.00     0.058 C
HETATM   30  C1  UNL     1      15.577  -0.067  54.379  1.00  0.00     0.055 C
ENDBRANCH  28  29
BRANCH  28  31
HETATM   31  C3  UNL     1      18.632   0.166  55.848  1.00  0.00     0.063 C
BRANCH  31  32
HETATM   32  C4  UNL     1      18.908   1.473  55.216  1.00  0.00     0.054 C
BRANCH  32  33
HETATM   33  C5  UNL     1      20.411   1.788  55.233  1.00  0.00     0.053 C
HETATM   34  C6  UNL     1      20.847   2.230  53.857  1.00  0.00     0.186 C
HETATM   35  O1  UNL     1      21.472   1.127  53.259  1.00  0.00    -0.319 OA
HETATM   36  C7  UNL     1      21.794   0.172  54.231  1.00  0.00     0.288 C
HETATM   37  O2  UNL     1      22.432  -0.893  54.043  1.00  0.00    -0.262 OA
HETATM   38  C8  UNL     1      21.259   0.610  55.543  1.00  0.00     0.224 C
BRANCH  38  39
HETATM   39  O3  UNL     1      22.387   1.029  56.285  1.00  0.00    -0.385 OA
ATOM     40  H3  UNL     1      22.515   0.440  57.020  1.00  0.00     0.210 HD
ENDBRANCH  38  39
ENDBRANCH  32  33
ENDBRANCH  31  32
ENDBRANCH  28  31
ENDBRANCH  27  28
ENDBRANCH  26  27
ENDBRANCH   1  26
TORSDOF 8
ENDMDL