MODEL 2
REMARK VINA RESULT: -8.984915337      3.356      6.691
REMARK  8 active torsions:
REMARK  status: ('A' for Active; 'I' for Inactive)
REMARK    1  A    between atoms: C2_2  and  C3_3
REMARK    2  A    between atoms: C3_3  and  O1_4
REMARK    3  A    between atoms: O1_4  and  C4_5
REMARK    4  A    between atoms: C5_7  and  O3_8
REMARK    5  A    between atoms: C9_14  and  O5_15
REMARK    6  A    between atoms: C13_19  and  C14_20
REMARK    7  A    between atoms: C14_20  and  C15_21
REMARK    8  A    between atoms: C15_21  and  C16_22
ROOT
HETATM    1  C4  UNL     1      16.204  -2.912  54.329  1.00  0.00     0.272 C
HETATM    2  O2  UNL     1      15.668  -3.714  53.265  1.00  0.00    -0.328 OA
HETATM    3  C5  UNL     1      16.387  -4.812  52.974  1.00  0.00     0.297 C
HETATM    4  C6  UNL     1      16.736  -5.672  54.129  1.00  0.00     0.138 A
HETATM    5  C7  UNL     1      16.571  -7.141  54.126  1.00  0.00     0.212 A
HETATM    6  O4  UNL     1      17.732  -6.662  53.639  1.00  0.00    -0.369 OA
HETATM    7  C8  UNL     1      17.157  -4.929  55.383  1.00  0.00     0.070 C
HETATM    8  C9  UNL     1      18.604  -4.828  55.386  1.00  0.00     0.133 C
HETATM    9  C11 UNL     1      19.296  -5.165  56.700  1.00  0.00     0.015 C
HETATM   10  C12 UNL     1      19.563  -6.649  56.852  1.00  0.00     0.013 C
HETATM   11  C13 UNL     1      18.574  -4.636  57.907  1.00  0.00    -0.008 C
HETATM   12  C17 UNL     1      18.534  -3.157  57.969  1.00  0.00     0.015 C
HETATM   13  C18 UNL     1      17.305  -2.416  57.588  1.00  0.00    -0.034 C
HETATM   14  C19 UNL     1      17.831  -1.122  56.917  1.00  0.00     0.016 C
HETATM   15  C20 UNL     1      16.703  -1.808  58.853  1.00  0.00     0.010 C
HETATM   16  C21 UNL     1      17.566  -1.511  59.983  1.00  0.00     0.014 C
HETATM   17  C22 UNL     1      16.541  -0.750  60.864  1.00  0.00     0.079 C
HETATM   18  C23 UNL     1      15.237  -1.380  60.516  1.00  0.00     0.135 C
HETATM   19  O6  UNL     1      14.177  -1.083  60.984  1.00  0.00    -0.297 OA
HETATM   20  C24 UNL     1      15.535  -2.456  59.463  1.00  0.00     0.021 C
HETATM   21  C25 UNL     1      15.659  -3.706  60.217  1.00  0.00     0.024 C
HETATM   22  C26 UNL     1      14.395  -2.500  58.493  1.00  0.00     0.018 C
HETATM   23  C27 UNL     1      14.953  -2.276  57.097  1.00  0.00     0.007 C
HETATM   24  C28 UNL     1      16.236  -3.098  56.876  1.00  0.00     0.007 C
HETATM   25  C29 UNL     1      16.259  -3.755  55.582  1.00  0.00     0.019 C
HETATM   26  C30 UNL     1      14.842  -4.427  55.535  1.00  0.00     0.021 C
ENDROOT
BRANCH   1  27
HETATM   27  O1  UNL     1      15.202  -1.941  54.338  1.00  0.00    -0.360 OA
BRANCH  27  28
HETATM   28  C3  UNL     1      15.632  -0.732  53.870  1.00  0.00     0.170 C
BRANCH  28  29
HETATM   29  C2  UNL     1      15.471  -0.628  52.349  1.00  0.00     0.022 C
HETATM   30  C1  UNL     1      14.668   0.582  51.986  1.00  0.00     0.007 C
ENDBRANCH  28  29
ENDBRANCH  27  28
ENDBRANCH   1  27
BRANCH   3  31
HETATM   31  O3  UNL     1      15.569  -5.613  52.134  1.00  0.00    -0.368 OA
ATOM     32  H3  UNL     1      16.147  -6.243  51.721  1.00  0.00     0.212 HD
ENDBRANCH   3  31
BRANCH   8  33
HETATM   33  O5  UNL     1      19.184  -3.728  54.769  1.00  0.00    -0.390 OA
HETATM   34  C10 UNL     1      20.113  -4.016  53.794  1.00  0.00     0.202 C
ENDBRANCH   8  33
BRANCH  11  35
HETATM   35  C14 UNL     1      19.332  -5.142  59.119  1.00  0.00     0.006 C
BRANCH  35  36
HETATM   36  C15 UNL     1      19.649  -4.057  60.080  1.00  0.00     0.015 C
BRANCH  36  37
HETATM   37  C16 UNL     1      19.844  -4.574  61.496  1.00  0.00     0.114 C
HETATM   38 CL1  UNL     1      21.477  -5.255  61.588  1.00  0.00    -0.130 Cl
ENDBRANCH  36  37
ENDBRANCH  35  36
ENDBRANCH  11  35
TORSDOF 8
ENDMDL