MODEL 1
REMARK VINA RESULT: -10.186471726      0.000      0.000
REMARK  7 active torsions:
REMARK  status: ('A' for Active; 'I' for Inactive)
REMARK    1  A    between atoms: C3_3  and  C4_4
REMARK    2  A    between atoms: C4_4  and  C5_5
REMARK       I    between atoms: C5_5  and  N1_7
REMARK    3  A    between atoms: N1_7  and  C6_9
REMARK    4  A    between atoms: C6_9  and  C7_10
REMARK    5  A    between atoms: C18_23  and  C19_24
REMARK    6  A    between atoms: N4_33  and  C26_34
REMARK    7  A    between atoms: C28_36  and  C29_37
ROOT
HETATM    1  C7  UNL     1      14.160  -1.807  60.582  1.00  0.00    -0.036 A
HETATM    2  C8  UNL     1      14.345  -0.872  61.601  1.00  0.00     0.051 A
HETATM    3  C9  UNL     1      15.584  -0.338  61.874  1.00  0.00     0.118 A
HETATM    4  F1  UNL     1      15.771   0.571  62.862  1.00  0.00    -0.206 F
HETATM    5  C10 UNL     1      16.698  -0.718  61.135  1.00  0.00     0.065 A
HETATM    6  C11 UNL     1      16.489  -1.643  60.135  1.00  0.00     0.048 A
HETATM    7  C12 UNL     1      17.612  -2.067  59.343  1.00  0.00     0.099 C
HETATM    8  N2  UNL     1      18.512  -2.426  58.690  1.00  0.00    -0.191 NA
HETATM    9  C13 UNL     1      15.248  -2.193  59.844  1.00  0.00     0.031 A
ENDROOT
BRANCH   1  10
HETATM   10  C6  UNL     1      12.787  -2.342  60.337  1.00  0.00     0.161 C
BRANCH  10  11
HETATM   11  N1  UNL     1      12.779  -3.525  59.514  1.00  0.00    -0.357 N
HETATM   12  C5  UNL     1      12.231  -4.775  59.892  1.00  0.00     0.221 C
HETATM   13  O1  UNL     1      11.704  -4.886  61.028  1.00  0.00    -0.273 OA
ATOM     14  H1  UNL     1      13.201  -3.457  58.588  1.00  0.00     0.162 HD
BRANCH  12  15
HETATM   15  C4  UNL     1      12.300  -5.906  58.932  1.00  0.00     0.137 C
BRANCH  15  16
HETATM   16  C3  UNL     1      13.632  -6.034  58.314  1.00  0.00    -0.065 C
HETATM   17  C2  UNL     1      13.817  -5.871  57.012  1.00  0.00    -0.053 C
HETATM   18  C1  UNL     1      12.683  -5.559  56.144  1.00  0.00     0.049 C
HETATM   19  C17 UNL     1      15.180  -5.986  56.411  1.00  0.00    -0.051 C
HETATM   20  C16 UNL     1      16.115  -6.903  57.054  1.00  0.00     0.039 C
HETATM   21  C18 UNL     1      15.418  -5.280  55.333  1.00  0.00     0.021 C
HETATM   22  C15 UNL     1      15.692  -7.381  58.428  1.00  0.00     0.009 C
HETATM   23  C14 UNL     1      14.816  -6.374  59.155  1.00  0.00     0.035 C
BRANCH  21  24
HETATM   24  C19 UNL     1      16.682  -5.262  54.616  1.00  0.00    -0.013 A
HETATM   25  C20 UNL     1      17.101  -6.300  53.818  1.00  0.00     0.099 A
HETATM   26  N3  UNL     1      18.259  -6.241  53.153  1.00  0.00    -0.374 N
HETATM   27  C21 UNL     1      19.057  -5.181  53.234  1.00  0.00     0.097 A
ATOM     28  H3  UNL     1      18.538  -7.029  52.568  1.00  0.00     0.164 HD
HETATM   29  C22 UNL     1      18.692  -4.086  54.031  1.00  0.00    -0.018 A
HETATM   30  C23 UNL     1      17.518  -4.143  54.705  1.00  0.00    -0.036 A
HETATM   31  C33 UNL     1      19.619  -2.928  54.102  1.00  0.00     0.165 C
HETATM   32  C24 UNL     1      17.067  -3.038  55.554  1.00  0.00     0.060 C
HETATM   33  C25 UNL     1      17.596  -1.703  55.101  1.00  0.00     0.129 C
HETATM   34  N4  UNL     1      18.898  -1.762  54.528  1.00  0.00    -0.363 N
BRANCH  34  35
HETATM   35  C26 UNL     1      19.580  -0.498  54.353  1.00  0.00     0.103 A
HETATM   36  C27 UNL     1      20.754  -0.404  53.640  1.00  0.00     0.056 A
HETATM   37  C28 UNL     1      21.416   0.804  53.458  1.00  0.00    -0.040 A
HETATM   38  C31 UNL     1      20.888   1.951  54.007  1.00  0.00     0.025 A
HETATM   39  C32 UNL     1      19.714   1.842  54.718  1.00  0.00     0.090 A
HETATM   40  N6  UNL     1      19.107   0.653  54.869  1.00  0.00    -0.352 N
ATOM     41  H6  UNL     1      18.239   0.620  55.404  1.00  0.00     0.166 HD
BRANCH  37  42
HETATM   42  C29 UNL     1      22.681   0.848  52.678  1.00  0.00     0.162 C
HETATM   43  C30 UNL     1      22.523   1.644  51.474  1.00  0.00     0.063 C
HETATM   44  N5  UNL     1      22.405   2.297  50.520  1.00  0.00    -0.197 NA
ENDBRANCH  37  42
ENDBRANCH  34  35
ENDBRANCH  21  24
ENDBRANCH  15  16
ENDBRANCH  12  15
ENDBRANCH  10  11
ENDBRANCH   1  10
TORSDOF 7
ENDMDL