MODEL 4
REMARK VINA RESULT: -9.729914599      4.496      6.742
REMARK  8 active torsions:
REMARK  status: ('A' for Active; 'I' for Inactive)
REMARK    1  A    between atoms: C4_4  and  O1_5
REMARK    2  A    between atoms: C5_7  and  C6_8
REMARK    3  A    between atoms: C6_8  and  C7_9
REMARK    4  A    between atoms: C7_9  and  C8_10
REMARK    5  A    between atoms: C22_28  and  O3_29
REMARK    6  A    between atoms: O3_29  and  C23_30
REMARK    7  A    between atoms: C24_31  and  C25_32
REMARK    8  A    between atoms: C25_32  and  N2_33
ROOT
HETATM    1  C1  UNL     1      15.125  -0.633  51.754  1.00  0.00     0.044 C
HETATM    2  C2  UNL     1      15.108  -1.845  52.605  1.00  0.00    -0.078 C
HETATM    3  C3  UNL     1      15.903  -1.886  53.671  1.00  0.00    -0.034 C
HETATM    4  C4  UNL     1      16.774  -0.714  53.961  1.00  0.00     0.178 C
HETATM    5  C5  UNL     1      18.086  -0.995  54.520  1.00  0.00    -0.039 C
HETATM    6  C13 UNL     1      18.233  -2.305  55.310  1.00  0.00    -0.011 C
HETATM    7  C14 UNL     1      18.184  -2.099  56.797  1.00  0.00     0.021 C
HETATM    8  C15 UNL     1      19.698  -2.734  55.066  1.00  0.00     0.017 C
HETATM    9  C16 UNL     1      19.812  -4.255  54.997  1.00  0.00     0.035 C
HETATM   10  C17 UNL     1      19.308  -4.605  53.631  1.00  0.00     0.151 A
HETATM   11  O2  UNL     1      18.162  -5.282  53.407  1.00  0.00    -0.375 OA
HETATM   12  C18 UNL     1      17.950  -3.937  53.489  1.00  0.00     0.157 A
HETATM   13  C19 UNL     1      17.397  -3.404  54.774  1.00  0.00     0.044 C
HETATM   14  C20 UNL     1      15.925  -3.058  54.589  1.00  0.00     0.016 C
HETATM   15  C21 UNL     1      15.284  -2.693  55.917  1.00  0.00     0.023 C
HETATM   16  C22 UNL     1      15.226  -4.269  54.058  1.00  0.00     0.141 C
HETATM   17  C31 UNL     1      14.985  -4.231  52.549  1.00  0.00     0.038 C
HETATM   18  C32 UNL     1      14.215  -2.966  52.245  1.00  0.00     0.036 C
ENDROOT
BRANCH  16  19
HETATM   19  O3  UNL     1      14.029  -4.665  54.595  1.00  0.00    -0.357 OA
BRANCH  19  20
HETATM   20  C23 UNL     1      13.309  -5.766  54.785  1.00  0.00     0.133 C
HETATM   21  C24 UNL     1      13.335  -6.365  55.992  1.00  0.00     0.027 C
BRANCH  21  22
HETATM   22  C25 UNL     1      14.164  -5.762  57.042  1.00  0.00     0.301 C
BRANCH  22  23
HETATM   23  N2  UNL     1      13.409  -5.084  58.057  1.00  0.00     0.095 N
HETATM   24  C26 UNL     1      14.346  -4.684  59.104  1.00  0.00     0.303 C
HETATM   25  C27 UNL     1      13.571  -3.852  60.081  1.00  0.00     0.302 C
HETATM   26  N3  UNL     1      12.420  -4.478  60.629  1.00  0.00     0.087 N
HETATM   27  C28 UNL     1      11.508  -3.405  61.061  1.00  0.00     0.310 C
HETATM   28  C29 UNL     1      11.682  -5.342  59.779  1.00  0.00     0.302 C
HETATM   29  C30 UNL     1      12.463  -5.972  58.656  1.00  0.00     0.303 C
ENDBRANCH  22  23
ENDBRANCH  21  22
ENDBRANCH  19  20
ENDBRANCH  16  19
BRANCH   4  30
HETATM   30  O1  UNL     1      15.969   0.184  54.640  1.00  0.00    -0.387 OA
ATOM     31  H1  UNL     1      15.636   0.777  53.976  1.00  0.00     0.210 HD
ENDBRANCH   4  30
BRANCH   5  32
HETATM   32  C6  UNL     1      18.837   0.055  55.210  1.00  0.00     0.007 C
BRANCH  32  33
HETATM   33  C7  UNL     1      19.423   1.230  54.557  1.00  0.00     0.013 C
BRANCH  33  34
HETATM   34  C8  UNL     1      20.608   1.158  53.715  1.00  0.00    -0.018 A
HETATM   35  C9  UNL     1      21.639   0.273  53.918  1.00  0.00     0.099 A
HETATM   36  N1  UNL     1      22.727   0.221  53.161  1.00  0.00    -0.372 N
HETATM   37  C10 UNL     1      22.910   1.049  52.113  1.00  0.00     0.130 A
ATOM     38  H1  UNL     1      23.449  -0.467  53.379  1.00  0.00     0.164 HD
HETATM   39  C11 UNL     1      21.907   1.954  51.868  1.00  0.00     0.132 A
HETATM   40  F1  UNL     1      22.045   2.819  50.810  1.00  0.00    -0.205 F
HETATM   41  C12 UNL     1      20.778   2.031  52.629  1.00  0.00     0.056 A
ENDBRANCH  33  34
ENDBRANCH  32  33
ENDBRANCH   5  32
TORSDOF 8
ENDMDL