MODEL 5
REMARK VINA RESULT: -8.787911297      1.272      1.628
REMARK  9 active torsions:
REMARK  status: ('A' for Active; 'I' for Inactive)
REMARK    1  A    between atoms: C2_2  and  O2_4
REMARK    2  A    between atoms: O2_4  and  C3_5
REMARK    3  A    between atoms: C3_5  and  C4_6
REMARK    4  A    between atoms: C4_6  and  C5_7
REMARK    5  A    between atoms: C5_7  and  C6_9
REMARK    6  A    between atoms: C6_9  and  C7_10
REMARK    7  A    between atoms: C7_10  and  C9_12
REMARK    8  A    between atoms: C9_12  and  C10_13
REMARK    9  A    between atoms: C10_13  and  O4_14
ROOT
HETATM    1  C10 UNL     1      17.384  -2.503  56.179  1.00  0.00     0.118 C
HETATM    2  C11 UNL     1      18.629  -2.215  56.897  1.00  0.00     0.047 C
HETATM    3  C12 UNL     1      18.328  -2.220  58.398  1.00  0.00     0.013 C
HETATM    4  C13 UNL     1      17.888  -3.632  58.740  1.00  0.00    -0.033 C
HETATM    5  C14 UNL     1      18.834  -4.594  58.048  1.00  0.00     0.016 C
HETATM    6  C15 UNL     1      18.101  -3.823  60.210  1.00  0.00     0.016 C
HETATM    7  C16 UNL     1      17.264  -2.890  61.060  1.00  0.00     0.010 C
HETATM    8  C17 UNL     1      18.024  -2.230  62.163  1.00  0.00    -0.018 C
HETATM    9  C18 UNL     1      17.924  -0.684  62.036  1.00  0.00     0.020 C
HETATM   10  C19 UNL     1      19.494  -2.443  62.133  1.00  0.00    -0.013 C
HETATM   11  C20 UNL     1      20.213  -3.045  63.030  1.00  0.00     0.047 C
HETATM   12  C21 UNL     1      19.600  -3.601  64.226  1.00  0.00     0.149 C
HETATM   13  O5  UNL     1      20.236  -3.942  65.223  1.00  0.00    -0.293 OA
HETATM   14  C22 UNL     1      18.096  -3.747  64.190  1.00  0.00     0.088 C
HETATM   15  C23 UNL     1      17.568  -2.516  63.551  1.00  0.00     0.005 C
HETATM   16  C24 UNL     1      16.097  -2.308  63.562  1.00  0.00     0.007 C
HETATM   17  C25 UNL     1      15.285  -3.084  62.619  1.00  0.00     0.013 C
HETATM   18  C26 UNL     1      15.949  -3.486  61.310  1.00  0.00    -0.003 C
HETATM   19  C27 UNL     1      15.855  -4.995  61.328  1.00  0.00     0.019 C
HETATM   20  C28 UNL     1      15.011  -3.059  60.179  1.00  0.00     0.116 A
HETATM   21  F1  UNL     1      14.313  -1.886  60.539  1.00  0.00    -0.242 F
HETATM   22  C29 UNL     1      14.265  -4.000  59.378  1.00  0.00     0.053 A
HETATM   23  C30 UNL     1      15.420  -3.128  58.821  1.00  0.00     0.041 A
HETATM   24  C31 UNL     1      16.506  -3.902  58.237  1.00  0.00     0.074 C
HETATM   25  C32 UNL     1      16.596  -3.628  56.765  1.00  0.00     0.166 C
HETATM   26  O6  UNL     1      16.003  -4.350  56.006  1.00  0.00    -0.294 OA
ENDROOT
BRANCH   1  27
HETATM   27  C9  UNL     1      17.589  -2.815  54.722  1.00  0.00     0.050 C
BRANCH  27  28
HETATM   28  C7  UNL     1      18.944  -3.165  54.277  1.00  0.00    -0.008 C
HETATM   29  C8  UNL     1      19.123  -4.512  53.643  1.00  0.00     0.010 C
BRANCH  28  30
HETATM   30  C6  UNL     1      19.322  -2.164  53.147  1.00  0.00     0.082 C
BRANCH  30  31
HETATM   31  C5  UNL     1      20.790  -2.044  53.079  1.00  0.00     0.129 C
HETATM   32  O3  UNL     1      21.420  -2.794  52.364  1.00  0.00    -0.298 OA
BRANCH  31  33
HETATM   33  C4  UNL     1      21.525  -1.020  53.862  1.00  0.00     0.105 C
BRANCH  33  34
HETATM   34  C3  UNL     1      21.651   0.312  53.162  1.00  0.00     0.186 C
BRANCH  34  35
HETATM   35  O2  UNL     1      20.588   1.133  53.587  1.00  0.00    -0.321 OA
BRANCH  35  36
HETATM   36  C2  UNL     1      20.199   1.360  54.868  1.00  0.00     0.254 C
HETATM   37  C1  UNL     1      18.783   1.142  55.348  1.00  0.00     0.126 C
HETATM   38  O1  UNL     1      21.017   1.767  55.718  1.00  0.00    -0.266 OA
ENDBRANCH  35  36
ENDBRANCH  34  35
ENDBRANCH  33  34
ENDBRANCH  31  33
ENDBRANCH  30  31
ENDBRANCH  28  30
ENDBRANCH  27  28
ENDBRANCH   1  27
BRANCH   1  39
HETATM   39  O4  UNL     1      16.499  -1.400  56.237  1.00  0.00    -0.382 OA
ATOM     40  H4  UNL     1      15.976  -1.428  55.445  1.00  0.00     0.211 HD
ENDBRANCH   1  39
TORSDOF 9
ENDMDL