MODEL 1
REMARK VINA RESULT: -8.631869022      0.000      0.000
REMARK  8 active torsions:
REMARK  status: ('A' for Active; 'I' for Inactive)
REMARK    1  A    between atoms: C3_5  and  N2_6
REMARK    2  A    between atoms: N2_6  and  C4_8
REMARK    3  A    between atoms: C9_14  and  C10_15
REMARK    4  A    between atoms: C10_15  and  N3_16
REMARK    5  A    between atoms: N3_16  and  C12_18
REMARK    6  A    between atoms: C17_23  and  N4_24
REMARK    7  A    between atoms: C19_26  and  C20_27
REMARK    8  A    between atoms: C20_27  and  N5_28
ROOT
HETATM    1  C1  UNL     1      14.731   0.211  51.224  1.00  0.00     0.089 C
HETATM    2  C2  UNL     1      14.979  -0.965  52.112  1.00  0.00     0.079 A
HETATM    3  N1  UNL     1      15.811  -0.842  53.157  1.00  0.00    -0.332 N
ATOM      4  H1  UNL     1      16.257   0.061  53.318  1.00  0.00     0.168 HD
HETATM    5  C3  UNL     1      16.086  -1.848  54.000  1.00  0.00     0.119 A
HETATM    6  C15 UNL     1      15.477  -3.073  53.780  1.00  0.00     0.037 A
HETATM    7  C16 UNL     1      15.736  -4.126  54.623  1.00  0.00     0.049 A
HETATM    8  C17 UNL     1      15.133  -5.349  54.410  1.00  0.00     0.057 A
HETATM    9  C25 UNL     1      14.283  -5.450  53.333  1.00  0.00     0.034 A
HETATM   10  C26 UNL     1      14.001  -4.421  52.468  1.00  0.00     0.033 A
HETATM   11  C27 UNL     1      14.624  -3.197  52.709  1.00  0.00     0.047 A
HETATM   12  N7  UNL     1      14.392  -2.153  51.902  1.00  0.00    -0.345 N
ATOM     13  H7  UNL     1      13.756  -2.263  51.112  1.00  0.00     0.167 HD
ENDROOT
BRANCH   5  14
HETATM   14  N2  UNL     1      16.897  -1.670  54.989  1.00  0.00    -0.341 N
ATOM     15  H2  UNL     1      16.688  -2.080  55.899  1.00  0.00     0.167 HD
BRANCH  14  16
HETATM   16  C4  UNL     1      18.078  -0.904  54.809  1.00  0.00     0.041 A
HETATM   17  C5  UNL     1      18.115   0.423  55.146  1.00  0.00     0.031 A
HETATM   18  C6  UNL     1      19.283   1.146  54.959  1.00  0.00     0.021 A
HETATM   19  C7  UNL     1      20.399   0.529  54.435  1.00  0.00     0.011 A
HETATM   20 BR1  UNL     1      21.982   1.567  54.195  1.00  0.00    -0.051 Br
HETATM   21  C8  UNL     1      20.382  -0.828  54.083  1.00  0.00     0.030 A
HETATM   22  C9  UNL     1      19.220  -1.517  54.278  1.00  0.00    -0.002 A
BRANCH  22  23
HETATM   23  C10 UNL     1      19.105  -2.942  53.967  1.00  0.00     0.313 C
BRANCH  23  24
HETATM   24  N3  UNL     1      19.715  -3.810  54.900  1.00  0.00     0.092 N
HETATM   25  C11 UNL     1      20.767  -4.636  54.342  1.00  0.00     0.310 C
BRANCH  24  26
HETATM   26  C12 UNL     1      18.828  -4.648  55.637  1.00  0.00     0.215 C
HETATM   27  C13 UNL     1      19.541  -5.991  55.838  1.00  0.00     0.042 C
HETATM   28  C14 UNL     1      18.517  -4.129  57.020  1.00  0.00     0.042 C
ENDBRANCH  24  26
ENDBRANCH  23  24
ENDBRANCH  22  23
ENDBRANCH  14  16
ENDBRANCH   5  14
BRANCH   8  29
HETATM   29  N4  UNL     1      15.382  -6.452  55.267  1.00  0.00    -0.267 N
HETATM   30  C18 UNL     1      15.574  -7.738  54.855  1.00  0.00     0.127 A
HETATM   31  C19 UNL     1      15.787  -8.544  55.938  1.00  0.00     0.000 A
HETATM   32  C23 UNL     1      15.718  -7.702  57.034  1.00  0.00     0.032 A
HETATM   33  C24 UNL     1      15.892  -8.138  58.460  1.00  0.00     0.070 C
HETATM   34  N6  UNL     1      15.476  -6.473  56.585  1.00  0.00    -0.298 N
ATOM     35  H6  UNL     1      15.377  -5.651  57.181  1.00  0.00     0.187 HD
BRANCH  31  36
HETATM   36  C20 UNL     1      16.042  -9.997  55.905  1.00  0.00     0.158 C
BRANCH  36  37
HETATM   37  N5  UNL     1      15.601 -10.669  54.732  1.00  0.00    -0.417 N
HETATM   38  C21 UNL     1      14.431 -11.477  54.860  1.00  0.00     0.142 C
HETATM   39  C22 UNL     1      16.643 -11.277  53.968  1.00  0.00     0.142 C
ENDBRANCH  36  37
ENDBRANCH  31  36
ENDBRANCH   8  29
TORSDOF 8
ENDMDL