MODEL 2
REMARK VINA RESULT: -1.591115771      2.735      6.050
REMARK  4 active torsions:
REMARK  status: ('A' for Active; 'I' for Inactive)
REMARK    1  A    between atoms: C2_2  and  C3_3
REMARK    2  A    between atoms: C3_3  and  C4_4
REMARK    3  A    between atoms: C6_6  and  O1_7
REMARK    4  A    between atoms: N1_19  and  O2_21
ROOT
HETATM    1  C4  UNL     1     -34.808 -11.161   1.887  1.00  0.00    -0.011 C
HETATM    2  C5  UNL     1     -34.173  -9.780   2.186  1.00  0.00     0.018 C
HETATM    3  C6  UNL     1     -36.125 -10.828   1.263  1.00  0.00     0.127 C
HETATM    4  C7  UNL     1     -36.444 -11.390  -0.060  1.00  0.00     0.033 C
HETATM    5  C8  UNL     1     -35.344 -12.076  -0.807  1.00  0.00     0.013 C
HETATM    6  C9  UNL     1     -34.599 -12.971   0.139  1.00  0.00    -0.032 C
HETATM    7  C10 UNL     1     -35.560 -13.881   0.801  1.00  0.00     0.016 C
HETATM    8  C11 UNL     1     -33.897 -12.013   1.104  1.00  0.00     0.005 C
HETATM    9  C12 UNL     1     -32.921 -11.128   0.376  1.00  0.00     0.007 C
HETATM   10  C13 UNL     1     -32.101 -11.800  -0.670  1.00  0.00     0.006 C
HETATM   11  C14 UNL     1     -32.185 -13.265  -0.497  1.00  0.00    -0.000 C
HETATM   12  C15 UNL     1     -31.311 -13.961  -1.516  1.00  0.00     0.060 C
HETATM   13  C16 UNL     1     -31.283 -15.388  -1.105  1.00  0.00     0.010 C
HETATM   14  N1  UNL     1     -30.222 -16.052  -1.406  1.00  0.00    -0.277 N
ATOM     15  H1  UNL     1     -29.471 -15.570  -1.901  1.00  0.00     0.193 HD
HETATM   16  C17 UNL     1     -32.368 -16.051  -0.401  1.00  0.00     0.055 C
HETATM   17  C18 UNL     1     -33.438 -15.201   0.149  1.00  0.00     0.016 C
HETATM   18  C19 UNL     1     -33.556 -13.838  -0.550  1.00  0.00    -0.032 C
HETATM   19  C20 UNL     1     -34.054 -14.100  -1.943  1.00  0.00     0.016 C
ENDROOT
BRANCH   1  20
HETATM   20  C3  UNL     1     -35.003 -11.719   3.286  1.00  0.00     0.038 C
BRANCH  20  21
HETATM   21  C2  UNL     1     -36.371 -12.226   3.537  1.00  0.00    -0.036 C
HETATM   22  C1  UNL     1     -36.576 -13.487   3.916  1.00  0.00     0.007 C
ENDBRANCH  20  21
ENDBRANCH   1  20
BRANCH   3  23
HETATM   23  O1  UNL     1     -36.397  -9.443   1.227  1.00  0.00    -0.395 OA
ATOM     24  H1  UNL     1     -35.892  -8.940   1.856  1.00  0.00     0.210 HD
ENDBRANCH   3  23
BRANCH  14  25
HETATM   25  O2  UNL     1     -30.051 -17.386  -1.090  1.00  0.00    -0.290 OA
ATOM     26  H2  UNL     1     -29.209 -17.824  -1.124  1.00  0.00     0.244 HD
ENDBRANCH  14  25
TORSDOF 4
ENDMDL