MODEL 2
REMARK VINA RESULT: -3.459580397      1.412      5.282
REMARK  4 active torsions:
REMARK  status: ('A' for Active; 'I' for Inactive)
REMARK    1  A    between atoms: C2_2  and  C4_4
REMARK    2  A    between atoms: C7_7  and  O1_8
REMARK    3  A    between atoms: C7_7  and  C8_10
REMARK    4  A    between atoms: C11_13  and  O2_14
ROOT
HETATM    1  C4  UNL     1     -31.884 -10.759  -0.589  1.00  0.00     0.048 C
HETATM    2  C5  UNL     1     -31.543 -12.218  -0.485  1.00  0.00     0.015 C
HETATM    3  C6  UNL     1     -32.531 -13.037  -1.224  1.00  0.00     0.048 C
HETATM    4  C7  UNL     1     -33.849 -13.270  -0.567  1.00  0.00     0.129 C
HETATM    5  C11 UNL     1     -34.437 -11.996  -0.016  1.00  0.00     0.296 C
HETATM    6  O3  UNL     1     -33.651 -11.345   0.857  1.00  0.00    -0.346 OA
HETATM    7  C12 UNL     1     -32.891 -10.282   0.431  1.00  0.00     0.072 C
HETATM    8  C13 UNL     1     -32.103  -9.870   1.662  1.00  0.00     0.039 C
HETATM    9  C14 UNL     1     -32.921  -9.042   2.637  1.00  0.00     0.004 C
HETATM   10  C15 UNL     1     -33.153  -7.711   1.912  1.00  0.00     0.009 C
HETATM   11  C16 UNL     1     -34.021  -8.002   0.740  1.00  0.00    -0.045 C
HETATM   12  C17 UNL     1     -35.464  -8.082   1.237  1.00  0.00     0.015 C
HETATM   13  C18 UNL     1     -34.024  -6.744  -0.144  1.00  0.00     0.015 C
HETATM   14  C19 UNL     1     -33.649  -9.142  -0.128  1.00  0.00     0.047 C
ENDROOT
BRANCH   1  15
HETATM   15  C2  UNL     1     -30.629 -10.008  -0.631  1.00  0.00    -0.086 C
HETATM   16  C1  UNL     1     -29.525 -10.466  -1.277  1.00  0.00     0.014 C
HETATM   17  C3  UNL     1     -30.462  -8.664  -0.029  1.00  0.00     0.043 C
ENDBRANCH   1  15
BRANCH   5  18
HETATM   18  O2  UNL     1     -35.640 -12.313   0.583  1.00  0.00    -0.368 OA
ATOM     19  H2  UNL     1     -35.731 -13.259   0.565  1.00  0.00     0.212 HD
ENDBRANCH   5  18
BRANCH   4  20
HETATM   20  O1  UNL     1     -34.702 -13.857  -1.486  1.00  0.00    -0.380 OA
ATOM     21  H1  UNL     1     -34.201 -14.088  -2.260  1.00  0.00     0.211 HD
ENDBRANCH   4  20
BRANCH   4  22
HETATM   22  C8  UNL     1     -33.615 -14.325   0.506  1.00  0.00    -0.054 C
HETATM   23  C9  UNL     1     -33.890 -14.433   1.667  1.00  0.00     0.017 C
HETATM   24  C10 UNL     1     -32.863 -15.573  -0.133  1.00  0.00     0.046 C
ENDBRANCH   4  22
TORSDOF 4
ENDMDL