MODEL 3
REMARK VINA RESULT: -4.501494504      1.168      1.414
REMARK  5 active torsions:
REMARK  status: ('A' for Active; 'I' for Inactive)
REMARK    1  A    between atoms: C2_2  and  C4_4
REMARK    2  A    between atoms: C7_7  and  O1_9
REMARK    3  A    between atoms: C10_12  and  O2_13
REMARK    4  A    between atoms: C12_16  and  C13_17
REMARK    5  A    between atoms: C13_17  and  O3_18
ROOT
HETATM    1  C4  UNL     1     -30.210  -9.922  -0.331  1.00  0.00     0.013 C
HETATM    2  C5  UNL     1     -30.971  -8.644  -0.300  1.00  0.00     0.012 C
HETATM    3  C6  UNL     1     -31.379  -8.176   1.069  1.00  0.00     0.038 C
HETATM    4  C7  UNL     1     -32.873  -8.400   1.350  1.00  0.00     0.057 C
HETATM    5  C8  UNL     1     -33.180  -7.337   2.437  1.00  0.00     0.045 C
HETATM    6  C9  UNL     1     -33.069  -9.778   1.825  1.00  0.00     0.076 C
HETATM    7  C10 UNL     1     -34.046 -10.676   1.115  1.00  0.00     0.071 C
HETATM    8  C11 UNL     1     -34.868 -11.283   2.231  1.00  0.00     0.074 C
HETATM    9  C12 UNL     1     -35.558 -12.518   2.041  1.00  0.00    -0.058 C
HETATM   10  C14 UNL     1     -35.121 -13.689   1.625  1.00  0.00    -0.022 C
HETATM   11  C15 UNL     1     -33.750 -14.025   1.235  1.00  0.00     0.028 C
HETATM   12  C16 UNL     1     -32.856 -12.879   0.948  1.00  0.00     0.016 C
HETATM   13  C17 UNL     1     -33.440 -11.726   0.200  1.00  0.00    -0.012 C
HETATM   14  C18 UNL     1     -34.587 -12.156  -0.741  1.00  0.00     0.018 C
HETATM   15  C19 UNL     1     -32.366 -11.201  -0.716  1.00  0.00     0.013 C
HETATM   16  C20 UNL     1     -30.967 -11.205  -0.284  1.00  0.00     0.010 C
ENDROOT
BRANCH   1  17
HETATM   17  C2  UNL     1     -29.279  -9.846  -1.523  1.00  0.00    -0.089 C
HETATM   18  C1  UNL     1     -28.404 -10.799  -1.793  1.00  0.00     0.014 C
HETATM   19  C3  UNL     1     -29.330  -8.670  -2.435  1.00  0.00     0.043 C
ENDBRANCH   1  17
BRANCH   4  20
HETATM   20  O1  UNL     1     -33.573  -7.951   0.271  1.00  0.00    -0.390 OA
ATOM     21  H1  UNL     1     -32.950  -7.608  -0.359  1.00  0.00     0.210 HD
ENDBRANCH   4  20
BRANCH   7  22
HETATM   22  O2  UNL     1     -34.949  -9.909   0.356  1.00  0.00    -0.389 OA
ATOM     23  H2  UNL     1     -34.552  -9.081   0.112  1.00  0.00     0.210 HD
ENDBRANCH   7  22
BRANCH   9  24
HETATM   24  C13 UNL     1     -37.021 -12.517   2.360  1.00  0.00     0.198 C
BRANCH  24  25
HETATM   25  O3  UNL     1     -37.632 -11.345   1.925  1.00  0.00    -0.397 OA
ATOM     26  H3  UNL     1     -37.004 -10.762   1.513  1.00  0.00     0.209 HD
ENDBRANCH  24  25
ENDBRANCH   9  24
TORSDOF 5
ENDMDL