MODEL 3
REMARK VINA RESULT: -4.539658544      2.849      4.963
REMARK  4 active torsions:
REMARK  status: ('A' for Active; 'I' for Inactive)
REMARK    1  A    between atoms: C3_3  and  S1_4
REMARK    2  A    between atoms: S1_4  and  C4_5
REMARK    3  A    between atoms: C4_5  and  C7_8
REMARK    4  A    between atoms: C7_8  and  C10_11
ROOT
HETATM    1  C1  UNL     1     -29.920 -10.911  -1.471  1.00  0.00     0.057 C
HETATM    2  C2  UNL     1     -31.145 -11.540  -0.925  1.00  0.00     0.040 A
HETATM    3  C3  UNL     1     -32.019 -10.888  -0.094  1.00  0.00     0.084 A
HETATM    4  N1  UNL     1     -33.101 -11.553   0.328  1.00  0.00    -0.327 N
ATOM      5  H1  UNL     1     -33.762 -11.083   0.947  1.00  0.00     0.169 HD
HETATM    6  C14 UNL     1     -33.345 -12.835  -0.045  1.00  0.00     0.179 A
HETATM    7  S2  UNL     1     -34.683 -13.564   0.515  1.00  0.00    -0.040 SA
HETATM    8  N2  UNL     1     -32.511 -13.491  -0.851  1.00  0.00    -0.300 N
ATOM      9  H2  UNL     1     -32.706 -14.455  -1.123  1.00  0.00     0.171 HD
HETATM   10  C15 UNL     1     -31.412 -12.868  -1.301  1.00  0.00     0.256 A
HETATM   11  O1  UNL     1     -30.592 -13.460  -2.073  1.00  0.00    -0.267 OA
ENDROOT
BRANCH   3  12
HETATM   12  S1  UNL     1     -31.740  -9.231   0.396  1.00  0.00    -0.101 SA
BRANCH  12  13
HETATM   13  C4  UNL     1     -32.968  -8.620   1.628  1.00  0.00     0.015 C
HETATM   14  C5  UNL     1     -33.396  -9.907   2.344  1.00  0.00     0.028 C
HETATM   15  C6  UNL     1     -32.243  -7.804   2.615  1.00  0.00     0.028 C
BRANCH  13  16
HETATM   16  C7  UNL     1     -34.039  -7.984   0.835  1.00  0.00    -0.025 C
HETATM   17  C8  UNL     1     -35.233  -8.945   0.874  1.00  0.00     0.017 C
HETATM   18  C9  UNL     1     -33.624  -7.940  -0.631  1.00  0.00     0.017 C
BRANCH  16  19
HETATM   19  C10 UNL     1     -34.515  -6.642   1.185  1.00  0.00    -0.043 C
HETATM   20  C11 UNL     1     -35.827  -6.553   1.934  1.00  0.00     0.015 C
HETATM   21  C12 UNL     1     -34.815  -5.921  -0.148  1.00  0.00     0.015 C
HETATM   22  C13 UNL     1     -33.511  -5.745   1.881  1.00  0.00     0.015 C
ENDBRANCH  16  19
ENDBRANCH  13  16
ENDBRANCH  12  13
ENDBRANCH   3  12
TORSDOF 4
ENDMDL