MODEL 5
REMARK VINA RESULT: -6.214021451      3.370      7.400
REMARK  4 active torsions:
REMARK  status: ('A' for Active; 'I' for Inactive)
REMARK    1  A    between atoms: O1_1  and  N1_3
REMARK    2  A    between atoms: C1_5  and  N2_6
REMARK    3  A    between atoms: C1_5  and  C8_16
REMARK    4  A    between atoms: N2_6  and  C2_7
ROOT
HETATM    1  N1  UNL     1     -32.724  -7.850   1.505  1.00  0.00    -0.245 N
ATOM      2  H1  UNL     1     -33.590  -7.970   2.030  1.00  0.00     0.196 HD
HETATM    3  C1  UNL     1     -32.276  -8.786   0.682  1.00  0.00     0.178 C
ENDROOT
BRANCH   3   4
HETATM    4  N2  UNL     1     -31.174  -8.688  -0.016  1.00  0.00    -0.396 NA
BRANCH   4   5
HETATM    5  C2  UNL     1     -30.190  -8.716  -0.703  1.00  0.00     0.097 C
HETATM    6  C3  UNL     1     -28.991  -7.770  -0.636  1.00  0.00     0.103 C
HETATM    7  C4  UNL     1     -28.176  -8.175  -1.820  1.00  0.00     0.193 C
HETATM    8  C5  UNL     1     -27.422  -9.454  -1.528  1.00  0.00     0.036 C
HETATM    9  N3  UNL     1     -29.202  -8.667  -2.740  1.00  0.00    -0.060 N
HETATM   10  C6  UNL     1     -28.587 -10.451  -1.442  1.00  0.00     0.042 C
HETATM   11  C7  UNL     1     -29.782  -9.644  -1.833  1.00  0.00     0.246 C
ATOM     12  H32 UNL     1     -29.832  -7.977  -3.148  1.00  0.00     0.278 HD
ATOM     13  H31 UNL     1     -28.890  -9.003  -3.651  1.00  0.00     0.278 HD
ENDBRANCH   4   5
ENDBRANCH   3   4
BRANCH   3  14
HETATM   14  C8  UNL     1     -33.172 -10.007   0.625  1.00  0.00     0.070 C
HETATM   15  C9  UNL     1     -32.262 -11.198   0.546  1.00  0.00     0.013 C
HETATM   16  C10 UNL     1     -32.666 -12.159  -0.587  1.00  0.00     0.001 C
HETATM   17  C11 UNL     1     -32.624 -13.576  -0.168  1.00  0.00     0.000 C
HETATM   18  C12 UNL     1     -33.821 -14.406  -0.184  1.00  0.00     0.000 C
HETATM   19  C13 UNL     1     -35.140 -13.861  -0.510  1.00  0.00     0.000 C
HETATM   20  C14 UNL     1     -36.039 -13.584   0.681  1.00  0.00     0.000 C
HETATM   21  C15 UNL     1     -35.346 -13.200   1.923  1.00  0.00     0.000 C
HETATM   22  C16 UNL     1     -35.765 -11.818   2.436  1.00  0.00     0.000 C
HETATM   23  C17 UNL     1     -35.440 -10.731   1.455  1.00  0.00     0.001 C
HETATM   24  C18 UNL     1     -34.128 -10.038   1.765  1.00  0.00     0.013 C
ENDBRANCH   3  14
BRANCH   1  25
HETATM   25  O1  UNL     1     -31.971  -6.712   1.617  1.00  0.00    -0.288 OA
ATOM     26  H1  UNL     1     -31.447  -6.468   0.863  1.00  0.00     0.244 HD
ENDBRANCH   1  25
TORSDOF 4
ENDMDL