MODEL 3
REMARK VINA RESULT: -3.444435468      2.408      3.946
REMARK  4 active torsions:
REMARK  status: ('A' for Active; 'I' for Inactive)
REMARK    1  A    between atoms: C2_2  and  O1_3
REMARK    2  A    between atoms: C2_2  and  C3_5
REMARK    3  A    between atoms: C3_5  and  C5_7
REMARK    4  A    between atoms: C11_13  and  O2_14
ROOT
HETATM    1  C5  UNL     1     -34.437 -11.574   0.747  1.00  0.00    -0.031 C
HETATM    2  C6  UNL     1     -34.470 -12.030  -0.694  1.00  0.00     0.016 C
HETATM    3  C7  UNL     1     -35.482 -10.426   0.732  1.00  0.00     0.011 C
HETATM    4  C8  UNL     1     -36.771 -11.170   0.634  1.00  0.00     0.007 C
HETATM    5  C9  UNL     1     -36.504 -12.493   1.299  1.00  0.00     0.002 C
HETATM    6  C10 UNL     1     -37.498 -12.748   2.350  1.00  0.00     0.027 C
HETATM    7  C11 UNL     1     -38.087 -11.586   3.098  1.00  0.00     0.124 C
HETATM    8  C12 UNL     1     -37.913 -12.343   4.410  1.00  0.00     0.041 C
HETATM    9  C13 UNL     1     -37.078 -13.354   3.616  1.00  0.00    -0.035 C
HETATM   10  C14 UNL     1     -37.646 -14.740   3.957  1.00  0.00     0.016 C
HETATM   11  C15 UNL     1     -35.646 -13.257   3.963  1.00  0.00     0.010 C
HETATM   12  C16 UNL     1     -34.896 -12.205   3.129  1.00  0.00     0.011 C
HETATM   13  C17 UNL     1     -35.036 -12.524   1.672  1.00  0.00    -0.032 C
HETATM   14  C18 UNL     1     -34.607 -13.971   1.564  1.00  0.00     0.016 C
ENDROOT
BRANCH   1  15
HETATM   15  C3  UNL     1     -33.151 -10.931   0.968  1.00  0.00     0.020 C
HETATM   16  C4  UNL     1     -31.952 -11.377   0.166  1.00  0.00     0.013 C
BRANCH  15  17
HETATM   17  C2  UNL     1     -33.085  -9.429   1.054  1.00  0.00     0.139 C
HETATM   18  C1  UNL     1     -31.993  -8.912   0.070  1.00  0.00     0.041 C
BRANCH  17  19
HETATM   19  O1  UNL     1     -32.657  -8.931   2.277  1.00  0.00    -0.303 OA
HETATM   20  S1  UNL     1     -32.237  -7.287   2.252  1.00  0.00     0.093 SA
ENDBRANCH  17  19
ENDBRANCH  15  17
ENDBRANCH   1  15
BRANCH   7  21
HETATM   21  O2  UNL     1     -39.437 -11.328   2.861  1.00  0.00    -0.395 OA
ATOM     22  H2  UNL     1     -39.926 -12.025   2.439  1.00  0.00     0.210 HD
ENDBRANCH   7  21
TORSDOF 4
ENDMDL