MODEL 1
REMARK VINA RESULT: -5.896265778      0.000      0.000
REMARK  4 active torsions:
REMARK  status: ('A' for Active; 'I' for Inactive)
REMARK    1  A    between atoms: C2_2  and  C3_3
REMARK    2  A    between atoms: C3_3  and  C4_4
REMARK    3  A    between atoms: C16_17  and  O1_19
REMARK    4  A    between atoms: C20_23  and  O2_24
ROOT
HETATM    1  C4  UNL     1     -32.691 -10.543   0.806  1.00  0.00     0.019 C
HETATM    2  C5  UNL     1     -32.836 -11.287  -0.508  1.00  0.00     0.027 C
HETATM    3  C6  UNL     1     -32.248 -12.666  -0.449  1.00  0.00     0.102 C
HETATM    4  C7  UNL     1     -31.166 -12.705  -1.452  1.00  0.00     0.064 C
HETATM    5  N1  UNL     1     -30.326 -12.716  -2.243  1.00  0.00    -0.197 NA
HETATM    6  C8  UNL     1     -33.236 -13.793  -0.630  1.00  0.00    -0.024 C
HETATM    7  C9  UNL     1     -34.104 -13.590  -1.836  1.00  0.00     0.017 C
HETATM    8  C10 UNL     1     -32.433 -15.063  -0.953  1.00  0.00     0.011 C
HETATM    9  C11 UNL     1     -32.228 -15.769   0.348  1.00  0.00     0.001 C
HETATM   10  C12 UNL     1     -33.527 -15.556   1.036  1.00  0.00     0.005 C
HETATM   11  C13 UNL     1     -33.963 -14.133   0.630  1.00  0.00    -0.005 C
HETATM   12  C14 UNL     1     -35.428 -14.143   0.615  1.00  0.00     0.008 C
HETATM   13  C15 UNL     1     -36.135 -12.843   0.931  1.00  0.00     0.038 C
HETATM   14  C16 UNL     1     -36.022 -12.368   2.324  1.00  0.00     0.054 C
HETATM   15  C17 UNL     1     -37.388 -11.939   2.891  1.00  0.00     0.045 C
HETATM   16  C18 UNL     1     -35.049 -11.249   2.600  1.00  0.00     0.040 C
HETATM   17  C19 UNL     1     -35.053 -10.104   1.704  1.00  0.00     0.035 C
HETATM   18  C20 UNL     1     -33.811  -9.613   1.083  1.00  0.00     0.122 C
ENDROOT
BRANCH   1  19
HETATM   19  C3  UNL     1     -31.350  -9.842   0.785  1.00  0.00     0.033 C
BRANCH  19  20
HETATM   20  C2  UNL     1     -30.968  -9.276  -0.514  1.00  0.00    -0.036 C
HETATM   21  C1  UNL     1     -29.702  -9.255  -0.859  1.00  0.00     0.007 C
ENDBRANCH  19  20
ENDBRANCH   1  19
BRANCH  18  22
HETATM   22  O2  UNL     1     -33.279  -8.577   1.901  1.00  0.00    -0.395 OA
ATOM     23  H2  UNL     1     -33.833  -7.817   1.767  1.00  0.00     0.210 HD
ENDBRANCH  18  22
BRANCH  14  24
HETATM   24  O1  UNL     1     -35.641 -13.448   3.157  1.00  0.00    -0.390 OA
ATOM     25  H1  UNL     1     -35.827 -13.228   4.062  1.00  0.00     0.210 HD
ENDBRANCH  14  24
TORSDOF 4
ENDMDL