MODEL 3
REMARK VINA RESULT: -5.253242926      2.218      4.383
REMARK  4 active torsions:
REMARK  status: ('A' for Active; 'I' for Inactive)
REMARK    1  A    between atoms: C8_9  and  O2_10
REMARK    2  A    between atoms: C10_13  and  O3_14
REMARK    3  A    between atoms: C15_20  and  C16_21
REMARK    4  A    between atoms: C16_21  and  C17_22
ROOT
HETATM    1  C1  UNL     1     -34.143  -7.223   1.535  1.00  0.00     0.019 C
HETATM    2  C2  UNL     1     -34.327  -8.458   1.180  1.00  0.00    -0.062 C
HETATM    3  C3  UNL     1     -35.644  -9.135   1.103  1.00  0.00     0.038 C
HETATM    4  C4  UNL     1     -35.763 -10.291   0.162  1.00  0.00     0.013 C
HETATM    5  C5  UNL     1     -34.587 -11.114   0.133  1.00  0.00     0.038 C
HETATM    6  C6  UNL     1     -33.430 -10.745   1.025  1.00  0.00     0.089 C
HETATM    7  C7  UNL     1     -33.671 -10.970   2.510  1.00  0.00     0.051 C
HETATM    8  O1  UNL     1     -32.499 -11.681   0.669  1.00  0.00    -0.339 OA
HETATM    9  C8  UNL     1     -33.137 -12.813   0.252  1.00  0.00     0.173 C
HETATM   10  C9  UNL     1     -32.851 -14.117   0.841  1.00  0.00     0.100 C
HETATM   11  C10 UNL     1     -33.567 -15.167   0.037  1.00  0.00     0.123 C
HETATM   12  C11 UNL     1     -34.700 -14.796  -0.810  1.00  0.00     0.033 C
HETATM   13  C12 UNL     1     -35.098 -13.362  -0.954  1.00  0.00     0.017 C
HETATM   14  C13 UNL     1     -34.638 -12.584   0.292  1.00  0.00     0.019 C
HETATM   15  C14 UNL     1     -35.395 -13.137   1.411  1.00  0.00     0.021 C
HETATM   16  C15 UNL     1     -33.150  -9.337   0.793  1.00  0.00    -0.037 C
ENDROOT
BRANCH  16  17
HETATM   17  C16 UNL     1     -32.415  -8.809  -0.365  1.00  0.00     0.065 C
BRANCH  17  18
HETATM   18  C17 UNL     1     -30.991  -8.720  -0.292  1.00  0.00    -0.020 C
HETATM   19  C18 UNL     1     -30.103  -9.552  -0.690  1.00  0.00    -0.091 C
HETATM   20  C19 UNL     1     -30.325 -10.854  -1.348  1.00  0.00     0.042 C
HETATM   21  C20 UNL     1     -28.621  -9.207  -0.499  1.00  0.00     0.042 C
ENDBRANCH  17  18
ENDBRANCH  16  17
BRANCH   9  22
HETATM   22  O2  UNL     1     -32.740 -12.933  -1.117  1.00  0.00    -0.364 OA
ATOM     23  H2  UNL     1     -33.566 -12.928  -1.587  1.00  0.00     0.213 HD
ENDBRANCH   9  22
BRANCH  11  24
HETATM   24  O3  UNL     1     -34.004 -16.134   0.996  1.00  0.00    -0.395 OA
ATOM     25  H3  UNL     1     -34.915 -16.298   0.781  1.00  0.00     0.210 HD
ENDBRANCH  11  24
TORSDOF 4
ENDMDL