MODEL 4
REMARK VINA RESULT: -7.005996409      1.982      2.841
REMARK  8 active torsions:
REMARK  status: ('A' for Active; 'I' for Inactive)
REMARK    1  A    between atoms: C2_2  and  C3_3
REMARK    2  A    between atoms: N1_8  and  C8_9
REMARK    3  A    between atoms: C8_9  and  C9_10
REMARK    4  A    between atoms: C9_10  and  C10_11
REMARK    5  A    between atoms: C10_11  and  N2_12
REMARK       I    between atoms: N2_12  and  C11_14
REMARK    6  A    between atoms: C11_14  and  C12_16
REMARK       I    between atoms: C12_16  and  N3_18
REMARK    7  A    between atoms: N3_18  and  C13_20
REMARK    8  A    between atoms: C13_20  and  C14_21
ROOT
HETATM    1  N2  UNL     1      18.351   5.903  10.042  1.00  0.00    -0.353 N
ATOM      2  H2  UNL     1      19.294   5.702  10.377  1.00  0.00     0.162 HD
HETATM    3  C11 UNL     1      17.273   5.292  10.724  1.00  0.00     0.309 C
HETATM    4  O1  UNL     1      16.069   5.469  10.396  1.00  0.00    -0.262 OA
ENDROOT
BRANCH   3   5
HETATM    5  C12 UNL     1      17.549   4.424  11.852  1.00  0.00     0.309 C
HETATM    6  O2  UNL     1      18.730   4.260  12.234  1.00  0.00    -0.262 OA
HETATM    7  N3  UNL     1      16.483   3.771  12.508  1.00  0.00    -0.350 N
ATOM      8  H3  UNL     1      15.524   3.910  12.190  1.00  0.00     0.162 HD
BRANCH   7   9
HETATM    9  C13 UNL     1      16.758   2.895  13.645  1.00  0.00     0.155 C
BRANCH   9  10
HETATM   10  C14 UNL     1      15.858   3.311  14.802  1.00  0.00     0.139 C
HETATM   11  C15 UNL     1      16.299   4.607  15.391  1.00  0.00     0.035 C
HETATM   12  C16 UNL     1      15.132   5.598  15.510  1.00  0.00     0.029 C
HETATM   13  C17 UNL     1      14.208   5.209  16.635  1.00  0.00     0.167 C
HETATM   14  O3  UNL     1      14.037   3.825  16.667  1.00  0.00    -0.389 OA
HETATM   15  C18 UNL     1      14.885   3.328  17.640  1.00  0.00     0.193 C
HETATM   16  C19 UNL     1      15.904   2.443  16.964  1.00  0.00     0.194 C
HETATM   17  O4  UNL     1      15.716   2.264  15.634  1.00  0.00    -0.382 OA
ENDBRANCH   9  10
ENDBRANCH   7   9
ENDBRANCH   3   5
BRANCH   1  18
HETATM   18  C10 UNL     1      18.224   6.788   8.912  1.00  0.00     0.125 C
BRANCH  18  19
HETATM   19  C9  UNL     1      18.301   8.252   9.279  1.00  0.00     0.050 C
BRANCH  19  20
HETATM   20  C8  UNL     1      16.945   8.830   9.475  1.00  0.00     0.274 C
BRANCH  20  21
HETATM   21  N1  UNL     1      16.665   9.343  10.790  1.00  0.00     0.093 N
HETATM   22  C3  UNL     1      15.548   8.666  11.395  1.00  0.00     0.222 C
HETATM   23  C4  UNL     1      14.251   9.361  11.333  1.00  0.00     0.036 C
HETATM   24  C5  UNL     1      14.236  10.834  11.204  1.00  0.00     0.004 C
HETATM   25  C6  UNL     1      15.293  11.251  10.201  1.00  0.00     0.030 C
HETATM   26  C7  UNL     1      16.605  10.747  10.808  1.00  0.00     0.273 C
BRANCH  22  27
HETATM   27  C2  UNL     1      15.885   8.159  12.781  1.00  0.00     0.031 C
HETATM   28  C1  UNL     1      17.340   7.981  13.041  1.00  0.00     0.007 C
ENDBRANCH  22  27
ENDBRANCH  20  21
ENDBRANCH  19  20
ENDBRANCH  18  19
ENDBRANCH   1  18
TORSDOF 8
ENDMDL