MODEL 5
REMARK VINA RESULT: -6.467364061      1.560      2.083
REMARK  10 active torsions:
REMARK  status: ('A' for Active; 'I' for Inactive)
REMARK    1  A    between atoms: C7_7  and  O1_8
REMARK    2  A    between atoms: C8_10  and  C9_11
REMARK    3  A    between atoms: C10_12  and  C11_13
REMARK    4  A    between atoms: C11_13  and  C12_15
REMARK    5  A    between atoms: C12_15  and  N1_16
REMARK    6  A    between atoms: N1_16  and  C13_17
REMARK    7  A    between atoms: N1_16  and  C15_19
REMARK    8  A    between atoms: C15_19  and  C16_20
REMARK    9  A    between atoms: C16_20  and  O3_21
REMARK   10  A    between atoms: C18_25  and  C19_26
ROOT
HETATM    1  C1  UNL     1      11.979   9.744   8.448  1.00  0.00     0.015 C
HETATM    2  C2  UNL     1      13.157  10.202   8.790  1.00  0.00    -0.082 C
HETATM    3  C3  UNL     1      14.094  10.955   7.923  1.00  0.00     0.039 C
HETATM    4  C4  UNL     1      15.233  11.331   8.845  1.00  0.00    -0.002 C
HETATM    5  C5  UNL     1      14.477  11.450  10.179  1.00  0.00     0.017 C
HETATM    6  C6  UNL     1      13.819  10.081  10.092  1.00  0.00     0.050 C
HETATM    7  C7  UNL     1      15.038   9.182   9.877  1.00  0.00     0.083 C
HETATM    8  C8  UNL     1      15.668   8.774  11.115  1.00  0.00     0.114 C
HETATM    9  C17 UNL     1      16.923   9.618  11.299  1.00  0.00     0.142 C
HETATM   10  O4  UNL     1      17.617   9.595  12.273  1.00  0.00    -0.297 OA
HETATM   11  C18 UNL     1      17.117  10.435  10.101  1.00  0.00     0.063 C
HETATM   12  C21 UNL     1      16.026  10.094   9.125  1.00  0.00     0.037 C
ENDROOT
BRANCH   8  13
HETATM   13  C9  UNL     1      16.049   7.424  11.435  1.00  0.00    -0.008 C
HETATM   14  C10 UNL     1      16.675   6.493  10.797  1.00  0.00     0.052 C
BRANCH  14  15
HETATM   15  C11 UNL     1      17.018   5.161  11.179  1.00  0.00     0.181 C
HETATM   16  O2  UNL     1      16.924   4.251  10.269  1.00  0.00    -0.288 OA
BRANCH  15  17
HETATM   17  C12 UNL     1      17.460   4.716  12.468  1.00  0.00     0.114 C
BRANCH  17  18
HETATM   18  N1  UNL     1      16.489   4.322  13.444  1.00  0.00    -0.288 NA
BRANCH  18  19
HETATM   19  C13 UNL     1      16.619   5.285  14.529  1.00  0.00     0.090 C
HETATM   20  C14 UNL     1      15.458   6.183  14.682  1.00  0.00     0.021 C
ENDBRANCH  18  19
BRANCH  18  21
HETATM   21  C15 UNL     1      16.708   2.969  13.932  1.00  0.00     0.121 C
BRANCH  21  22
HETATM   22  C16 UNL     1      16.341   2.797  15.390  1.00  0.00     0.179 C
BRANCH  22  23
HETATM   23  O3  UNL     1      17.498   2.251  15.996  1.00  0.00    -0.400 OA
ATOM     24  H3  UNL     1      17.543   2.660  16.852  1.00  0.00     0.209 HD
ENDBRANCH  22  23
ENDBRANCH  21  22
ENDBRANCH  18  21
ENDBRANCH  17  18
ENDBRANCH  15  17
ENDBRANCH  14  15
ENDBRANCH   8  13
BRANCH   7  25
HETATM   25  O1  UNL     1      14.632   8.251   8.960  1.00  0.00    -0.388 OA
ATOM     26  H1  UNL     1      14.290   7.532   9.477  1.00  0.00     0.210 HD
ENDBRANCH   7  25
BRANCH  11  27
HETATM   27  C19 UNL     1      18.493  10.242   9.519  1.00  0.00     0.008 C
HETATM   28  C20 UNL     1      18.469   9.050   8.588  1.00  0.00     0.006 C
ENDBRANCH  11  27
TORSDOF 10
ENDMDL