MODEL 1
REMARK VINA RESULT: -7.272816482      0.000      0.000
REMARK  8 active torsions:
REMARK  status: ('A' for Active; 'I' for Inactive)
REMARK    1  A    between atoms: O1_3  and  C2_4
REMARK    2  A    between atoms: C2_4  and  C3_5
REMARK    3  A    between atoms: C3_5  and  C4_6
REMARK    4  A    between atoms: C4_6  and  N2_7
REMARK    5  A    between atoms: C17_22  and  O2_23
REMARK    6  A    between atoms: O2_23  and  C18_24
REMARK    7  A    between atoms: C18_24  and  C19_25
REMARK    8  A    between atoms: C19_25  and  O3_26
ROOT
HETATM    1  N1  UNL     1      17.319   2.460  16.317  1.00  0.00    -0.164 NA
HETATM    2  C1  UNL     1      16.159   2.291  16.294  1.00  0.00     0.228 C
HETATM    3  O1  UNL     1      14.809   2.115  16.278  1.00  0.00    -0.283 OA
ENDROOT
BRANCH   3   4
HETATM    4  C2  UNL     1      13.937   3.166  16.719  1.00  0.00     0.191 C
BRANCH   4   5
HETATM    5  C3  UNL     1      14.594   4.513  16.516  1.00  0.00     0.047 C
BRANCH   5   6
HETATM    6  C4  UNL     1      14.535   4.909  15.056  1.00  0.00     0.125 C
BRANCH   6   7
HETATM    7  N2  UNL     1      15.724   5.585  14.645  1.00  0.00    -0.379 N
HETATM    8  C5  UNL     1      16.099   6.871  15.179  1.00  0.00     0.124 C
HETATM    9  C6  UNL     1      16.683   7.821  14.167  1.00  0.00     0.035 C
HETATM   10  C7  UNL     1      17.642   7.253  13.232  1.00  0.00     0.006 C
HETATM   11  C8  UNL     1      17.472   5.820  13.061  1.00  0.00     0.002 A
HETATM   12  C14 UNL     1      19.115   7.516  13.375  1.00  0.00     0.026 C
HETATM   13  C20 UNL     1      17.750   7.863  11.855  1.00  0.00     0.037 C
HETATM   14  C9  UNL     1      16.594   5.006  13.688  1.00  0.00     0.054 A
HETATM   15  C11 UNL     1      18.248   5.124  12.171  1.00  0.00     0.018 A
HETATM   16  C10 UNL     1      16.821   3.748  13.176  1.00  0.00     0.118 A
HETATM   17  N3  UNL     1      17.829   3.852  12.261  1.00  0.00    -0.366 N
ATOM     18  H3  UNL     1      18.208   3.073  11.722  1.00  0.00     0.165 HD
HETATM   19  C12 UNL     1      19.251   5.906  11.426  1.00  0.00     0.063 C
HETATM   20  C13 UNL     1      19.180   7.358  11.853  1.00  0.00     0.008 C
HETATM   21  C15 UNL     1      19.342   8.945  13.681  1.00  0.00    -0.022 C
HETATM   22  C16 UNL     1      18.733   9.844  12.928  1.00  0.00     0.002 C
HETATM   23  C17 UNL     1      17.854   9.386  11.816  1.00  0.00     0.149 C
BRANCH  23  24
HETATM   24  O2  UNL     1      16.649   9.997  11.786  1.00  0.00    -0.380 OA
BRANCH  24  25
HETATM   25  C18 UNL     1      15.719   9.417  10.967  1.00  0.00     0.194 C
BRANCH  25  26
HETATM   26  C19 UNL     1      14.288   9.565  11.318  1.00  0.00     0.190 C
BRANCH  26  27
HETATM   27  O3  UNL     1      13.798   8.807  12.358  1.00  0.00    -0.399 OA
ATOM     28  H3  UNL     1      12.959   8.378  12.238  1.00  0.00     0.209 HD
ENDBRANCH  26  27
ENDBRANCH  25  26
ENDBRANCH  24  25
ENDBRANCH  23  24
ENDBRANCH   6   7
ENDBRANCH   5   6
ENDBRANCH   4   5
ENDBRANCH   3   4
TORSDOF 8
ENDMDL