MODEL 2
REMARK VINA RESULT: -7.281480217      2.191      7.888
REMARK  9 active torsions:
REMARK  status: ('A' for Active; 'I' for Inactive)
REMARK    1  A    between atoms: C2_2  and  O1_3
REMARK    2  A    between atoms: C2_2  and  C3_5
REMARK    3  A    between atoms: C3_5  and  C5_8
REMARK    4  A    between atoms: C5_8  and  C7_10
REMARK    5  A    between atoms: C7_10  and  C9_12
REMARK    6  A    between atoms: C9_12  and  C10_13
REMARK    7  A    between atoms: C10_13  and  C11_14
REMARK    8  A    between atoms: C13_19  and  C14_20
REMARK    9  A    between atoms: C14_20  and  C15_21
REMARK       I    between atoms: C15_21  and  N3_23
ROOT
HETATM    1  C3  UNL     1      14.331   9.474   8.989  1.00  0.00     0.125 C
HETATM    2  C4  UNL     1      15.246   8.703   8.143  1.00  0.00     0.067 C
HETATM    3  N1  UNL     1      15.965   8.085   7.435  1.00  0.00    -0.197 NA
ENDROOT
BRANCH   1   4
HETATM    4  C2  UNL     1      12.957   9.116   8.449  1.00  0.00     0.132 C
HETATM    5  C1  UNL     1      12.292  10.301   7.781  1.00  0.00     0.040 C
BRANCH   4   6
HETATM    6  O1  UNL     1      12.929   7.977   7.697  1.00  0.00    -0.395 OA
ATOM      7  H1  UNL     1      12.129   7.475   7.796  1.00  0.00     0.210 HD
ENDBRANCH   4   6
ENDBRANCH   1   4
BRANCH   1   8
HETATM    8  C5  UNL     1      14.515   9.102  10.407  1.00  0.00     0.005 C
HETATM    9  C6  UNL     1      13.636   9.940  11.345  1.00  0.00     0.011 C
BRANCH   8  10
HETATM   10  C7  UNL     1      15.896   9.249  10.957  1.00  0.00    -0.013 C
HETATM   11  C8  UNL     1      16.479  10.609  11.010  1.00  0.00     0.010 C
BRANCH  10  12
HETATM   12  C9  UNL     1      16.053   8.593  12.313  1.00  0.00     0.007 C
BRANCH  12  13
HETATM   13  C10 UNL     1      17.441   8.896  12.830  1.00  0.00     0.026 C
BRANCH  13  14
HETATM   14  C11 UNL     1      18.226   7.601  13.056  1.00  0.00     0.098 C
HETATM   15  N2  UNL     1      19.361   7.766  13.935  1.00  0.00    -0.355 N
HETATM   16  C12 UNL     1      19.054   6.492  14.488  1.00  0.00     0.224 C
ATOM     17  H2  UNL     1      20.070   8.482  14.090  1.00  0.00     0.162 HD
HETATM   18  O2  UNL     1      19.737   5.574  15.006  1.00  0.00    -0.273 OA
HETATM   19  C13 UNL     1      17.630   6.760  14.175  1.00  0.00     0.109 C
BRANCH  19  20
HETATM   20  C14 UNL     1      16.927   5.521  13.727  1.00  0.00     0.119 C
BRANCH  20  21
HETATM   21  C15 UNL     1      15.715   5.348  14.555  1.00  0.00     0.220 C
HETATM   22  O3  UNL     1      14.710   6.109  14.461  1.00  0.00    -0.273 OA
HETATM   23  N3  UNL     1      15.680   4.289  15.488  1.00  0.00    -0.348 N
HETATM   24  C16 UNL     1      16.790   3.375  15.657  1.00  0.00     0.152 C
HETATM   25  C19 UNL     1      14.515   4.055  16.344  1.00  0.00     0.152 C
HETATM   26  C17 UNL     1      16.239   2.121  16.303  1.00  0.00     0.187 C
HETATM   27  O4  UNL     1      15.743   2.376  17.572  1.00  0.00    -0.388 OA
HETATM   28  C18 UNL     1      14.997   3.524  17.665  1.00  0.00     0.187 C
ENDBRANCH  20  21
ENDBRANCH  19  20
ENDBRANCH  13  14
ENDBRANCH  12  13
ENDBRANCH  10  12
ENDBRANCH   8  10
ENDBRANCH   1   8
TORSDOF 9
ENDMDL