MODEL 1
REMARK VINA RESULT: -6.997964800      0.000      0.000
REMARK  9 active torsions:
REMARK  status: ('A' for Active; 'I' for Inactive)
REMARK    1  A    between atoms: O1_2  and  C2_3
REMARK    2  A    between atoms: C2_3  and  C3_4
REMARK    3  A    between atoms: C2_3  and  N3_24
REMARK       I    between atoms: C3_4  and  N1_6
REMARK    4  A    between atoms: N1_6  and  C4_8
REMARK    5  A    between atoms: C4_8  and  C5_9
REMARK    6  A    between atoms: C4_8  and  C13_21
REMARK    7  A    between atoms: C5_9  and  O3_10
REMARK    8  A    between atoms: C5_9  and  N2_12
REMARK    9  A    between atoms: N2_12  and  C6_14
ROOT
HETATM    1  C4  UNL     1      17.314   2.540  12.670  1.00  0.00     0.162 C
ENDROOT
BRANCH   1   2
HETATM    2  N1  UNL     1      17.111   3.968  12.390  1.00  0.00    -0.345 N
HETATM    3  C3  UNL     1      18.130   4.902  12.192  1.00  0.00     0.267 C
HETATM    4  O2  UNL     1      19.326   4.532  12.242  1.00  0.00    -0.269 OA
ATOM      5  H1  UNL     1      16.149   4.304  12.336  1.00  0.00     0.163 HD
BRANCH   3   6
HETATM    6  C2  UNL     1      17.865   6.347  11.919  1.00  0.00     0.315 C
BRANCH   6   7
HETATM    7  O1  UNL     1      16.489   6.598  11.902  1.00  0.00    -0.362 OA
HETATM    8  C1  UNL     1      16.152   7.850  12.340  1.00  0.00     0.204 C
ENDBRANCH   6   7
BRANCH   6   9
HETATM    9  N3  UNL     1      18.459   6.834  10.751  1.00  0.00    -0.356 N
HETATM   10  C16 UNL     1      18.038   6.259   9.543  1.00  0.00     0.087 C
HETATM   11  C17 UNL     1      18.981   6.358   8.372  1.00  0.00     0.212 C
HETATM   12  O4  UNL     1      20.157   7.004   8.598  1.00  0.00    -0.385 OA
HETATM   13  C18 UNL     1      20.652   6.828   9.861  1.00  0.00     0.188 C
HETATM   14  C19 UNL     1      19.671   7.543  10.803  1.00  0.00     0.151 C
ENDBRANCH   6   9
ENDBRANCH   3   6
ENDBRANCH   1   2
BRANCH   1  15
HETATM   15  C5  UNL     1      16.919   2.246  14.057  1.00  0.00     0.135 C
BRANCH  15  16
HETATM   16  O3  UNL     1      16.427   1.052  14.224  1.00  0.00    -0.348 OA
ATOM     17  H3  UNL     1      15.746   0.825  13.603  1.00  0.00     0.219 HD
ENDBRANCH  15  16
BRANCH  15  18
HETATM   18  N2  UNL     1      17.002   3.067  15.188  1.00  0.00    -0.368 N
ATOM     19  H2  UNL     1      17.869   3.083  15.725  1.00  0.00     0.161 HD
BRANCH  18  20
HETATM   20  C6  UNL     1      15.896   3.895  15.617  1.00  0.00     0.087 C
HETATM   21  C7  UNL     1      16.157   5.361  15.365  1.00  0.00     0.025 C
HETATM   22  C8  UNL     1      14.790   6.041  15.384  1.00  0.00     0.002 C
HETATM   23  C9  UNL     1      14.185   5.875  16.760  1.00  0.00     0.001 C
HETATM   24  C10 UNL     1      14.150   4.457  17.217  1.00  0.00     0.006 C
HETATM   25  C11 UNL     1      15.471   3.714  17.027  1.00  0.00     0.004 C
HETATM   26  C12 UNL     1      15.195   2.253  17.310  1.00  0.00     0.012 C
ENDBRANCH  18  20
ENDBRANCH  15  18
ENDBRANCH   1  15
BRANCH   1  27
HETATM   27  C13 UNL     1      16.406   1.745  11.734  1.00  0.00     0.008 C
HETATM   28  C14 UNL     1      17.030   0.436  11.346  1.00  0.00     0.012 C
HETATM   29  C15 UNL     1      16.093   2.506  10.460  1.00  0.00     0.012 C
ENDBRANCH   1  27
TORSDOF 9
ENDMDL