MODEL 5
REMARK VINA RESULT: -6.212713462      2.399      3.528
REMARK  7 active torsions:
REMARK  status: ('A' for Active; 'I' for Inactive)
REMARK    1  A    between atoms: S1_2  and  C2_3
REMARK    2  A    between atoms: C2_3  and  C3_4
REMARK    3  A    between atoms: C3_4  and  C4_5
REMARK    4  A    between atoms: C4_5  and  N1_6
REMARK    5  A    between atoms: C4_5  and  C11_17
REMARK       I    between atoms: N1_6  and  C5_8
REMARK    6  A    between atoms: C5_8  and  C6_10
REMARK       I    between atoms: C11_17  and  N3_19
REMARK    7  A    between atoms: N3_19  and  C12_21
ROOT
HETATM    1  C4  UNL     1      17.124   6.510  13.036  1.00  0.00     0.177 C
ENDROOT
BRANCH   1   2
HETATM    2  C3  UNL     1      17.564   7.680  13.837  1.00  0.00     0.045 C
BRANCH   2   3
HETATM    3  C2  UNL     1      19.081   7.708  13.811  1.00  0.00     0.076 C
BRANCH   3   4
HETATM    4  S1  UNL     1      19.602   8.898  12.563  1.00  0.00    -0.173 SA
HETATM    5  C1  UNL     1      19.880   8.085  10.976  1.00  0.00     0.089 C
ENDBRANCH   3   4
ENDBRANCH   2   3
ENDBRANCH   1   2
BRANCH   1   6
HETATM    6  N1  UNL     1      16.255   5.637  13.783  1.00  0.00    -0.346 N
HETATM    7  C5  UNL     1      16.608   4.813  14.869  1.00  0.00     0.249 C
HETATM    8  O1  UNL     1      17.773   4.761  15.307  1.00  0.00    -0.271 OA
ATOM      9  H1  UNL     1      15.277   5.613  13.494  1.00  0.00     0.163 HD
BRANCH   7  10
HETATM   10  C6  UNL     1      15.568   3.980  15.519  1.00  0.00     0.241 C
HETATM   11  C7  UNL     1      16.256   3.264  16.689  1.00  0.00     0.313 C
HETATM   12  N2  UNL     1      15.288   2.850  17.661  1.00  0.00     0.089 N
HETATM   13  C8  UNL     1      15.173   3.922  18.630  1.00  0.00     0.310 C
HETATM   14  C9  UNL     1      14.040   2.602  16.960  1.00  0.00     0.298 C
HETATM   15  C10 UNL     1      13.516   3.919  16.431  1.00  0.00     0.199 C
HETATM   16  O2  UNL     1      14.507   4.737  15.946  1.00  0.00    -0.373 OA
ENDBRANCH   7  10
ENDBRANCH   1   6
BRANCH   1  17
HETATM   17  C11 UNL     1      16.434   6.870  11.759  1.00  0.00     0.240 C
HETATM   18  O3  UNL     1      16.266   5.917  10.929  1.00  0.00    -0.271 OA
HETATM   19  N3  UNL     1      15.978   8.180  11.463  1.00  0.00    -0.354 N
ATOM     20  H3  UNL     1      16.109   8.943  12.127  1.00  0.00     0.162 HD
BRANCH  19  21
HETATM   21  C12 UNL     1      15.323   8.403  10.191  1.00  0.00     0.088 C
HETATM   22  C13 UNL     1      16.315   9.015   9.272  1.00  0.00     0.025 C
HETATM   23  C14 UNL     1      15.758   9.480   7.953  1.00  0.00     0.002 C
HETATM   24  C15 UNL     1      14.340   9.022   7.863  1.00  0.00     0.001 C
HETATM   25  C16 UNL     1      13.480   9.468   9.008  1.00  0.00     0.006 C
HETATM   26  C17 UNL     1      14.048   9.195  10.368  1.00  0.00     0.004 C
HETATM   27  C18 UNL     1      14.267  10.402  11.216  1.00  0.00     0.012 C
ENDBRANCH  19  21
ENDBRANCH   1  17
TORSDOF 7
ENDMDL