MODEL 3
REMARK VINA RESULT: -6.703183605      2.081      2.871
REMARK  9 active torsions:
REMARK  status: ('A' for Active; 'I' for Inactive)
REMARK    1  A    between atoms: C2_2  and  N1_3
REMARK    2  A    between atoms: C5_6  and  C6_7
REMARK    3  A    between atoms: C6_7  and  O1_8
REMARK    4  A    between atoms: N2_13  and  C10_14
REMARK    5  A    between atoms: C10_14  and  C11_15
REMARK    6  A    between atoms: C15_19  and  C16_20
REMARK    7  A    between atoms: C16_20  and  O2_21
REMARK    8  A    between atoms: C16_20  and  C17_23
REMARK    9  A    between atoms: C18_25  and  C19_26
ROOT
HETATM    1  N1  UNL     1      16.661   7.989  12.561  1.00  0.00     0.112 N
HETATM    2  C3  UNL     1      16.439   6.936  11.701  1.00  0.00     0.299 A
HETATM    3  C4  UNL     1      17.391   6.180  10.876  1.00  0.00     0.265 C
HETATM    4  C5  UNL     1      17.779   4.856  11.495  1.00  0.00     0.049 C
HETATM    5  C7  UNL     1      18.462   5.139  12.779  1.00  0.00    -0.002 C
HETATM    6  C8  UNL     1      19.795   5.799  12.390  1.00  0.00     0.035 C
HETATM    7  C9  UNL     1      19.819   6.266  10.976  1.00  0.00     0.273 C
HETATM    8  N2  UNL     1      18.593   6.877  10.498  1.00  0.00     0.096 N
HETATM    9  C14 UNL     1      17.769   6.093  13.690  1.00  0.00     0.052 C
HETATM   10  C15 UNL     1      16.535   6.729  13.195  1.00  0.00     0.221 A
ENDROOT
BRANCH  10  11
HETATM   11  C16 UNL     1      15.242   6.436  13.978  1.00  0.00     0.191 C
BRANCH  11  12
HETATM   12  O2  UNL     1      14.487   7.605  14.047  1.00  0.00    -0.390 OA
ATOM     13  H2  UNL     1      13.746   7.455  14.622  1.00  0.00     0.210 HD
ENDBRANCH  11  12
BRANCH  11  14
HETATM   14  C17 UNL     1      15.514   5.827  15.310  1.00  0.00     0.182 A
HETATM   15  O3  UNL     1      14.498   5.453  16.155  1.00  0.00    -0.372 OA
HETATM   16  C18 UNL     1      15.099   4.397  15.476  1.00  0.00     0.157 A
BRANCH  16  17
HETATM   17  C19 UNL     1      16.005   3.450  16.211  1.00  0.00     0.009 C
HETATM   18  C20 UNL     1      15.166   2.739  17.263  1.00  0.00     0.012 C
HETATM   19  C21 UNL     1      16.596   2.382  15.328  1.00  0.00     0.012 C
ENDBRANCH  16  17
ENDBRANCH  11  14
ENDBRANCH  10  11
BRANCH   1  20
HETATM   20  C2  UNL     1      17.608   8.965  12.708  1.00  0.00     0.270 C
HETATM   21  C1  UNL     1      17.481  10.006  11.587  1.00  0.00     0.037 C
ENDBRANCH   1  20
BRANCH   4  22
HETATM   22  C6  UNL     1      16.718   3.827  11.520  1.00  0.00     0.171 C
BRANCH  22  23
HETATM   23  O1  UNL     1      16.246   3.657  10.208  1.00  0.00    -0.400 OA
ATOM     24  H1  UNL     1      16.801   3.017   9.777  1.00  0.00     0.209 HD
ENDBRANCH  22  23
ENDBRANCH   4  22
BRANCH   8  25
HETATM   25  C10 UNL     1      18.769   6.902   9.032  1.00  0.00     0.277 C
BRANCH  25  26
HETATM   26  C11 UNL     1      17.465   7.099   8.325  1.00  0.00     0.014 A
HETATM   27  C12 UNL     1      17.436   7.084   6.864  1.00  0.00     0.007 A
HETATM   28  C13 UNL     1      17.345   8.425   7.574  1.00  0.00     0.007 A
ENDBRANCH  25  26
ENDBRANCH   8  25
TORSDOF 9
ENDMDL