MODEL 5
REMARK VINA RESULT: -5.792197825      1.873      2.564
REMARK  9 active torsions:
REMARK  status: ('A' for Active; 'I' for Inactive)
REMARK    1  A    between atoms: N2_8  and  C7_9
REMARK    2  A    between atoms: N3_12  and  C10_13
REMARK    3  A    between atoms: C10_13  and  C11_14
REMARK    4  A    between atoms: C11_14  and  C12_15
REMARK    5  A    between atoms: C12_15  and  C13_16
REMARK    6  A    between atoms: C13_16  and  N4_17
REMARK    7  A    between atoms: N4_17  and  C14_19
REMARK    8  A    between atoms: C14_19  and  N5_21
REMARK    9  A    between atoms: N5_21  and  N6_23
ROOT
HETATM    1  C1  UNL     1      16.262  10.459   7.033  1.00  0.00     0.032 C
HETATM    2  C2  UNL     1      15.147  11.153   7.788  1.00  0.00     0.076 C
HETATM    3  C3  UNL     1      13.917  11.106   6.915  1.00  0.00     0.027 C
HETATM    4  C4  UNL     1      12.800  11.200   7.938  1.00  0.00     0.042 C
HETATM    5  C5  UNL     1      13.384  10.222   8.994  1.00  0.00     0.188 C
HETATM    6  C6  UNL     1      13.142   8.898   8.364  1.00  0.00     0.084 C
HETATM    7  N1  UNL     1      12.966   7.850   7.884  1.00  0.00    -0.195 NA
HETATM    8  N2  UNL     1      14.766  10.557   8.986  1.00  0.00    -0.388 N
ENDROOT
BRANCH   8   9
HETATM    9  C7  UNL     1      15.653   9.861   9.802  1.00  0.00     0.084 C
HETATM   10  C8  UNL     1      16.950  10.555  10.109  1.00  0.00     0.055 C
HETATM   11  C9  UNL     1      17.487  10.452  11.465  1.00  0.00     0.274 C
HETATM   12  N3  UNL     1      17.141   9.317  12.256  1.00  0.00     0.088 N
HETATM   13  C17 UNL     1      16.024   8.559  11.795  1.00  0.00     0.274 C
HETATM   14  C18 UNL     1      15.034   9.540  11.171  1.00  0.00     0.055 C
BRANCH  12  15
HETATM   15  C10 UNL     1      18.295   8.482  12.562  1.00  0.00     0.272 C
BRANCH  15  16
HETATM   16  C11 UNL     1      18.076   7.868  13.914  1.00  0.00     0.032 C
BRANCH  16  17
HETATM   17  C12 UNL     1      18.492   6.410  13.930  1.00  0.00     0.021 C
BRANCH  17  18
HETATM   18  C13 UNL     1      18.369   5.875  12.549  1.00  0.00     0.122 C
BRANCH  18  19
HETATM   19  N4  UNL     1      18.299   4.451  12.436  1.00  0.00    -0.366 N
ATOM     20  H4  UNL     1      19.168   3.975  12.198  1.00  0.00     0.161 HD
BRANCH  19  21
HETATM   21  C14 UNL     1      17.167   3.629  12.616  1.00  0.00     0.186 C
HETATM   22  S1  UNL     1      16.296   3.249  11.256  1.00  0.00    -0.040 SA
BRANCH  21  23
HETATM   23  N5  UNL     1      16.702   3.106  13.838  1.00  0.00    -0.279 N
ATOM     24  H5  UNL     1      16.806   2.097  13.942  1.00  0.00     0.189 HD
BRANCH  23  25
HETATM   25  N6  UNL     1      16.139   3.734  14.896  1.00  0.00    -0.334 N
HETATM   26  C15 UNL     1      16.760   3.583  16.169  1.00  0.00     0.170 C
HETATM   27  C16 UNL     1      15.301   4.851  14.718  1.00  0.00     0.170 C
ENDBRANCH  23  25
ENDBRANCH  21  23
ENDBRANCH  19  21
ENDBRANCH  18  19
ENDBRANCH  17  18
ENDBRANCH  16  17
ENDBRANCH  15  16
ENDBRANCH  12  15
ENDBRANCH   8   9
TORSDOF 9
ENDMDL