MODEL 2
REMARK VINA RESULT: -6.617168116      2.912      7.733
REMARK  6 active torsions:
REMARK  status: ('A' for Active; 'I' for Inactive)
REMARK    1  A    between atoms: C2_2  and  C3_3
REMARK    2  A    between atoms: N2_8  and  C7_9
REMARK    3  A    between atoms: C7_9  and  C8_10
REMARK       I    between atoms: C8_10  and  N3_12
REMARK    4  A    between atoms: N3_12  and  C9_14
REMARK    5  A    between atoms: C14_19  and  C15_20
REMARK    6  A    between atoms: C17_24  and  C18_25
ROOT
HETATM    1  C18 UNL     1      16.576  11.240  10.720  1.00  0.00     0.178 C
HETATM    2  C19 UNL     1      17.853  11.921  11.103  1.00  0.00     0.065 C
HETATM    3  N4  UNL     1      18.824  12.454  11.414  1.00  0.00    -0.197 NA
ENDROOT
BRANCH   1   4
HETATM    4  C17 UNL     1      16.732   9.769  10.767  1.00  0.00     0.030 C
HETATM    5  N1  UNL     1      15.807   8.921  10.181  1.00  0.00    -0.357 N
HETATM    6  C3  UNL     1      14.477   9.013  10.062  1.00  0.00    -0.015 C
HETATM    7  C5  UNL     1      16.465   7.718   9.756  1.00  0.00     0.158 C
HETATM    8  C4  UNL     1      13.667   9.940  10.922  1.00  0.00     0.063 C
HETATM    9  C6  UNL     1      17.577   7.377  10.695  1.00  0.00     0.293 C
HETATM   10  N2  UNL     1      17.500   7.849  12.035  1.00  0.00     0.104 N
HETATM   11  C16 UNL     1      17.197   9.254  12.147  1.00  0.00     0.326 C
BRANCH   6  12
HETATM   12  C2  UNL     1      13.904   9.112   8.692  1.00  0.00     0.048 C
HETATM   13  C1  UNL     1      12.518   9.617   8.515  1.00  0.00     0.011 C
ENDBRANCH   6  12
BRANCH  10  14
HETATM   14  C7  UNL     1      18.714   7.475  12.702  1.00  0.00     0.375 C
BRANCH  14  15
HETATM   15  C8  UNL     1      18.632   6.297  13.545  1.00  0.00     0.246 C
HETATM   16  O1  UNL     1      19.552   5.796  14.220  1.00  0.00    -0.272 OA
HETATM   17  N3  UNL     1      17.364   5.624  13.623  1.00  0.00    -0.354 N
ATOM     18  H3  UNL     1      16.582   6.001  13.086  1.00  0.00     0.162 HD
BRANCH  17  19
HETATM   19  C9  UNL     1      17.143   4.457  14.410  1.00  0.00     0.098 C
HETATM   20  C10 UNL     1      16.615   3.343  13.513  1.00  0.00     0.026 C
HETATM   21  C11 UNL     1      16.613   2.035  14.265  1.00  0.00     0.002 C
HETATM   22  C12 UNL     1      17.029   2.205  15.707  1.00  0.00     0.001 C
HETATM   23  C13 UNL     1      16.262   3.315  16.395  1.00  0.00     0.017 C
HETATM   24  C14 UNL     1      16.323   4.626  15.640  1.00  0.00     0.109 C
BRANCH  24  25
HETATM   25  C15 UNL     1      14.979   5.159  15.460  1.00  0.00     0.179 C
HETATM   26  O2  UNL     1      14.592   5.887  14.526  1.00  0.00    -0.648 OA
HETATM   27  O3  UNL     1      14.014   4.831  16.419  1.00  0.00    -0.648 OA
ENDBRANCH  24  25
ENDBRANCH  17  19
ENDBRANCH  14  15
ENDBRANCH  10  14
ENDBRANCH   1   4
TORSDOF 6
ENDMDL