MODEL 5
REMARK VINA RESULT: -6.688702349      1.772      2.410
REMARK  8 active torsions:
REMARK  status: ('A' for Active; 'I' for Inactive)
REMARK    1  A    between atoms: N2_7  and  C5_8
REMARK    2  A    between atoms: C5_8  and  C6_9
REMARK    3  A    between atoms: C6_9  and  C7_10
REMARK    4  A    between atoms: C7_10  and  O1_11
REMARK    5  A    between atoms: C7_10  and  C8_13
REMARK    6  A    between atoms: C8_13  and  N3_14
REMARK    7  A    between atoms: C11_17  and  N4_18
REMARK       I    between atoms: N4_18  and  C12_20
REMARK    8  A    between atoms: C12_20  and  C13_22
ROOT
HETATM    1  N3  UNL     1      18.122   6.742  11.334  1.00  0.00     0.092 N
HETATM    2  C9  UNL     1      18.436   7.713  12.352  1.00  0.00     0.274 C
HETATM    3  C10 UNL     1      17.138   8.351  12.755  1.00  0.00     0.057 C
HETATM    4  C11 UNL     1      16.169   7.937  11.699  1.00  0.00     0.114 C
HETATM    5  C20 UNL     1      16.951   7.215  10.673  1.00  0.00     0.297 C
ENDROOT
BRANCH   1   6
HETATM    6  C8  UNL     1      18.060   5.405  11.816  1.00  0.00     0.303 C
BRANCH   6   7
HETATM    7  C7  UNL     1      16.779   4.718  11.377  1.00  0.00     0.148 C
BRANCH   7   8
HETATM    8  C6  UNL     1      16.281   3.904  12.514  1.00  0.00     0.053 C
BRANCH   8   9
HETATM    9  C5  UNL     1      16.813   4.265  13.845  1.00  0.00     0.132 C
BRANCH   9  10
HETATM   10  N2  UNL     1      15.966   4.129  14.975  1.00  0.00    -0.346 N
HETATM   11  C2  UNL     1      15.093   5.003  15.503  1.00  0.00     0.079 A
HETATM   12  C1  UNL     1      14.885   6.376  14.969  1.00  0.00     0.089 C
HETATM   13  N1  UNL     1      14.444   4.486  16.560  1.00  0.00    -0.355 N
HETATM   14  C3  UNL     1      14.908   3.255  16.717  1.00  0.00     0.106 A
ATOM     15  H1  UNL     1      13.735   4.949  17.128  1.00  0.00     0.166 HD
HETATM   16  C4  UNL     1      15.846   3.021  15.747  1.00  0.00     0.109 A
ENDBRANCH   9  10
ENDBRANCH   8   9
ENDBRANCH   7   8
BRANCH   7  17
HETATM   17  O1  UNL     1      17.118   3.985  10.243  1.00  0.00    -0.394 OA
ATOM     18  H1  UNL     1      16.431   3.924   9.589  1.00  0.00     0.210 HD
ENDBRANCH   7  17
ENDBRANCH   6   7
ENDBRANCH   1   6
BRANCH   4  19
HETATM   19  N4  UNL     1      15.395   9.038  11.176  1.00  0.00    -0.354 N
HETATM   20  C12 UNL     1      14.445   8.966  10.142  1.00  0.00     0.222 C
HETATM   21  O2  UNL     1      14.173   7.892   9.557  1.00  0.00    -0.273 OA
ATOM     22  H4  UNL     1      15.553   9.954  11.596  1.00  0.00     0.162 HD
BRANCH  20  23
HETATM   23  C13 UNL     1      13.696  10.178   9.673  1.00  0.00     0.082 C
HETATM   24  C14 UNL     1      12.608   9.780   8.678  1.00  0.00     0.019 C
HETATM   25  C15 UNL     1      13.007  10.377   7.356  1.00  0.00    -0.013 C
HETATM   26  C16 UNL     1      12.730  11.858   7.417  1.00  0.00     0.005 C
HETATM   27  C19 UNL     1      14.536  10.391   7.507  1.00  0.00     0.010 C
HETATM   28  C17 UNL     1      13.680  12.306   8.525  1.00  0.00     0.006 C
HETATM   29  C18 UNL     1      14.535  11.104   8.870  1.00  0.00    -0.001 C
ENDBRANCH  20  23
ENDBRANCH   4  19
TORSDOF 8
ENDMDL