MODEL 5
REMARK VINA RESULT: -7.050848426      5.633      8.173
REMARK  7 active torsions:
REMARK  status: ('A' for Active; 'I' for Inactive)
REMARK    1  A    between atoms: C2_2  and  N1_4
REMARK    2  A    between atoms: N1_4  and  C4_6
REMARK    3  A    between atoms: C6_10  and  C7_11
REMARK    4  A    between atoms: C7_11  and  O1_12
REMARK    5  A    between atoms: O1_12  and  C8_13
REMARK    6  A    between atoms: C8_13  and  C9_14
REMARK    7  A    between atoms: C15_20  and  N3_21
ROOT
HETATM    1  C4  UNL     1     -45.720  -0.232  36.488  1.00  0.00     0.679 A
HETATM    2  N2  UNL     1     -44.541  -0.468  35.912  1.00  0.00    -0.201 N
ATOM      3  H2  UNL     1     -44.049  -1.358  35.984  1.00  0.00     0.183 HD
HETATM    4  C5  UNL     1     -44.046   0.633  35.199  1.00  0.00     0.119 A
HETATM    5  C6  UNL     1     -44.721   1.804  35.119  1.00  0.00     0.025 A
HETATM    6  C15 UNL     1     -45.945   1.960  35.747  1.00  0.00     0.124 A
HETATM    7  N4  UNL     1     -46.413   0.913  36.414  1.00  0.00    -0.177 N
ATOM      8  H4  UNL     1     -47.317   0.981  36.880  1.00  0.00     0.186 HD
ENDROOT
BRANCH   5   9
HETATM    9  C7  UNL     1     -44.143   3.065  34.500  1.00  0.00     0.211 C
BRANCH   9  10
HETATM   10  O1  UNL     1     -44.968   3.485  33.439  1.00  0.00    -0.386 OA
BRANCH  10  11
HETATM   11  C8  UNL     1     -44.551   4.696  32.931  1.00  0.00     0.172 C
BRANCH  11  12
HETATM   12  C9  UNL     1     -44.614   4.729  31.455  1.00  0.00     0.009 C
HETATM   13  C10 UNL     1     -45.813   4.019  30.853  1.00  0.00     0.007 C
HETATM   14  C11 UNL     1     -45.497   3.697  29.419  1.00  0.00     0.000 C
HETATM   15  C12 UNL     1     -45.208   5.001  28.683  1.00  0.00     0.000 C
HETATM   16  C13 UNL     1     -44.044   5.713  29.366  1.00  0.00     0.000 C
HETATM   17  C14 UNL     1     -44.465   6.070  30.807  1.00  0.00     0.007 C
ENDBRANCH  11  12
ENDBRANCH  10  11
ENDBRANCH   9  10
ENDBRANCH   5   9
BRANCH   6  18
HETATM   18  N3  UNL     1     -46.546   3.121  35.737  1.00  0.00    -0.385 N
ATOM     19  H32 UNL     1     -46.042   4.005  35.669  1.00  0.00     0.157 HD
ATOM     20  H31 UNL     1     -47.565   3.172  35.729  1.00  0.00     0.157 HD
ENDBRANCH   6  18
BRANCH   1  21
HETATM   21  N1  UNL     1     -46.235  -1.067  37.285  1.00  0.00    -0.222 N
ATOM     22  H1  UNL     1     -45.569  -1.569  37.872  1.00  0.00     0.178 HD
BRANCH  21  23
HETATM   23  C2  UNL     1     -47.570  -1.408  37.486  1.00  0.00     0.091 C
HETATM   24  C1  UNL     1     -47.697  -2.160  38.783  1.00  0.00     0.032 C
HETATM   25  C3  UNL     1     -47.936  -2.375  36.324  1.00  0.00     0.032 C
ENDBRANCH  21  23
ENDBRANCH   1  21
TORSDOF 7
ENDMDL