MODEL 1
REMARK VINA RESULT: -6.972460267      0.000      0.000
REMARK  5 active torsions:
REMARK  status: ('A' for Active; 'I' for Inactive)
REMARK    1  A    between atoms: C6_6  and  C7_7
REMARK    2  A    between atoms: C8_8  and  C9_9
REMARK    3  A    between atoms: C9_9  and  O1_10
REMARK    4  A    between atoms: C9_9  and  C10_12
REMARK    5  A    between atoms: C10_12  and  C11_13
ROOT
HETATM    1  C7  UNL     1     -45.256   5.368  33.366  1.00  0.00    -0.022 C
HETATM    2  C8  UNL     1     -44.718   4.610  34.296  1.00  0.00     0.001 C
ENDROOT
BRANCH   1   3
HETATM    3  C6  UNL     1     -45.628   4.832  32.064  1.00  0.00     0.021 C
HETATM    4  C5  UNL     1     -47.103   5.082  31.733  1.00  0.00     0.019 C
HETATM    5  C4  UNL     1     -47.074   5.684  30.369  1.00  0.00     0.018 C
HETATM    6  C3  UNL     1     -46.499   7.058  30.507  1.00  0.00    -0.018 C
HETATM    7  C16 UNL     1     -45.844   4.984  29.763  1.00  0.00    -0.029 C
HETATM    8  C2  UNL     1     -45.212   6.929  30.818  1.00  0.00    -0.077 C
HETATM    9  C1  UNL     1     -44.298   8.072  31.039  1.00  0.00     0.044 C
HETATM   10  C14 UNL     1     -44.910   5.453  30.895  1.00  0.00    -0.007 C
HETATM   11  C15 UNL     1     -43.512   5.106  30.703  1.00  0.00     0.021 C
HETATM   12  C17 UNL     1     -45.426   5.604  28.473  1.00  0.00     0.016 C
HETATM   13  C18 UNL     1     -45.995   3.509  29.728  1.00  0.00     0.016 C
ENDBRANCH   1   3
BRANCH   2  14
HETATM   14  C9  UNL     1     -44.418   3.164  34.185  1.00  0.00     0.142 C
BRANCH  14  15
HETATM   15  O1  UNL     1     -43.062   2.871  34.201  1.00  0.00    -0.392 OA
ATOM     16  H1  UNL     1     -42.568   3.377  34.834  1.00  0.00     0.210 HD
ENDBRANCH  14  15
BRANCH  14  17
HETATM   17  C10 UNL     1     -45.152   2.369  35.258  1.00  0.00     0.068 C
BRANCH  17  18
HETATM   18  C11 UNL     1     -44.886   0.905  35.148  1.00  0.00     0.190 C
HETATM   19  C12 UNL     1     -45.481   0.170  36.329  1.00  0.00     0.060 C
HETATM   20  C13 UNL     1     -44.253  -0.709  36.174  1.00  0.00     0.235 C
HETATM   21  N1  UNL     1     -43.581   0.457  35.580  1.00  0.00    -0.071 N
ATOM     22  H12 UNL     1     -42.815   0.343  34.915  1.00  0.00     0.277 HD
ATOM     23  H11 UNL     1     -42.975   1.058  36.138  1.00  0.00     0.277 HD
ENDBRANCH  17  18
ENDBRANCH  14  17
ENDBRANCH   2  14
TORSDOF 5
ENDMDL