MODEL 4
REMARK VINA RESULT: -7.004805880      1.645      4.179
REMARK  5 active torsions:
REMARK  status: ('A' for Active; 'I' for Inactive)
REMARK    1  A    between atoms: N1_2  and  C2_4
REMARK    2  A    between atoms: C2_4  and  C3_5
REMARK    3  A    between atoms: C3_5  and  N2_6
REMARK       I    between atoms: N2_6  and  C4_8
REMARK       I    between atoms: C4_8  and  N4_15
REMARK    4  A    between atoms: N3_9  and  C5_11
REMARK    5  A    between atoms: N4_15  and  C9_17
ROOT
HETATM    1  N2  UNL     1     -44.162   8.860  31.856  1.00  0.00    -0.225 N
ATOM      2  H2  UNL     1     -43.372   8.254  32.080  1.00  0.00     0.177 HD
HETATM    3  C4  UNL     1     -45.418   8.481  32.379  1.00  0.00     0.670 C
HETATM    4  N3  UNL     1     -45.769   8.700  33.538  1.00  0.00    -0.218 N
ATOM      5  H3  UNL     1     -46.712   8.327  33.651  1.00  0.00     0.178 HD
HETATM    6  N4  UNL     1     -46.359   7.786  31.496  1.00  0.00    -0.222 N
ATOM      7  H4  UNL     1     -47.220   8.251  31.209  1.00  0.00     0.178 HD
ENDROOT
BRANCH   1   8
HETATM    8  C3  UNL     1     -43.880  10.003  31.046  1.00  0.00     0.157 C
BRANCH   8   9
HETATM    9  C2  UNL     1     -42.884  10.896  31.767  1.00  0.00     0.133 C
BRANCH   9  10
HETATM   10  N1  UNL     1     -41.630  10.236  31.906  1.00  0.00    -0.424 N
HETATM   11  C1  UNL     1     -41.037  10.272  33.204  1.00  0.00     0.139 C
ATOM     12  H1  UNL     1     -41.180   9.764  31.121  1.00  0.00     0.152 HD
ENDBRANCH   9  10
ENDBRANCH   8   9
ENDBRANCH   1   8
BRANCH   4  13
HETATM   13  C5  UNL     1     -45.388   9.251  34.742  1.00  0.00     0.036 C
HETATM   14  C6  UNL     1     -43.949   9.115  35.161  1.00  0.00     0.038 C
HETATM   15  C7  UNL     1     -45.629  10.775  34.652  1.00  0.00     0.038 C
HETATM   16  C8  UNL     1     -46.212   8.754  35.940  1.00  0.00     0.038 C
ENDBRANCH   4  13
BRANCH   6  17
HETATM   17  C9  UNL     1     -46.076   6.433  31.022  1.00  0.00     0.099 C
HETATM   18  C10 UNL     1     -47.328   5.575  30.978  1.00  0.00     0.026 C
HETATM   19  C11 UNL     1     -46.847   4.139  30.752  1.00  0.00     0.002 C
HETATM   20  C12 UNL     1     -46.696   3.962  29.275  1.00  0.00     0.000 C
HETATM   21  C13 UNL     1     -45.303   4.145  28.754  1.00  0.00     0.004 C
HETATM   22  C14 UNL     1     -44.626   5.402  29.228  1.00  0.00    -0.017 C
HETATM   23  C15 UNL     1     -43.534   5.054  30.191  1.00  0.00     0.010 C
HETATM   24  C16 UNL     1     -45.529   6.495  29.639  1.00  0.00     0.030 C
ENDBRANCH   6  17
TORSDOF 5
ENDMDL