MODEL 4
REMARK VINA RESULT: -6.624696963      1.122      2.400
REMARK  6 active torsions:
REMARK  status: ('A' for Active; 'I' for Inactive)
REMARK    1  A    between atoms: C2_2  and  C3_3
REMARK    2  A    between atoms: C3_3  and  O1_4
REMARK    3  A    between atoms: C3_3  and  C4_6
REMARK    4  A    between atoms: C3_3  and  C15_22
REMARK    5  A    between atoms: C4_6  and  N2_10
REMARK    6  A    between atoms: N2_10  and  C5_12
ROOT
HETATM    1  C4  UNL     1     -46.742   6.417  34.156  1.00  0.00     0.106 C
HETATM    2  N1  UNL     1     -48.015   6.517  34.230  1.00  0.00    -0.387 N
ATOM      3  H11 UNL     1     -48.580   5.792  33.789  1.00  0.00     0.157 HD
ATOM      4  H12 UNL     1     -48.484   7.286  34.708  1.00  0.00     0.157 HD
ENDROOT
BRANCH   1   5
HETATM    5  C3  UNL     1     -45.902   7.493  34.812  1.00  0.00     0.117 C
BRANCH   5   6
HETATM    6  C2  UNL     1     -44.623   6.830  35.158  1.00  0.00     0.042 C
HETATM    7  C1  UNL     1     -43.878   7.342  36.330  1.00  0.00     0.009 C
ENDBRANCH   5   6
BRANCH   5   8
HETATM    8  O1  UNL     1     -46.543   7.919  35.985  1.00  0.00    -0.382 OA
ATOM      9  H1  UNL     1     -47.236   7.308  36.210  1.00  0.00     0.211 HD
ENDBRANCH   5   8
BRANCH   5  10
HETATM   10  C15 UNL     1     -45.833   8.631  33.860  1.00  0.00     0.019 C
HETATM   11  C16 UNL     1     -46.008   9.947  34.622  1.00  0.00     0.013 C
HETATM   12  C17 UNL     1     -44.532   8.767  33.111  1.00  0.00     0.013 C
ENDBRANCH   5  10
ENDBRANCH   1   5
BRANCH   1  13
HETATM   13  N2  UNL     1     -46.090   5.351  33.493  1.00  0.00    -0.368 N
ATOM     14  H2  UNL     1     -45.805   4.545  34.049  1.00  0.00     0.161 HD
BRANCH  13  15
HETATM   15  C5  UNL     1     -45.802   5.334  32.076  1.00  0.00     0.032 C
HETATM   16  C6  UNL     1     -46.719   6.299  31.373  1.00  0.00     0.031 C
HETATM   17  C7  UNL     1     -46.054   7.012  30.225  1.00  0.00     0.007 C
HETATM   18  C8  UNL     1     -45.452   6.121  29.208  1.00  0.00    -0.014 C
HETATM   19  C9  UNL     1     -45.963   4.721  29.196  1.00  0.00     0.010 C
HETATM   20  C13 UNL     1     -43.949   5.903  29.414  1.00  0.00     0.010 C
HETATM   21  C10 UNL     1     -45.130   4.015  30.235  1.00  0.00    -0.008 C
HETATM   22  C11 UNL     1     -45.953   3.942  31.503  1.00  0.00     0.036 C
HETATM   23  C12 UNL     1     -43.963   4.906  30.552  1.00  0.00    -0.008 C
HETATM   24  C14 UNL     1     -44.342   5.613  31.819  1.00  0.00     0.036 C
ENDBRANCH  13  15
ENDBRANCH   1  13
TORSDOF 6
ENDMDL