MODEL 5
REMARK VINA RESULT: -6.847812242      1.723      2.004
REMARK  5 active torsions:
REMARK  status: ('A' for Active; 'I' for Inactive)
REMARK    1  A    between atoms: S1_2  and  C2_3
REMARK    2  A    between atoms: C2_3  and  C3_4
REMARK    3  A    between atoms: C3_4  and  N1_5
REMARK       I    between atoms: N1_5  and  C4_7
REMARK       I    between atoms: C4_7  and  N3_12
REMARK    4  A    between atoms: N2_8  and  O1_10
REMARK    5  A    between atoms: N3_12  and  C5_14
ROOT
HETATM    1  N1  UNL     1     -45.127   4.989  35.854  1.00  0.00    -0.224 N
ATOM      2  H1  UNL     1     -45.122   5.360  36.804  1.00  0.00     0.177 HD
HETATM    3  C4  UNL     1     -44.883   5.874  34.769  1.00  0.00     0.694 C
HETATM    4  N2  UNL     1     -44.006   6.776  34.975  1.00  0.00    -0.099 N
ATOM      5  H2  UNL     1     -43.796   7.435  34.225  1.00  0.00     0.213 HD
HETATM    6  N3  UNL     1     -45.603   5.718  33.551  1.00  0.00    -0.219 N
ATOM      7  H3  UNL     1     -46.530   5.300  33.625  1.00  0.00     0.178 HD
ENDROOT
BRANCH   6   8
HETATM    8  C5  UNL     1     -45.180   6.076  32.253  1.00  0.00     0.107 C
HETATM    9  C6  UNL     1     -44.469   4.900  31.622  1.00  0.00     0.010 C
HETATM   10  C7  UNL     1     -43.811   5.224  30.316  1.00  0.00     0.011 C
HETATM   11  C11 UNL     1     -45.511   3.823  31.367  1.00  0.00     0.011 C
HETATM   12  C8  UNL     1     -44.840   5.768  29.365  1.00  0.00    -0.013 C
HETATM   13  C9  UNL     1     -45.858   4.717  29.056  1.00  0.00     0.009 C
HETATM   14  C14 UNL     1     -45.496   6.941  30.013  1.00  0.00     0.011 C
HETATM   15  C10 UNL     1     -46.509   4.283  30.350  1.00  0.00    -0.013 C
HETATM   16  C12 UNL     1     -47.220   5.495  30.918  1.00  0.00     0.011 C
HETATM   17  C13 UNL     1     -46.224   6.546  31.300  1.00  0.00     0.010 C
ENDBRANCH   6   8
BRANCH   1  18
HETATM   18  C3  UNL     1     -45.381   3.581  35.657  1.00  0.00     0.148 C
BRANCH  18  19
HETATM   19  C2  UNL     1     -46.545   3.175  36.547  1.00  0.00     0.093 C
BRANCH  19  20
HETATM   20  S1  UNL     1     -47.519   4.580  37.094  1.00  0.00    -0.172 SA
HETATM   21  C1  UNL     1     -49.263   4.135  37.133  1.00  0.00     0.089 C
ENDBRANCH  19  20
ENDBRANCH  18  19
ENDBRANCH   1  18
BRANCH   4  22
HETATM   22  O1  UNL     1     -43.335   6.895  36.158  1.00  0.00    -0.276 OA
ATOM     23  H1  UNL     1     -42.396   7.025  36.204  1.00  0.00     0.245 HD
ENDBRANCH   4  22
TORSDOF 5
ENDMDL