MODEL 2
REMARK VINA RESULT: -7.786207455      1.297      2.099
REMARK  5 active torsions:
REMARK  status: ('A' for Active; 'I' for Inactive)
REMARK    1  A    between atoms: C3_5  and  C4_6
REMARK    2  A    between atoms: C4_6  and  N3_10
REMARK    3  A    between atoms: N3_10  and  C5_12
REMARK    4  A    between atoms: C11_20  and  C12_21
REMARK    5  A    between atoms: C12_21  and  C13_22
ROOT
HETATM    1  C1  UNL     1     -44.493   7.977  31.774  1.00  0.00     0.070 C
HETATM    2  C2  UNL     1     -44.613   6.604  32.345  1.00  0.00     0.029 A
HETATM    3  N1  UNL     1     -45.105   6.282  33.568  1.00  0.00    -0.341 N
ATOM      4  H1  UNL     1     -45.437   6.959  34.255  1.00  0.00     0.167 HD
HETATM    5  C3  UNL     1     -45.096   4.965  33.750  1.00  0.00     0.150 A
HETATM    6  N4  UNL     1     -44.591   4.434  32.623  1.00  0.00    -0.341 N
ATOM      7  H4  UNL     1     -44.458   3.437  32.455  1.00  0.00     0.167 HD
HETATM    8  C11 UNL     1     -44.280   5.429  31.730  1.00  0.00     0.033 A
ENDROOT
BRANCH   5   9
HETATM    9  C4  UNL     1     -45.544   4.267  34.937  1.00  0.00     0.140 C
HETATM   10  N2  UNL     1     -46.608   4.638  35.560  1.00  0.00    -0.383 N
ATOM     11  H22 UNL     1     -47.135   5.434  35.201  1.00  0.00     0.157 HD
ATOM     12  H21 UNL     1     -46.923   4.147  36.396  1.00  0.00     0.157 HD
BRANCH   9  13
HETATM   13  N3  UNL     1     -44.812   3.163  35.434  1.00  0.00    -0.369 N
ATOM     14  H3  UNL     1     -44.170   3.309  36.213  1.00  0.00     0.161 HD
BRANCH  13  15
HETATM   15  C5  UNL     1     -44.941   1.832  34.874  1.00  0.00     0.083 C
HETATM   16  C6  UNL     1     -43.655   1.107  35.065  1.00  0.00     0.025 C
HETATM   17  C7  UNL     1     -43.916  -0.321  35.403  1.00  0.00     0.002 C
HETATM   18  C8  UNL     1     -44.671  -0.429  36.707  1.00  0.00     0.000 C
HETATM   19  C9  UNL     1     -45.913   0.426  36.713  1.00  0.00     0.002 C
HETATM   20  C10 UNL     1     -46.154   1.102  35.389  1.00  0.00     0.025 C
ENDBRANCH  13  15
ENDBRANCH   9  13
ENDBRANCH   5   9
BRANCH   8  21
HETATM   21  C12 UNL     1     -43.674   5.175  30.412  1.00  0.00     0.064 C
BRANCH  21  22
HETATM   22  C13 UNL     1     -44.422   5.648  29.224  1.00  0.00    -0.000 A
HETATM   23  C14 UNL     1     -45.860   5.832  29.080  1.00  0.00     0.015 A
HETATM   24  C15 UNL     1     -45.142   4.671  28.380  1.00  0.00    -0.043 A
HETATM   25  C16 UNL     1     -45.553   3.313  28.901  1.00  0.00     0.015 C
HETATM   26  C17 UNL     1     -44.930   4.719  26.901  1.00  0.00     0.015 C
ENDBRANCH  21  22
ENDBRANCH   8  21
TORSDOF 5
ENDMDL