MODEL 5
REMARK VINA RESULT: -6.602279617      4.027      4.983
REMARK  6 active torsions:
REMARK  status: ('A' for Active; 'I' for Inactive)
REMARK    1  A    between atoms: C2_2  and  C3_3
REMARK    2  A    between atoms: C3_3  and  C4_4
REMARK    3  A    between atoms: C5_5  and  C6_6
REMARK    4  A    between atoms: C6_6  and  C7_7
REMARK    5  A    between atoms: N1_12  and  N2_14
REMARK    6  A    between atoms: N2_14  and  C12_16
ROOT
HETATM    1  C7  UNL     1     -44.228   5.316  30.513  1.00  0.00     0.086 C
HETATM    2  C8  UNL     1     -45.362   4.465  30.950  1.00  0.00     0.026 C
HETATM    3  C9  UNL     1     -46.643   5.305  31.036  1.00  0.00     0.010 C
HETATM    4  C10 UNL     1     -46.453   6.227  32.222  1.00  0.00     0.077 C
HETATM    5  C11 UNL     1     -45.317   7.127  31.891  1.00  0.00     0.092 C
HETATM    6  N1  UNL     1     -45.379   8.364  32.240  1.00  0.00    -0.287 N
ATOM      7  H1  UNL     1     -46.194   8.722  32.737  1.00  0.00     0.188 HD
HETATM    8  N4  UNL     1     -44.211   6.610  31.210  1.00  0.00    -0.374 N
ATOM      9  H4  UNL     1     -43.350   7.157  31.196  1.00  0.00     0.161 HD
ENDROOT
BRANCH   6  10
HETATM   10  N2  UNL     1     -44.317   9.202  31.931  1.00  0.00    -0.277 N
ATOM     11  H2  UNL     1     -43.924   9.233  30.990  1.00  0.00     0.189 HD
BRANCH  10  12
HETATM   12  C12 UNL     1     -43.795  10.023  32.982  1.00  0.00     0.199 C
HETATM   13  N3  UNL     1     -44.475  10.018  34.233  1.00  0.00    -0.068 NA
HETATM   14  S1  UNL     1     -42.476  10.937  32.783  1.00  0.00    -0.043 SA
ENDBRANCH  10  12
ENDBRANCH   6  10
BRANCH   1  15
HETATM   15  C6  UNL     1     -44.229   5.533  29.024  1.00  0.00     0.051 C
BRANCH  15  16
HETATM   16  C5  UNL     1     -44.978   4.490  28.299  1.00  0.00    -0.029 C
HETATM   17  C4  UNL     1     -45.043   4.520  26.978  1.00  0.00    -0.031 C
BRANCH  17  18
HETATM   18  C3  UNL     1     -45.801   3.464  26.243  1.00  0.00     0.026 C
BRANCH  18  19
HETATM   19  C2  UNL     1     -46.156   2.369  27.246  1.00  0.00    -0.001 C
HETATM   20  C1  UNL     1     -47.609   1.994  26.952  1.00  0.00     0.005 C
ENDBRANCH  18  19
ENDBRANCH  17  18
ENDBRANCH  15  16
ENDBRANCH   1  15
TORSDOF 6
ENDMDL