MODEL 2
REMARK VINA RESULT: -7.113044909      5.497      8.668
REMARK  6 active torsions:
REMARK  status: ('A' for Active; 'I' for Inactive)
REMARK    1  A    between atoms: C2_2  and  C3_3
REMARK    2  A    between atoms: C6_8  and  N2_9
REMARK    3  A    between atoms: C7_14  and  N4_15
REMARK    4  A    between atoms: N4_15  and  C8_17
REMARK    5  A    between atoms: C8_17  and  C9_18
REMARK    6  A    between atoms: C8_17  and  C11_20
ROOT
HETATM    1  C3  UNL     1     -45.115   4.777  30.495  1.00  0.00     0.009 A
HETATM    2  C4  UNL     1     -45.296   4.447  29.174  1.00  0.00     0.032 A
HETATM    3  C5  UNL     1     -44.717   5.285  28.071  1.00  0.00     0.069 C
HETATM    4  N1  UNL     1     -45.998   3.360  28.842  1.00  0.00    -0.196 N
ATOM      5  H1  UNL     1     -46.132   3.115  27.861  1.00  0.00     0.184 HD
HETATM    6  C6  UNL     1     -46.521   2.598  29.807  1.00  0.00     0.677 A
HETATM    7  N3  UNL     1     -46.343   2.925  31.129  1.00  0.00    -0.177 N
ATOM      8  H3  UNL     1     -46.757   2.320  31.838  1.00  0.00     0.186 HD
HETATM    9  C7  UNL     1     -45.654   3.996  31.530  1.00  0.00     0.125 A
ENDROOT
BRANCH   9  10
HETATM   10  N4  UNL     1     -45.480   4.309  32.724  1.00  0.00    -0.370 N
ATOM     11  H4  UNL     1     -46.066   5.103  32.982  1.00  0.00     0.161 HD
BRANCH  10  12
HETATM   12  C8  UNL     1     -44.710   3.880  33.810  1.00  0.00     0.086 C
BRANCH  12  13
HETATM   13  C9  UNL     1     -44.678   4.833  34.962  1.00  0.00     0.021 C
HETATM   14  C10 UNL     1     -44.667   6.291  34.479  1.00  0.00     0.007 C
ENDBRANCH  12  13
BRANCH  12  15
HETATM   15  C11 UNL     1     -45.016   2.471  34.266  1.00  0.00     0.008 C
HETATM   16  C12 UNL     1     -43.685   1.847  34.689  1.00  0.00     0.007 C
HETATM   17  C13 UNL     1     -43.806   0.451  35.179  1.00  0.00     0.000 C
HETATM   18  C14 UNL     1     -44.943   0.248  36.151  1.00  0.00     0.000 C
HETATM   19  C15 UNL     1     -46.222   0.888  35.656  1.00  0.00     0.000 C
HETATM   20  C16 UNL     1     -45.896   2.388  35.490  1.00  0.00     0.007 C
ENDBRANCH  12  15
ENDBRANCH  10  12
ENDBRANCH   9  10
BRANCH   1  21
HETATM   21  C2  UNL     1     -44.339   5.978  30.828  1.00  0.00     0.040 C
HETATM   22  C1  UNL     1     -45.270   7.167  30.849  1.00  0.00     0.010 C
ENDBRANCH   1  21
BRANCH   6  23
HETATM   23  N2  UNL     1     -47.212   1.529  29.494  1.00  0.00    -0.234 N
ATOM     24  H22 UNL     1     -46.763   0.776  28.973  1.00  0.00     0.174 HD
ATOM     25  H21 UNL     1     -48.191   1.455  29.772  1.00  0.00     0.174 HD
ENDBRANCH   6  23
TORSDOF 6
ENDMDL