MODEL 3
REMARK VINA RESULT: -7.148944016      3.199      8.625
REMARK  3 active torsions:
REMARK  status: ('A' for Active; 'I' for Inactive)
REMARK    1  A    between atoms: C1_2  and  C2_4
REMARK       I    between atoms: N1_7  and  C5_8
REMARK    2  A    between atoms: C5_8  and  C6_10
REMARK       I    between atoms: N2_13  and  C9_14
REMARK       I    between atoms: C9_14  and  N3_16
REMARK    3  A    between atoms: N3_16  and  C10_18
ROOT
HETATM    1  C6  UNL     1      -3.471   4.253  12.339  1.00  0.00     0.081 C
HETATM    2  C7  UNL     1      -4.029   4.274  10.938  1.00  0.00     0.034 C
HETATM    3  C8  UNL     1      -3.092   4.679   9.881  1.00  0.00     0.128 C
HETATM    4  N2  UNL     1      -1.721   4.874  10.274  1.00  0.00    -0.334 N
HETATM    5  C9  UNL     1      -0.740   4.806   9.250  1.00  0.00     0.318 C
HETATM    6  O4  UNL     1      -1.038   4.583   8.035  1.00  0.00    -0.247 OA
HETATM    7  N3  UNL     1       0.626   4.984   9.543  1.00  0.00    -0.338 N
ATOM      8  H3  UNL     1       0.889   5.163  10.512  1.00  0.00     0.164 HD
HETATM    9  C13 UNL     1      -1.279   5.130  11.610  1.00  0.00     0.128 C
HETATM   10  C14 UNL     1      -2.486   5.390  12.474  1.00  0.00     0.034 C
ENDROOT
BRANCH   1  11
HETATM   11  C5  UNL     1      -4.580   4.488  13.297  1.00  0.00     0.224 C
HETATM   12  N1  UNL     1      -4.871   3.696  14.427  1.00  0.00    -0.352 N
HETATM   13  C4  UNL     1      -4.052   2.547  14.700  1.00  0.00     0.126 C
HETATM   14  C15 UNL     1      -5.992   4.080  15.264  1.00  0.00     0.126 C
HETATM   15  C3  UNL     1      -4.865   1.381  15.232  1.00  0.00     0.035 C
HETATM   16  C2  UNL     1      -5.661   1.950  16.414  1.00  0.00     0.090 C
HETATM   17  C16 UNL     1      -6.696   2.867  15.831  1.00  0.00     0.035 C
HETATM   18  O3  UNL     1      -5.335   5.500  13.075  1.00  0.00    -0.273 OA
BRANCH  16  19
HETATM   19  C1  UNL     1      -6.218   0.847  17.193  1.00  0.00     0.177 C
HETATM   20  O1  UNL     1      -5.490   0.084  17.871  1.00  0.00    -0.648 OA
HETATM   21  O2  UNL     1      -7.581   0.620  17.196  1.00  0.00    -0.648 OA
ENDBRANCH  16  19
ENDBRANCH   1  11
BRANCH   7  22
HETATM   22  C10 UNL     1       1.678   4.928   8.554  1.00  0.00     0.086 A
HETATM   23  C11 UNL     1       3.086   5.065   9.000  1.00  0.00     0.027 A
HETATM   24  C12 UNL     1       2.556   3.670   8.679  1.00  0.00     0.027 A
ENDBRANCH   7  22
TORSDOF 3
ENDMDL