MODEL 1
REMARK VINA RESULT: -6.018811520      0.000      0.000
REMARK  6 active torsions:
REMARK  status: ('A' for Active; 'I' for Inactive)
REMARK    1  A    between atoms: C2_2  and  N1_3
REMARK       I    between atoms: N1_3  and  C3_5
REMARK       I    between atoms: C3_5  and  N2_7
REMARK    2  A    between atoms: N2_7  and  C4_9
REMARK    3  A    between atoms: C4_9  and  C5_10
REMARK    4  A    between atoms: C5_10  and  N3_11
REMARK    5  A    between atoms: C5_10  and  N4_16
REMARK    6  A    between atoms: N3_11  and  C6_12
ROOT
HETATM    1  C5  UNL     1      -4.876   5.742  12.969  1.00  0.00     0.166 C
ENDROOT
BRANCH   1   2
HETATM    2  C4  UNL     1      -5.524   5.317  14.233  1.00  0.00     0.216 C
BRANCH   2   3
HETATM    3  N2  UNL     1      -5.536   3.881  14.424  1.00  0.00    -0.335 N
HETATM    4  C3  UNL     1      -6.211   3.333  15.529  1.00  0.00     0.316 C
HETATM    5  N1  UNL     1      -6.236   1.942  15.735  1.00  0.00    -0.343 N
HETATM    6  O1  UNL     1      -6.797   4.082  16.339  1.00  0.00    -0.247 OA
ATOM      7  H1  UNL     1      -5.755   1.339  15.067  1.00  0.00     0.164 HD
ATOM      8  H2  UNL     1      -5.059   3.271  13.761  1.00  0.00     0.164 HD
BRANCH   5   9
HETATM    9  C2  UNL     1      -6.918   1.330  16.856  1.00  0.00     0.120 C
HETATM   10  C1  UNL     1      -5.912   0.389  17.521  1.00  0.00     0.026 C
ENDBRANCH   5   9
ENDBRANCH   2   3
ENDBRANCH   1   2
BRANCH   1  11
HETATM   11  N3  UNL     1      -5.364   6.476  12.177  1.00  0.00    -0.423 NA
BRANCH  11  12
HETATM   12  C6  UNL     1      -5.913   7.302  11.288  1.00  0.00     0.084 C
HETATM   13  C7  UNL     1      -7.298   7.854  11.550  1.00  0.00     0.053 C
HETATM   14  C8  UNL     1      -4.946   8.456  10.954  1.00  0.00     0.053 C
HETATM   15  C9  UNL     1      -6.058   6.569   9.933  1.00  0.00     0.053 C
ENDBRANCH  11  12
ENDBRANCH   1  11
BRANCH   1  16
HETATM   16  N4  UNL     1      -3.553   5.198  12.729  1.00  0.00    -0.347 N
HETATM   17  C10 UNL     1      -3.354   4.069  11.833  1.00  0.00     0.156 C
HETATM   18  C11 UNL     1      -2.096   4.158  11.049  1.00  0.00     0.291 C
HETATM   19  N5  UNL     1      -1.675   5.552  10.988  1.00  0.00     0.088 N
HETATM   20  C12 UNL     1      -0.549   5.621  10.104  1.00  0.00     0.310 C
HETATM   21  C13 UNL     1      -1.263   5.950  12.319  1.00  0.00     0.302 C
HETATM   22  C14 UNL     1      -2.369   5.708  13.334  1.00  0.00     0.054 C
HETATM   23  C15 UNL     1      -2.551   6.971  14.113  1.00  0.00     0.040 C
HETATM   24  C16 UNL     1      -1.856   4.639  14.305  1.00  0.00     0.040 C
ENDBRANCH   1  16
TORSDOF 6
ENDMDL