MODEL 1
REMARK VINA RESULT: -6.188338806      0.000      0.000
REMARK  5 active torsions:
REMARK  status: ('A' for Active; 'I' for Inactive)
REMARK    1  A    between atoms: C2_2  and  N1_3
REMARK       I    between atoms: N1_3  and  C3_5
REMARK       I    between atoms: C3_5  and  N2_7
REMARK    2  A    between atoms: C6_10  and  N3_11
REMARK    3  A    between atoms: N3_11  and  C7_13
REMARK    4  A    between atoms: C7_13  and  N4_15
REMARK    5  A    between atoms: N5_18  and  C10_19
ROOT
HETATM    1  N1  UNL     1      -0.694   8.025  13.408  1.00  0.00    -0.343 N
ATOM      2  H1  UNL     1       0.024   7.350  13.670  1.00  0.00     0.164 HD
HETATM    3  C3  UNL     1      -1.664   7.662  12.441  1.00  0.00     0.318 C
HETATM    4  O1  UNL     1      -2.537   8.502  12.131  1.00  0.00    -0.247 OA
HETATM    5  N2  UNL     1      -1.626   6.382  11.855  1.00  0.00    -0.334 N
HETATM    6  C4  UNL     1      -0.601   5.437  12.235  1.00  0.00     0.129 C
HETATM    7  C5  UNL     1      -0.995   4.113  11.604  1.00  0.00     0.045 C
HETATM    8  C6  UNL     1      -2.398   3.823  12.060  1.00  0.00     0.087 C
HETATM    9  C13 UNL     1      -3.329   4.722  11.223  1.00  0.00     0.045 C
HETATM   10  C14 UNL     1      -2.611   6.008  10.873  1.00  0.00     0.129 C
ENDROOT
BRANCH   8  11
HETATM   11  N3  UNL     1      -2.799   2.460  11.989  1.00  0.00    -0.362 N
ATOM     12  H3  UNL     1      -2.128   1.838  11.536  1.00  0.00     0.162 HD
BRANCH  11  13
HETATM   13  C7  UNL     1      -3.947   1.848  12.433  1.00  0.00     0.171 C
HETATM   14  S1  UNL     1      -4.736   0.915  11.252  1.00  0.00    -0.041 SA
BRANCH  13  15
HETATM   15  N4  UNL     1      -4.566   1.876  13.707  1.00  0.00    -0.331 N
HETATM   16  C8  UNL     1      -5.320   3.083  14.153  1.00  0.00     0.157 C
HETATM   17  C9  UNL     1      -5.972   2.660  15.451  1.00  0.00     0.294 C
HETATM   18  N5  UNL     1      -5.022   1.710  15.942  1.00  0.00     0.107 N
HETATM   19  C12 UNL     1      -4.646   0.953  14.783  1.00  0.00     0.399 C
BRANCH  18  20
HETATM   20  C10 UNL     1      -5.547   0.881  17.008  1.00  0.00     0.270 C
HETATM   21  C11 UNL     1      -7.012   1.062  17.222  1.00  0.00     0.037 C
ENDBRANCH  18  20
ENDBRANCH  13  15
ENDBRANCH  11  13
ENDBRANCH   8  11
BRANCH   1  22
HETATM   22  C2  UNL     1      -0.697   9.340  14.038  1.00  0.00     0.120 C
HETATM   23  C1  UNL     1      -1.362   9.177  15.387  1.00  0.00     0.026 C
ENDBRANCH   1  22
TORSDOF 5
ENDMDL