MODEL 1
REMARK VINA RESULT: -6.240384128      0.000      0.000
REMARK  6 active torsions:
REMARK  status: ('A' for Active; 'I' for Inactive)
REMARK    1  A    between atoms: N1_1  and  C1_5
REMARK    2  A    between atoms: C1_5  and  C2_6
REMARK    3  A    between atoms: C2_6  and  N2_7
REMARK    4  A    between atoms: N3_11  and  C6_12
REMARK    5  A    between atoms: C6_12  and  N4_14
REMARK    6  A    between atoms: N4_14  and  C7_16
ROOT
HETATM    1  N2  UNL     1      -4.370   3.068  14.011  1.00  0.00    -0.409 N
HETATM    2  C3  UNL     1      -3.374   3.894  14.600  1.00  0.00     0.118 C
HETATM    3  C4  UNL     1      -3.350   5.288  14.012  1.00  0.00     0.039 C
HETATM    4  C5  UNL     1      -4.468   5.344  12.983  1.00  0.00     0.127 C
HETATM    5  N3  UNL     1      -4.032   4.671  11.807  1.00  0.00    -0.356 N
HETATM    6  C16 UNL     1      -3.831   3.265  11.599  1.00  0.00     0.144 C
HETATM    7  C17 UNL     1      -4.035   2.400  12.809  1.00  0.00     0.136 C
ENDROOT
BRANCH   5   8
HETATM    8  C6  UNL     1      -3.748   5.479  10.667  1.00  0.00     0.174 C
HETATM    9  S1  UNL     1      -3.196   4.700   9.363  1.00  0.00    -0.041 SA
BRANCH   8  10
HETATM   10  N4  UNL     1      -3.931   6.868  10.655  1.00  0.00    -0.340 N
ATOM     11  H4  UNL     1      -3.146   7.368  11.070  1.00  0.00     0.167 HD
BRANCH  10  12
HETATM   12  C7  UNL     1      -4.938   7.732  10.207  1.00  0.00    -0.003 C
HETATM   13  C8  UNL     1      -5.874   8.392  11.138  1.00  0.00     0.032 C
HETATM   14  C9  UNL     1      -6.172   9.780  10.448  1.00  0.00     0.015 C
HETATM   15  C15 UNL     1      -7.291   7.920  11.194  1.00  0.00     0.015 C
HETATM   16  C10 UNL     1      -6.946   9.273   9.248  1.00  0.00    -0.009 C
HETATM   17  C11 UNL     1      -5.952   8.748   8.238  1.00  0.00     0.015 C
HETATM   18  C14 UNL     1      -7.696   8.038   9.715  1.00  0.00    -0.009 C
HETATM   19  C12 UNL     1      -5.607   7.381   8.892  1.00  0.00     0.032 C
HETATM   20  C13 UNL     1      -7.012   6.855   9.038  1.00  0.00     0.015 C
ENDBRANCH  10  12
ENDBRANCH   8  10
ENDBRANCH   5   8
BRANCH   1  21
HETATM   21  C2  UNL     1      -5.212   2.398  14.932  1.00  0.00     0.144 C
BRANCH  21  22
HETATM   22  C1  UNL     1      -4.525   1.643  16.031  1.00  0.00     0.248 C
BRANCH  22  23
HETATM   23  N1  UNL     1      -4.412   0.243  15.664  1.00  0.00    -0.078 N
ATOM     24  H13 UNL     1      -4.387   0.111  14.652  1.00  0.00     0.274 HD
ATOM     25  H12 UNL     1      -3.493  -0.140  15.884  1.00  0.00     0.274 HD
ATOM     26  H11 UNL     1      -5.166  -0.288  16.102  1.00  0.00     0.274 HD
ENDBRANCH  22  23
ENDBRANCH  21  22
ENDBRANCH   1  21
TORSDOF 6
ENDMDL