MODEL 4
REMARK VINA RESULT: -6.625519235      2.754      3.441
REMARK  6 active torsions:
REMARK  status: ('A' for Active; 'I' for Inactive)
REMARK    1  A    between atoms: C3_3  and  N1_4
REMARK       I    between atoms: N2_7  and  C6_8
REMARK       I    between atoms: C6_8  and  N3_10
REMARK    2  A    between atoms: N3_10  and  C7_12
REMARK    3  A    between atoms: C7_12  and  C8_13
REMARK    4  A    between atoms: C7_12  and  C13_18
REMARK    5  A    between atoms: C9_14  and  C10_15
REMARK    6  A    between atoms: C13_18  and  O2_19
ROOT
HETATM    1  C1  UNL     1      -2.855  11.621  10.851  1.00  0.00     0.013 C
HETATM    2  C2  UNL     1      -2.071  10.697  10.882  1.00  0.00    -0.087 C
HETATM    3  C3  UNL     1      -1.111   9.623  10.933  1.00  0.00     0.365 C
ENDROOT
BRANCH   3   4
HETATM    4  N1  UNL     1      -1.592   8.354  11.413  1.00  0.00     0.107 N
HETATM    5  C4  UNL     1      -2.703   7.975  10.528  1.00  0.00     0.294 C
HETATM    6  C5  UNL     1      -3.929   7.540  11.301  1.00  0.00     0.158 C
HETATM    7  N2  UNL     1      -3.512   6.519  12.276  1.00  0.00    -0.326 N
HETATM    8  C6  UNL     1      -4.175   5.258  12.247  1.00  0.00     0.319 C
HETATM    9  C14 UNL     1      -2.475   6.911  13.154  1.00  0.00     0.122 C
HETATM   10  O1  UNL     1      -5.107   5.041  11.395  1.00  0.00    -0.247 OA
HETATM   11  N3  UNL     1      -3.859   4.199  13.124  1.00  0.00    -0.326 N
ATOM     12  H3  UNL     1      -3.122   4.331  13.817  1.00  0.00     0.165 HD
HETATM   13  C15 UNL     1      -2.874   7.179  14.583  1.00  0.00     0.028 C
HETATM   14  C18 UNL     1      -2.058   8.343  12.765  1.00  0.00     0.246 C
HETATM   15  C16 UNL     1      -1.575   7.839  15.076  1.00  0.00     0.004 C
HETATM   16  C17 UNL     1      -1.057   8.603  13.837  1.00  0.00     0.038 C
BRANCH  11  17
HETATM   17  C7  UNL     1      -4.549   2.938  13.068  1.00  0.00     0.189 C
BRANCH  17  18
HETATM   18  C8  UNL     1      -4.839   2.391  14.416  1.00  0.00    -0.078 C
HETATM   19  C9  UNL     1      -5.096   1.944  15.504  1.00  0.00    -0.100 C
BRANCH  19  20
HETATM   20  C10 UNL     1      -5.436   1.402  16.837  1.00  0.00     0.065 A
HETATM   21  C11 UNL     1      -6.438   2.193  17.577  1.00  0.00     0.018 A
HETATM   22  C12 UNL     1      -6.877   0.877  16.955  1.00  0.00     0.018 A
ENDBRANCH  19  20
ENDBRANCH  17  18
BRANCH  17  23
HETATM   23  C13 UNL     1      -3.747   1.873  12.343  1.00  0.00     0.202 C
BRANCH  23  24
HETATM   24  O2  UNL     1      -2.504   2.328  11.956  1.00  0.00    -0.398 OA
ATOM     25  H2  UNL     1      -2.118   1.787  11.276  1.00  0.00     0.209 HD
ENDBRANCH  23  24
ENDBRANCH  17  23
ENDBRANCH  11  17
ENDBRANCH   3   4
TORSDOF 6
ENDMDL