MODEL 2
REMARK VINA RESULT: -5.449529178      3.430      7.079
REMARK  7 active torsions:
REMARK  status: ('A' for Active; 'I' for Inactive)
REMARK    1  A    between atoms: C2_2  and  C3_3
REMARK    2  A    between atoms: C3_3  and  C4_4
REMARK    3  A    between atoms: C4_4  and  N1_5
REMARK    4  A    between atoms: N1_5  and  C5_7
REMARK    5  A    between atoms: C5_7  and  N2_9
REMARK    6  A    between atoms: N3_13  and  C9_14
REMARK    7  A    between atoms: C9_14  and  N4_16
ROOT
HETATM    1  N2  UNL     1      -2.866   4.034  13.355  1.00  0.00    -0.353 N
HETATM    2  C6  UNL     1      -2.715   3.366  12.096  1.00  0.00     0.159 C
HETATM    3  C7  UNL     1      -1.991   4.349  11.160  1.00  0.00     0.158 C
HETATM    4  C8  UNL     1      -0.513   4.088  11.129  1.00  0.00     0.159 C
HETATM    5  N3  UNL     1       0.286   5.241  11.496  1.00  0.00    -0.353 N
HETATM    6  C11 UNL     1      -0.252   6.270  12.352  1.00  0.00     0.159 C
HETATM    7  C12 UNL     1      -1.706   6.017  12.709  1.00  0.00     0.158 C
HETATM    8  C13 UNL     1      -1.834   4.964  13.761  1.00  0.00     0.159 C
HETATM    9  O1  UNL     1      -2.324   5.659  11.492  1.00  0.00    -0.374 OA
ENDROOT
BRANCH   1  10
HETATM   10  C5  UNL     1      -3.959   3.834  14.227  1.00  0.00     0.169 C
HETATM   11  S1  UNL     1      -5.223   4.877  14.289  1.00  0.00    -0.041 SA
BRANCH  10  12
HETATM   12  N1  UNL     1      -3.980   2.710  15.079  1.00  0.00    -0.367 N
ATOM     13  H1  UNL     1      -3.111   2.282  15.398  1.00  0.00     0.161 HD
BRANCH  12  14
HETATM   14  C4  UNL     1      -5.264   2.173  15.493  1.00  0.00     0.122 C
BRANCH  14  15
HETATM   15  C3  UNL     1      -5.051   0.860  16.196  1.00  0.00     0.019 C
BRANCH  15  16
HETATM   16  C2  UNL     1      -5.946   0.749  17.413  1.00  0.00    -0.003 C
HETATM   17  C1  UNL     1      -7.334   1.181  16.992  1.00  0.00     0.005 C
ENDBRANCH  15  16
ENDBRANCH  14  15
ENDBRANCH  12  14
ENDBRANCH  10  12
ENDBRANCH   1  10
BRANCH   5  18
HETATM   18  C9  UNL     1       1.625   5.407  11.030  1.00  0.00     0.169 C
HETATM   19  S2  UNL     1       1.895   6.437   9.796  1.00  0.00    -0.041 SA
BRANCH  18  20
HETATM   20  N4  UNL     1       2.707   4.717  11.596  1.00  0.00    -0.371 N
HETATM   21  C10 UNL     1       3.793   5.438  12.196  1.00  0.00     0.148 C
ATOM     22  H4  UNL     1       2.723   3.698  11.580  1.00  0.00     0.161 HD
ENDBRANCH  18  20
ENDBRANCH   5  18
TORSDOF 7
ENDMDL