MODEL 1
REMARK VINA RESULT: -7.411839157      0.000      0.000
REMARK  3 active torsions:
REMARK  status: ('A' for Active; 'I' for Inactive)
REMARK       I    between atoms: N1_2  and  C2_4
REMARK    1  A    between atoms: C2_4  and  C3_6
REMARK       I    between atoms: N2_10  and  C7_11
REMARK       I    between atoms: C7_11  and  N3_13
REMARK    2  A    between atoms: N3_13  and  C8_15
REMARK    3  A    between atoms: C8_15  and  C9_16
REMARK       I    between atoms: C9_16  and  N4_18
ROOT
HETATM    1  C3  UNL     1       0.985   5.737  10.472  1.00  0.00     0.040 C
HETATM    2  C4  UNL     1       1.496   7.073   9.917  1.00  0.00     0.025 C
HETATM    3  C5  UNL     1       0.016   5.969  11.597  1.00  0.00     0.039 C
HETATM    4  C6  UNL     1      -0.948   4.811  11.774  1.00  0.00     0.129 C
HETATM    5  N2  UNL     1      -1.669   4.647  10.543  1.00  0.00    -0.334 N
HETATM    6  C7  UNL     1      -2.840   3.850  10.518  1.00  0.00     0.318 C
HETATM    7  O2  UNL     1      -3.425   3.745   9.412  1.00  0.00    -0.247 OA
HETATM    8  N3  UNL     1      -3.276   3.229  11.712  1.00  0.00    -0.334 N
ATOM      9  H3  UNL     1      -2.739   3.364  12.569  1.00  0.00     0.164 HD
HETATM   10  C15 UNL     1      -1.147   5.320   9.370  1.00  0.00     0.129 C
HETATM   11  C16 UNL     1       0.349   5.009   9.334  1.00  0.00     0.039 C
ENDROOT
BRANCH   8  12
HETATM   12  C8  UNL     1      -4.451   2.419  11.747  1.00  0.00     0.227 C
BRANCH  12  13
HETATM   13  C9  UNL     1      -4.370   1.350  12.762  1.00  0.00     0.237 C
HETATM   14  O3  UNL     1      -4.072   0.177  12.451  1.00  0.00    -0.272 OA
HETATM   15  N4  UNL     1      -4.632   1.656  14.109  1.00  0.00    -0.351 N
HETATM   16  C10 UNL     1      -4.553   0.613  15.100  1.00  0.00     0.126 C
HETATM   17  C14 UNL     1      -4.978   2.999  14.502  1.00  0.00     0.126 C
HETATM   18  C11 UNL     1      -4.645   1.279  16.458  1.00  0.00     0.020 C
HETATM   19  C12 UNL     1      -6.005   1.967  16.524  1.00  0.00     0.003 C
HETATM   20  C13 UNL     1      -6.200   2.929  15.397  1.00  0.00     0.020 C
ENDBRANCH  12  13
ENDBRANCH   8  12
BRANCH   1  21
HETATM   21  C2  UNL     1       2.173   5.032  11.007  1.00  0.00     0.225 C
HETATM   22  N1  UNL     1       3.107   5.671  11.867  1.00  0.00    -0.365 N
HETATM   23  C1  UNL     1       4.272   4.967  12.387  1.00  0.00     0.149 C
ATOM     24  H1  UNL     1       2.958   6.647  12.126  1.00  0.00     0.161 HD
HETATM   25  O1  UNL     1       2.322   3.812  10.658  1.00  0.00    -0.273 OA
ENDBRANCH   1  21
TORSDOF 3
ENDMDL