MODEL 4
REMARK VINA RESULT: -6.410197310      4.291      7.976
REMARK  6 active torsions:
REMARK  status: ('A' for Active; 'I' for Inactive)
REMARK    1  A    between atoms: C2_2  and  O1_3
REMARK    2  A    between atoms: C2_2  and  C3_5
REMARK    3  A    between atoms: C3_5  and  N1_6
REMARK    4  A    between atoms: N1_6  and  C5_8
REMARK    5  A    between atoms: C5_8  and  N2_10
REMARK       I    between atoms: N3_13  and  C8_14
REMARK    6  A    between atoms: C8_14  and  C9_16
ROOT
HETATM    1  N2  UNL     1      -3.189   4.472  13.672  1.00  0.00    -0.355 N
HETATM    2  C6  UNL     1      -3.822   5.811  13.549  1.00  0.00     0.145 C
HETATM    3  C7  UNL     1      -2.907   6.818  14.248  1.00  0.00     0.145 C
HETATM    4  N3  UNL     1      -1.696   6.897  13.455  1.00  0.00    -0.347 N
HETATM    5  C8  UNL     1      -1.048   8.120  13.261  1.00  0.00     0.250 C
HETATM    6  O2  UNL     1      -0.002   8.100  12.519  1.00  0.00    -0.271 OA
HETATM    7  C14 UNL     1      -1.220   5.672  12.872  1.00  0.00     0.145 C
HETATM    8  C15 UNL     1      -1.778   4.433  13.599  1.00  0.00     0.145 C
ENDROOT
BRANCH   5   9
HETATM    9  C9  UNL     1      -1.531   9.372  13.866  1.00  0.00     0.277 C
HETATM   10  C10 UNL     1      -0.900   9.531  15.249  1.00  0.00     0.043 C
HETATM   11  C11 UNL     1       0.463  10.200  15.012  1.00  0.00     0.004 C
HETATM   12  C12 UNL     1       0.132  11.671  14.738  1.00  0.00     0.027 C
HETATM   13  C13 UNL     1      -0.970  11.721  13.693  1.00  0.00     0.233 C
HETATM   14  N4  UNL     1      -1.087  10.455  13.002  1.00  0.00    -0.062 N
ATOM     15  H42 UNL     1      -0.213  10.213  12.536  1.00  0.00     0.278 HD
ATOM     16  H41 UNL     1      -1.693  10.541  12.186  1.00  0.00     0.278 HD
ENDBRANCH   5   9
BRANCH   1  17
HETATM   17  C5  UNL     1      -4.044   3.390  13.830  1.00  0.00     0.171 C
HETATM   18  S1  UNL     1      -4.114   2.355  12.482  1.00  0.00    -0.041 SA
BRANCH  17  19
HETATM   19  N1  UNL     1      -4.858   2.972  14.882  1.00  0.00    -0.360 N
HETATM   20  C4  UNL     1      -6.168   3.545  15.074  1.00  0.00     0.152 C
BRANCH  19  21
HETATM   21  C3  UNL     1      -4.354   1.940  15.774  1.00  0.00     0.155 C
BRANCH  21  22
HETATM   22  C2  UNL     1      -5.239   0.770  15.970  1.00  0.00     0.132 C
HETATM   23  C1  UNL     1      -5.738   0.710  17.373  1.00  0.00     0.041 C
BRANCH  22  24
HETATM   24  O1  UNL     1      -4.743  -0.417  15.485  1.00  0.00    -0.394 OA
ATOM     25  H1  UNL     1      -4.505  -0.403  14.565  1.00  0.00     0.210 HD
ENDBRANCH  22  24
ENDBRANCH  21  22
ENDBRANCH  19  21
ENDBRANCH  17  19
ENDBRANCH   1  17
TORSDOF 6
ENDMDL