MODEL 1
REMARK VINA RESULT: -5.836154009      0.000      0.000
REMARK  5 active torsions:
REMARK  status: ('A' for Active; 'I' for Inactive)
REMARK    1  A    between atoms: N1_2  and  C2_4
REMARK    2  A    between atoms: C2_4  and  N2_6
REMARK    3  A    between atoms: N3_9  and  C5_10
REMARK    4  A    between atoms: C5_10  and  C6_11
REMARK    5  A    between atoms: C6_11  and  N4_13
ROOT
HETATM    1  C5  UNL     1      -3.020   5.568  11.482  1.00  0.00     0.307 C
ENDROOT
BRANCH   1   2
HETATM    2  N3  UNL     1      -3.983   4.683  12.032  1.00  0.00     0.093 N
HETATM    3  C4  UNL     1      -3.999   4.997  13.474  1.00  0.00     0.292 C
HETATM    4  C3  UNL     1      -3.525   3.878  14.336  1.00  0.00     0.155 C
HETATM    5  N2  UNL     1      -4.377   2.701  14.072  1.00  0.00    -0.355 N
HETATM    6  C16 UNL     1      -4.413   2.320  12.701  1.00  0.00     0.155 C
HETATM    7  C15 UNL     1      -3.673   3.319  11.808  1.00  0.00     0.292 C
BRANCH   5   8
HETATM    8  C2  UNL     1      -5.049   2.076  15.128  1.00  0.00     0.169 C
HETATM    9  S1  UNL     1      -4.506   0.557  15.604  1.00  0.00    -0.041 SA
BRANCH   8  10
HETATM   10  N1  UNL     1      -6.139   2.599  15.824  1.00  0.00    -0.371 N
HETATM   11  C1  UNL     1      -6.862   2.040  16.919  1.00  0.00     0.148 C
ATOM     12  H1  UNL     1      -6.466   3.511  15.505  1.00  0.00     0.161 HD
ENDBRANCH   8  10
ENDBRANCH   5   8
ENDBRANCH   1   2
BRANCH   1  13
HETATM   13  C6  UNL     1      -3.426   6.779  10.738  1.00  0.00     0.247 C
HETATM   14  C7  UNL     1      -3.674   8.003  11.548  1.00  0.00     0.045 C
BRANCH  13  15
HETATM   15  N4  UNL     1      -4.675   6.434  10.059  1.00  0.00     0.095 N
HETATM   16  C8  UNL     1      -5.830   7.125  10.571  1.00  0.00     0.278 C
HETATM   17  C9  UNL     1      -6.774   7.056   9.411  1.00  0.00     0.023 C
HETATM   18  C10 UNL     1      -7.855   8.061   9.344  1.00  0.00     0.026 C
HETATM   19  C13 UNL     1      -5.853   7.383   8.253  1.00  0.00     0.037 C
HETATM   20  C11 UNL     1      -8.583   7.825   8.017  1.00  0.00     0.114 C
HETATM   21  N5  UNL     1      -7.749   7.665   6.889  1.00  0.00    -0.421 N
HETATM   22  C12 UNL     1      -6.581   6.828   7.060  1.00  0.00     0.120 C
ATOM     23  H5  UNL     1      -7.959   8.117   5.999  1.00  0.00     0.153 HD
HETATM   24  C14 UNL     1      -4.592   6.728   8.640  1.00  0.00     0.279 C
ENDBRANCH  13  15
ENDBRANCH   1  13
TORSDOF 5
ENDMDL