MODEL 3
REMARK VINA RESULT: -5.636468636      3.053      7.517
REMARK  8 active torsions:
REMARK  status: ('A' for Active; 'I' for Inactive)
REMARK    1  A    between atoms: N1_2  and  C2_4
REMARK    2  A    between atoms: C2_4  and  N2_6
REMARK    3  A    between atoms: N2_6  and  C3_8
REMARK    4  A    between atoms: C3_8  and  C4_9
REMARK    5  A    between atoms: C4_9  and  N3_10
REMARK    6  A    between atoms: N4_13  and  C7_14
REMARK    7  A    between atoms: C7_14  and  O1_15
REMARK    8  A    between atoms: C7_14  and  N5_17
ROOT
HETATM    1  N3  UNL     1      -4.428   5.922  10.850  1.00  0.00    -0.408 N
HETATM    2  C5  UNL     1      -4.875   6.454  12.081  1.00  0.00     0.136 C
HETATM    3  C6  UNL     1      -3.941   6.002  13.177  1.00  0.00     0.145 C
HETATM    4  N4  UNL     1      -3.592   4.564  12.987  1.00  0.00    -0.344 N
HETATM    5  C14 UNL     1      -3.128   4.131  11.698  1.00  0.00     0.145 C
HETATM    6  C15 UNL     1      -3.094   5.424  10.840  1.00  0.00     0.136 C
ENDROOT
BRANCH   4   7
HETATM    7  C7  UNL     1      -3.719   3.681  14.071  1.00  0.00     0.217 C
BRANCH   7   8
HETATM    8  O1  UNL     1      -2.759   3.850  14.957  1.00  0.00    -0.333 OA
ATOM      9  H1  UNL     1      -2.821   4.693  15.390  1.00  0.00     0.220 HD
ENDBRANCH   7   8
BRANCH   7  10
HETATM   10  N5  UNL     1      -4.655   2.704  14.333  1.00  0.00    -0.347 N
HETATM   11  C8  UNL     1      -4.640   1.305  14.047  1.00  0.00     0.126 C
HETATM   12  C9  UNL     1      -4.306   0.593  15.383  1.00  0.00     0.020 C
HETATM   13  C10 UNL     1      -4.892   1.430  16.514  1.00  0.00     0.007 C
HETATM   14  C11 UNL     1      -6.208   2.011  16.019  1.00  0.00    -0.000 C
HETATM   15  C12 UNL     1      -6.954   2.515  17.235  1.00  0.00     0.011 C
HETATM   16  C13 UNL     1      -5.891   3.132  15.057  1.00  0.00     0.130 C
ENDBRANCH   7  10
ENDBRANCH   4   7
BRANCH   1  17
HETATM   17  C4  UNL     1      -4.888   6.508   9.646  1.00  0.00     0.136 C
BRANCH  17  18
HETATM   18  C3  UNL     1      -6.215   7.187   9.862  1.00  0.00     0.141 C
BRANCH  18  19
HETATM   19  N2  UNL     1      -7.217   6.578   9.016  1.00  0.00    -0.366 N
ATOM     20  H2  UNL     1      -7.621   5.674   9.261  1.00  0.00     0.161 HD
BRANCH  19  21
HETATM   21  C2  UNL     1      -7.632   7.253   7.841  1.00  0.00     0.167 C
HETATM   22  S1  UNL     1      -8.835   8.370   7.882  1.00  0.00    -0.041 SA
BRANCH  21  23
HETATM   23  N1  UNL     1      -6.960   6.959   6.624  1.00  0.00    -0.372 N
HETATM   24  C1  UNL     1      -5.845   7.778   6.218  1.00  0.00     0.148 C
ATOM     25  H1  UNL     1      -7.263   6.177   6.043  1.00  0.00     0.161 HD
ENDBRANCH  21  23
ENDBRANCH  19  21
ENDBRANCH  18  19
ENDBRANCH  17  18
ENDBRANCH   1  17
TORSDOF 8
ENDMDL