MODEL 3
REMARK VINA RESULT: -8.192501381      3.822      6.276
REMARK  4 active torsions:
REMARK  status: ('A' for Active; 'I' for Inactive)
REMARK    1  A    between atoms: N1_1  and  C1_4
REMARK    2  A    between atoms: C2_9  and  C3_10
REMARK    3  A    between atoms: C3_10  and  C4_11
REMARK       I    between atoms: C4_11  and  N4_13
REMARK    4  A    between atoms: N4_13  and  C5_15
ROOT
HETATM    1  C1  UNL     1     -10.630 -28.284 -25.864  1.00  0.00     0.705 A
HETATM    2  N2  UNL     1     -11.597 -29.215 -25.723  1.00  0.00    -0.130 N
ATOM      3  H2  UNL     1     -11.587 -29.823 -24.904  1.00  0.00     0.205 HD
HETATM    4  N3  UNL     1     -12.571 -29.361 -26.634  1.00  0.00    -0.273 N
ATOM      5  H3  UNL     1     -13.295 -30.069 -26.512  1.00  0.00     0.189 HD
HETATM    6  C2  UNL     1     -12.574 -28.558 -27.705  1.00  0.00     0.120 A
HETATM    7  N6  UNL     1     -11.608 -27.642 -27.828  1.00  0.00    -0.273 N
ATOM      8  H6  UNL     1     -11.615 -27.032 -28.646  1.00  0.00     0.189 HD
HETATM    9  N7  UNL     1     -10.640 -27.491 -26.930  1.00  0.00    -0.130 N
ATOM     10  H7  UNL     1      -9.920 -26.780 -27.057  1.00  0.00     0.205 HD
ENDROOT
BRANCH   6  11
HETATM   11  C3  UNL     1     -13.620 -28.674 -28.737  1.00  0.00     0.182 C
BRANCH  11  12
HETATM   12  C4  UNL     1     -14.983 -28.502 -28.130  1.00  0.00     0.229 C
HETATM   13  O1  UNL     1     -15.922 -29.079 -28.691  1.00  0.00    -0.273 OA
HETATM   14  N4  UNL     1     -15.115 -27.711 -26.981  1.00  0.00    -0.325 N
ATOM     15  H4  UNL     1     -14.250 -27.299 -26.631  1.00  0.00     0.169 HD
BRANCH  14  16
HETATM   16  C5  UNL     1     -16.274 -27.408 -26.243  1.00  0.00     0.059 A
HETATM   17  C6  UNL     1     -17.549 -27.862 -26.541  1.00  0.00     0.031 A
HETATM   18  C7  UNL     1     -18.654 -27.525 -25.771  1.00  0.00     0.002 A
HETATM   19  C8  UNL     1     -18.446 -26.711 -24.683  1.00  0.00     0.002 A
HETATM   20  C9  UNL     1     -17.194 -26.240 -24.356  1.00  0.00     0.029 A
HETATM   21  C10 UNL     1     -16.108 -26.578 -25.122  1.00  0.00     0.073 A
HETATM   22  N5  UNL     1     -14.818 -26.073 -24.760  1.00  0.00    -0.100 NA
ENDBRANCH  14  16
ENDBRANCH  11  12
ENDBRANCH   6  11
BRANCH   1  23
HETATM   23  N1  UNL     1      -9.707 -28.154 -24.988  1.00  0.00    -0.232 N
ATOM     24  H12 UNL     1      -9.956 -27.932 -24.024  1.00  0.00     0.174 HD
ATOM     25  H11 UNL     1      -8.725 -28.268 -25.238  1.00  0.00     0.174 HD
ENDBRANCH   1  23
TORSDOF 4
ENDMDL