MODEL 1
REMARK VINA RESULT: -7.445445550      0.000      0.000
REMARK  4 active torsions:
REMARK  status: ('A' for Active; 'I' for Inactive)
REMARK    1  A    between atoms: C2_3  and  N2_4
REMARK    2  A    between atoms: N2_4  and  C3_6
REMARK    3  A    between atoms: C5_12  and  N5_13
REMARK    4  A    between atoms: N5_13  and  C6_15
ROOT
HETATM    1  N1  UNL     1     -13.479 -25.141 -19.600  1.00  0.00    -0.196 NA
HETATM    2  C1  UNL     1     -14.361 -25.300 -20.347  1.00  0.00     0.078 C
HETATM    3  C2  UNL     1     -15.449 -25.520 -21.271  1.00  0.00     0.245 C
ENDROOT
BRANCH   3   4
HETATM    4  N2  UNL     1     -15.012 -25.256 -22.623  1.00  0.00    -0.361 N
ATOM      5  H2  UNL     1     -14.268 -24.580 -22.793  1.00  0.00     0.162 HD
BRANCH   4   6
HETATM    6  C3  UNL     1     -15.623 -25.944 -23.731  1.00  0.00     0.145 A
HETATM    7  N3  UNL     1     -16.933 -26.214 -23.858  1.00  0.00    -0.284 N
HETATM    8  N4  UNL     1     -17.145 -26.855 -24.995  1.00  0.00    -0.308 N
ATOM      9  H3  UNL     1     -17.654 -25.963 -23.181  1.00  0.00     0.188 HD
HETATM   10  C4  UNL     1     -15.984 -27.026 -25.651  1.00  0.00     0.141 A
ATOM     11  H4  UNL     1     -18.056 -27.173 -25.326  1.00  0.00     0.186 HD
HETATM   12  C5  UNL     1     -15.017 -26.452 -24.857  1.00  0.00     0.111 A
BRANCH  12  13
HETATM   13  N5  UNL     1     -13.640 -26.381 -25.125  1.00  0.00    -0.186 N
ATOM     14  H5  UNL     1     -13.151 -25.562 -24.765  1.00  0.00     0.184 HD
BRANCH  13  15
HETATM   15  C6  UNL     1     -12.939 -27.216 -25.762  1.00  0.00     0.687 A
HETATM   16  N6  UNL     1     -12.678 -28.404 -25.168  1.00  0.00    -0.187 N
HETATM   17  C7  UNL     1     -11.925 -29.318 -25.835  1.00  0.00     0.202 A
ATOM     18  H6  UNL     1     -13.042 -28.610 -24.237  1.00  0.00     0.185 HD
HETATM   19  N7  UNL     1     -11.435 -29.060 -27.070  1.00  0.00    -0.304 N
HETATM   20  C8  UNL     1     -11.698 -27.875 -27.654  1.00  0.00     0.339 A
ATOM     21  H7  UNL     1     -10.871 -29.758 -27.555  1.00  0.00     0.171 HD
HETATM   22  O1  UNL     1     -11.274 -27.573 -28.801  1.00  0.00    -0.246 OA
HETATM   23  N8  UNL     1     -12.455 -26.952 -26.990  1.00  0.00    -0.141 N
ATOM     24  H8  UNL     1     -12.656 -26.054 -27.430  1.00  0.00     0.189 HD
ENDBRANCH  13  15
ENDBRANCH  12  13
ENDBRANCH   4   6
ENDBRANCH   3   4
TORSDOF 4
ENDMDL