MODEL 2
REMARK VINA RESULT: -7.306877528      1.339      1.510
REMARK  5 active torsions:
REMARK  status: ('A' for Active; 'I' for Inactive)
REMARK    1  A    between atoms: N1_1  and  C1_4
REMARK    2  A    between atoms: C5_14  and  C6_15
REMARK    3  A    between atoms: C6_15  and  N5_16
REMARK       I    between atoms: N5_16  and  C7_18
REMARK    4  A    between atoms: C7_18  and  C8_20
REMARK    5  A    between atoms: C8_20  and  N6_21
ROOT
HETATM    1  C1  UNL     1     -12.513 -27.203 -26.057  1.00  0.00     0.130 A
HETATM    2  N2  UNL     1     -12.143 -27.904 -27.137  1.00  0.00    -0.337 N
ATOM      3  H2  UNL     1     -11.150 -28.026 -27.335  1.00  0.00     0.168 HD
HETATM    4  C2  UNL     1     -13.053 -28.452 -27.970  1.00  0.00     0.183 A
HETATM    5  N3  UNL     1     -14.377 -28.336 -27.776  1.00  0.00    -0.337 N
ATOM      6  H3  UNL     1     -15.045 -28.760 -28.419  1.00  0.00     0.168 HD
HETATM    7  C3  UNL     1     -14.795 -27.631 -26.689  1.00  0.00     0.137 A
HETATM    8  N4  UNL     1     -16.124 -27.506 -26.480  1.00  0.00    -0.348 N
ATOM      9  H4  UNL     1     -16.810 -27.922 -27.109  1.00  0.00     0.167 HD
HETATM   10  C4  UNL     1     -16.495 -26.794 -25.381  1.00  0.00     0.116 A
HETATM   11  C5  UNL     1     -15.578 -26.229 -24.525  1.00  0.00     0.043 A
HETATM   12  N7  UNL     1     -14.253 -26.371 -24.760  1.00  0.00    -0.351 N
ATOM     13  H7  UNL     1     -13.565 -25.956 -24.132  1.00  0.00     0.166 HD
HETATM   14  C9  UNL     1     -13.865 -27.069 -25.836  1.00  0.00     0.121 A
ENDROOT
BRANCH  11  15
HETATM   15  C6  UNL     1     -15.989 -25.459 -23.327  1.00  0.00     0.181 C
BRANCH  15  16
HETATM   16  N5  UNL     1     -15.273 -25.881 -22.144  1.00  0.00    -0.354 N
HETATM   17  C7  UNL     1     -14.857 -24.900 -21.233  1.00  0.00     0.243 C
HETATM   18  O1  UNL     1     -15.095 -23.697 -21.434  1.00  0.00    -0.272 OA
ATOM     19  H5  UNL     1     -15.076 -26.868 -21.976  1.00  0.00     0.162 HD
BRANCH  17  20
HETATM   20  C8  UNL     1     -14.124 -25.306 -20.018  1.00  0.00     0.332 C
BRANCH  20  21
HETATM   21  N6  UNL     1     -13.221 -24.285 -19.538  1.00  0.00    -0.071 N
ATOM     22  H63 UNL     1     -13.523 -23.360 -19.841  1.00  0.00     0.274 HD
ATOM     23  H62 UNL     1     -13.308 -24.166 -18.529  1.00  0.00     0.274 HD
ATOM     24  H61 UNL     1     -12.251 -24.458 -19.802  1.00  0.00     0.274 HD
ENDBRANCH  20  21
ENDBRANCH  17  20
ENDBRANCH  15  16
ENDBRANCH  11  15
BRANCH   1  25
HETATM   25  N1  UNL     1     -11.617 -26.690 -25.274  1.00  0.00    -0.383 N
ATOM     26  H12 UNL     1     -10.620 -26.882 -25.372  1.00  0.00     0.157 HD
ATOM     27  H11 UNL     1     -11.894 -26.061 -24.520  1.00  0.00     0.157 HD
ENDBRANCH   1  25
TORSDOF 5
ENDMDL