MODEL 4
REMARK VINA RESULT: -7.430638784      3.698      5.504
REMARK  3 active torsions:
REMARK  status: ('A' for Active; 'I' for Inactive)
REMARK    1  A    between atoms: C2_2  and  C5_15
REMARK    2  A    between atoms: N1_3  and  N2_5
REMARK    3  A    between atoms: N2_5  and  C3_7
ROOT
HETATM    1  C1  UNL     1     -16.727 -27.081 -25.632  1.00  0.00     0.071 C
HETATM    2  C2  UNL     1     -15.284 -27.054 -25.325  1.00  0.00     0.039 C
HETATM    3  N1  UNL     1     -14.877 -26.709 -24.161  1.00  0.00    -0.303 N
ATOM      4  H1  UNL     1     -13.869 -26.708 -24.004  1.00  0.00     0.186 HD
ENDROOT
BRANCH   2   5
HETATM    5  C5  UNL     1     -14.328 -27.420 -26.346  1.00  0.00     0.071 A
HETATM    6  C6  UNL     1     -14.652 -28.259 -27.392  1.00  0.00     0.111 A
HETATM    7  N6  UNL     1     -13.707 -28.541 -28.287  1.00  0.00    -0.318 N
HETATM    8  C7  UNL     1     -12.458 -28.054 -28.225  1.00  0.00     0.327 A
ATOM      9  H6  UNL     1     -13.945 -29.161 -29.062  1.00  0.00     0.170 HD
HETATM   10  O1  UNL     1     -11.601 -28.349 -29.095  1.00  0.00    -0.247 OA
HETATM   11  N7  UNL     1     -12.119 -27.236 -27.218  1.00  0.00    -0.275 N
HETATM   12  C8  UNL     1     -13.047 -26.921 -26.285  1.00  0.00     0.262 A
ATOM     13  H7  UNL     1     -11.175 -26.856 -27.156  1.00  0.00     0.173 HD
HETATM   14  O2  UNL     1     -12.670 -26.149 -25.364  1.00  0.00    -0.267 OA
ENDBRANCH   2   5
BRANCH   3  15
HETATM   15  N2  UNL     1     -15.674 -26.340 -23.104  1.00  0.00    -0.283 N
ATOM     16  H2  UNL     1     -16.628 -26.695 -23.045  1.00  0.00     0.188 HD
BRANCH  15  17
HETATM   17  C3  UNL     1     -15.185 -25.471 -22.096  1.00  0.00     0.152 A
HETATM   18  C4  UNL     1     -15.284 -24.075 -22.079  1.00  0.00     0.159 A
HETATM   19  N3  UNL     1     -14.703 -23.612 -20.959  1.00  0.00    -0.294 N
HETATM   20  N4  UNL     1     -14.265 -24.654 -20.314  1.00  0.00    -0.241 N
ATOM     21  H3  UNL     1     -14.621 -22.637 -20.670  1.00  0.00     0.187 HD
HETATM   22  N5  UNL     1     -14.532 -25.777 -20.956  1.00  0.00    -0.269 N
ATOM     23  H4  UNL     1     -13.775 -24.609 -19.421  1.00  0.00     0.208 HD
ATOM     24  H5  UNL     1     -14.286 -26.716 -20.643  1.00  0.00     0.190 HD
ENDBRANCH  15  17
ENDBRANCH   3  15
TORSDOF 3
ENDMDL