MODEL 2
REMARK VINA RESULT: -7.537620898      0.854      1.029
REMARK  3 active torsions:
REMARK  status: ('A' for Active; 'I' for Inactive)
REMARK    1  A    between atoms: N1_1  and  C1_4
REMARK    2  A    between atoms: N3_8  and  C3_10
REMARK    3  A    between atoms: C3_10  and  C4_11
ROOT
HETATM    1  C1  UNL     1     -13.896 -28.470 -28.077  1.00  0.00     0.693 A
HETATM    2  N2  UNL     1     -14.285 -27.736 -27.022  1.00  0.00    -0.172 N
ATOM      3  H2  UNL     1     -15.244 -27.388 -26.989  1.00  0.00     0.186 HD
HETATM    4  C2  UNL     1     -13.446 -27.442 -26.000  1.00  0.00     0.165 A
HETATM    5  N3  UNL     1     -13.804 -26.739 -24.979  1.00  0.00    -0.367 N
ATOM      6  H3  UNL     1     -13.155 -26.531 -24.220  1.00  0.00     0.161 HD
HETATM    7  C8  UNL     1     -12.159 -27.943 -26.103  1.00  0.00     0.191 A
HETATM    8  N5  UNL     1     -11.110 -27.829 -25.268  1.00  0.00    -0.332 N
ATOM      9  H5  UNL     1     -11.089 -27.330 -24.378  1.00  0.00     0.168 HD
HETATM   10  C9  UNL     1     -10.093 -28.502 -25.837  1.00  0.00     0.201 A
HETATM   11  N6  UNL     1     -10.532 -29.007 -26.990  1.00  0.00    -0.273 N
ATOM     12  H6  UNL     1      -9.970 -29.565 -27.633  1.00  0.00     0.190 HD
HETATM   13  N7  UNL     1     -11.811 -28.677 -27.181  1.00  0.00    -0.161 N
HETATM   14  N8  UNL     1     -12.647 -28.950 -28.166  1.00  0.00    -0.109 N
ATOM     15  H8  UNL     1     -12.352 -29.508 -28.967  1.00  0.00     0.208 HD
ENDROOT
BRANCH   5  16
HETATM   16  C3  UNL     1     -15.171 -26.257 -24.959  1.00  0.00     0.178 C
BRANCH  16  17
HETATM   17  C4  UNL     1     -15.703 -26.184 -23.568  1.00  0.00     0.026 A
HETATM   18  C5  UNL     1     -16.962 -26.581 -23.168  1.00  0.00     0.028 A
HETATM   19  C6  UNL     1     -17.100 -26.366 -21.805  1.00  0.00     0.019 A
HETATM   20  C7  UNL     1     -15.890 -25.831 -21.408  1.00  0.00     0.088 A
HETATM   21  N4  UNL     1     -15.075 -25.733 -22.475  1.00  0.00    -0.368 N
ATOM     22  H4  UNL     1     -14.122 -25.370 -22.453  1.00  0.00     0.165 HD
ENDBRANCH  16  17
ENDBRANCH   5  16
BRANCH   1  23
HETATM   23  N1  UNL     1     -14.716 -28.731 -29.031  1.00  0.00    -0.233 N
ATOM     24  H12 UNL     1     -14.432 -28.508 -29.985  1.00  0.00     0.174 HD
ATOM     25  H11 UNL     1     -15.626 -29.151 -28.836  1.00  0.00     0.174 HD
ENDBRANCH   1  23
TORSDOF 3
ENDMDL