MODEL 3
REMARK VINA RESULT: -7.445701983      0.716      1.294
REMARK  5 active torsions:
REMARK  status: ('A' for Active; 'I' for Inactive)
REMARK    1  A    between atoms: C3_3  and  N1_4
REMARK    2  A    between atoms: C6_9  and  N3_10
REMARK    3  A    between atoms: N3_10  and  N4_12
REMARK    4  A    between atoms: N4_12  and  C7_14
REMARK    5  A    between atoms: C9_19  and  N7_20
ROOT
HETATM    1  C1  UNL     1     -20.719 -27.785 -26.127  1.00  0.00     0.014 C
HETATM    2  C2  UNL     1     -19.734 -28.136 -26.731  1.00  0.00    -0.096 C
HETATM    3  C3  UNL     1     -18.546 -28.583 -27.479  1.00  0.00     0.241 C
ENDROOT
BRANCH   3   4
HETATM    4  N1  UNL     1     -17.323 -28.071 -26.902  1.00  0.00    -0.289 N
HETATM    5  C4  UNL     1     -16.073 -28.226 -27.372  1.00  0.00     0.143 A
HETATM    6  C5  UNL     1     -15.214 -27.574 -26.510  1.00  0.00     0.098 A
HETATM    7  N2  UNL     1     -13.883 -27.410 -26.496  1.00  0.00    -0.186 N
HETATM    8  C10 UNL     1     -16.020 -27.023 -25.505  1.00  0.00     0.121 A
HETATM    9  C6  UNL     1     -13.296 -26.715 -25.517  1.00  0.00     0.698 A
ATOM     10  H2  UNL     1     -13.316 -27.818 -27.239  1.00  0.00     0.184 HD
HETATM   11  N6  UNL     1     -14.056 -26.171 -24.529  1.00  0.00    -0.173 N
HETATM   12  C9  UNL     1     -15.389 -26.314 -24.513  1.00  0.00     0.145 A
ATOM     13  H6  UNL     1     -13.602 -25.641 -23.785  1.00  0.00     0.186 HD
HETATM   14  N8  UNL     1     -17.285 -27.355 -25.794  1.00  0.00    -0.292 N
ATOM     15  H8  UNL     1     -18.100 -27.094 -25.239  1.00  0.00     0.187 HD
BRANCH   9  16
HETATM   16  N3  UNL     1     -12.013 -26.569 -25.523  1.00  0.00    -0.135 N
ATOM     17  H3  UNL     1     -11.627 -25.657 -25.767  1.00  0.00     0.205 HD
BRANCH  16  18
HETATM   18  N4  UNL     1     -11.144 -27.590 -25.214  1.00  0.00    -0.309 N
ATOM     19  H4  UNL     1     -10.948 -27.778 -24.231  1.00  0.00     0.181 HD
BRANCH  18  20
HETATM   20  C7  UNL     1     -10.488 -28.417 -26.218  1.00  0.00     0.263 C
HETATM   21  C8  UNL     1     -10.971 -28.101 -27.560  1.00  0.00     0.080 C
HETATM   22  N5  UNL     1     -11.374 -27.841 -28.626  1.00  0.00    -0.196 NA
ENDBRANCH  18  20
ENDBRANCH  16  18
ENDBRANCH   9  16
BRANCH  12  23
HETATM   23  N7  UNL     1     -16.113 -25.801 -23.580  1.00  0.00    -0.383 N
ATOM     24  H72 UNL     1     -16.602 -26.435 -22.949  1.00  0.00     0.157 HD
ATOM     25  H71 UNL     1     -16.201 -24.792 -23.464  1.00  0.00     0.157 HD
ENDBRANCH  12  23
ENDBRANCH   3   4
TORSDOF 5
ENDMDL