MODEL 3
REMARK VINA RESULT: -6.556815605      1.023      1.868
REMARK  5 active torsions:
REMARK  status: ('A' for Active; 'I' for Inactive)
REMARK    1  A    between atoms: N1_2  and  N2_4
REMARK    2  A    between atoms: N2_4  and  C2_6
REMARK    3  A    between atoms: C4_10  and  C5_11
REMARK    4  A    between atoms: N4_12  and  N5_14
REMARK    5  A    between atoms: C9_20  and  N7_21
ROOT
HETATM    1  C2  UNL     1     -11.712 -27.648 -26.950  1.00  0.00     0.698 A
HETATM    2  N3  UNL     1     -12.449 -28.363 -27.803  1.00  0.00    -0.199 N
ATOM      3  H3  UNL     1     -11.989 -28.905 -28.534  1.00  0.00     0.183 HD
HETATM    4  C3  UNL     1     -13.778 -28.378 -27.714  1.00  0.00     0.122 A
HETATM    5  C4  UNL     1     -14.405 -27.648 -26.729  1.00  0.00     0.041 A
HETATM    6  C9  UNL     1     -13.647 -26.899 -25.833  1.00  0.00     0.127 A
HETATM    7  N8  UNL     1     -12.318 -26.936 -25.989  1.00  0.00    -0.175 N
ATOM      8  H8  UNL     1     -11.738 -26.396 -25.347  1.00  0.00     0.186 HD
ENDROOT
BRANCH   5   9
HETATM    9  C5  UNL     1     -15.853 -27.679 -26.649  1.00  0.00     0.124 C
HETATM   10  N4  UNL     1     -16.423 -28.723 -26.116  1.00  0.00    -0.304 N
ATOM     11  H4  UNL     1     -15.872 -29.505 -25.761  1.00  0.00     0.186 HD
BRANCH  10  12
HETATM   12  N5  UNL     1     -17.815 -28.727 -26.051  1.00  0.00    -0.262 N
HETATM   13  C6  UNL     1     -18.667 -27.682 -26.017  1.00  0.00     0.134 A
HETATM   14  C7  UNL     1     -19.933 -28.203 -25.954  1.00  0.00     0.108 A
HETATM   15  N6  UNL     1     -19.824 -29.537 -25.952  1.00  0.00    -0.359 N
HETATM   16  C8  UNL     1     -18.519 -29.894 -26.011  1.00  0.00     0.205 A
ATOM     17  H6  UNL     1     -20.608 -30.188 -25.912  1.00  0.00     0.166 HD
ENDBRANCH  10  12
ENDBRANCH   5   9
BRANCH   6  18
HETATM   18  N7  UNL     1     -14.246 -26.222 -24.918  1.00  0.00    -0.384 N
ATOM     19  H72 UNL     1     -15.130 -26.497 -24.490  1.00  0.00     0.157 HD
ATOM     20  H71 UNL     1     -13.826 -25.353 -24.587  1.00  0.00     0.157 HD
ENDBRANCH   6  18
BRANCH   1  21
HETATM   21  N2  UNL     1     -10.397 -27.632 -27.038  1.00  0.00    -0.137 N
ATOM     22  H2  UNL     1      -9.927 -27.321 -27.888  1.00  0.00     0.205 HD
BRANCH  21  23
HETATM   23  N1  UNL     1      -9.673 -28.060 -25.922  1.00  0.00    -0.327 N
HETATM   24  C1  UNL     1      -9.747 -29.470 -25.591  1.00  0.00     0.168 C
ATOM     25  H1  UNL     1      -9.118 -27.409 -25.366  1.00  0.00     0.180 HD
ENDBRANCH  21  23
ENDBRANCH   1  21
TORSDOF 5
ENDMDL