MODEL 5
REMARK VINA RESULT: -6.457161301      3.945      5.998
REMARK  4 active torsions:
REMARK  status: ('A' for Active; 'I' for Inactive)
REMARK    1  A    between atoms: N1_1  and  C1_4
REMARK    2  A    between atoms: C3_8  and  C4_9
REMARK       I    between atoms: C4_9  and  N3_11
REMARK    3  A    between atoms: N3_11  and  N4_13
REMARK    4  A    between atoms: C5_15  and  C6_16
ROOT
HETATM    1  C4  UNL     1     -14.281 -27.239 -25.639  1.00  0.00     0.288 C
HETATM    2  O1  UNL     1     -15.101 -27.335 -26.580  1.00  0.00    -0.264 OA
HETATM    3  N3  UNL     1     -14.659 -26.525 -24.478  1.00  0.00    -0.265 N
ATOM      4  H3  UNL     1     -13.996 -26.443 -23.707  1.00  0.00     0.190 HD
ENDROOT
BRANCH   3   5
HETATM    5  N4  UNL     1     -15.907 -25.936 -24.358  1.00  0.00    -0.307 N
HETATM    6  C5  UNL     1     -16.139 -24.844 -23.736  1.00  0.00     0.138 C
ATOM      7  H4  UNL     1     -16.697 -26.407 -24.798  1.00  0.00     0.186 HD
BRANCH   6   8
HETATM    8  C6  UNL     1     -17.491 -24.325 -23.681  1.00  0.00     0.064 A
HETATM    9  C7  UNL     1     -18.575 -25.175 -23.744  1.00  0.00     0.118 A
HETATM   10  N5  UNL     1     -19.813 -24.611 -23.686  1.00  0.00    -0.372 N
HETATM   11  C8  UNL     1     -19.983 -23.280 -23.572  1.00  0.00     0.104 A
ATOM     12  H5  UNL     1     -20.635 -25.214 -23.730  1.00  0.00     0.164 HD
HETATM   13  C9  UNL     1     -18.903 -22.444 -23.510  1.00  0.00     0.105 A
HETATM   14  N6  UNL     1     -17.677 -23.001 -23.567  1.00  0.00    -0.362 N
ATOM     15  H6  UNL     1     -16.860 -22.392 -23.523  1.00  0.00     0.165 HD
ENDBRANCH   6   8
ENDBRANCH   3   5
BRANCH   1  16
HETATM   16  C3  UNL     1     -12.978 -27.868 -25.792  1.00  0.00     0.134 A
HETATM   17  C2  UNL     1     -12.668 -29.020 -26.485  1.00  0.00     0.142 A
HETATM   18  N2  UNL     1     -11.354 -29.245 -26.372  1.00  0.00    -0.200 N
HETATM   19  C1  UNL     1     -10.804 -28.269 -25.622  1.00  0.00     0.676 A
ATOM     20  H2  UNL     1     -10.850 -30.029 -26.786  1.00  0.00     0.183 HD
HETATM   21  N7  UNL     1     -11.803 -27.446 -25.281  1.00  0.00    -0.185 N
ATOM     22  H7  UNL     1     -11.691 -26.608 -24.711  1.00  0.00     0.184 HD
BRANCH  19  23
HETATM   23  N1  UNL     1      -9.537 -28.163 -25.301  1.00  0.00    -0.234 N
ATOM     24  H12 UNL     1      -8.729 -28.331 -25.900  1.00  0.00     0.174 HD
ATOM     25  H11 UNL     1      -9.169 -27.894 -24.389  1.00  0.00     0.174 HD
ENDBRANCH  19  23
ENDBRANCH   1  16
TORSDOF 4
ENDMDL