MODEL 4
REMARK VINA RESULT: -7.010569757      3.193      5.607
REMARK  6 active torsions:
REMARK  status: ('A' for Active; 'I' for Inactive)
REMARK    1  A    between atoms: C2_3  and  O1_4
REMARK    2  A    between atoms: O1_4  and  N2_5
REMARK    3  A    between atoms: N2_5  and  C3_7
REMARK    4  A    between atoms: C3_7  and  N3_8
REMARK    5  A    between atoms: N3_8  and  C4_10
REMARK    6  A    between atoms: C8_22  and  N8_23
ROOT
HETATM    1  N1  UNL     1     -18.497 -22.769 -24.095  1.00  0.00    -0.195 NA
HETATM    2  C1  UNL     1     -17.668 -23.141 -23.355  1.00  0.00     0.087 C
HETATM    3  C2  UNL     1     -16.644 -23.600 -22.413  1.00  0.00     0.324 C
ENDROOT
BRANCH   3   4
HETATM    4  O1  UNL     1     -15.399 -23.526 -23.061  1.00  0.00    -0.266 OA
BRANCH   4   5
HETATM    5  N2  UNL     1     -15.007 -24.365 -24.071  1.00  0.00    -0.261 N
ATOM      6  H2  UNL     1     -14.639 -23.945 -24.924  1.00  0.00     0.195 HD
BRANCH   5   7
HETATM    7  C3  UNL     1     -15.073 -25.640 -24.011  1.00  0.00     0.205 C
BRANCH   7   8
HETATM    8  N3  UNL     1     -14.114 -26.392 -24.743  1.00  0.00    -0.336 N
ATOM      9  H3  UNL     1     -13.144 -26.402 -24.429  1.00  0.00     0.168 HD
BRANCH   8  10
HETATM   10  C4  UNL     1     -14.442 -27.060 -25.795  1.00  0.00     0.124 A
HETATM   11  N4  UNL     1     -15.720 -27.352 -26.092  1.00  0.00    -0.338 N
HETATM   12  C5  UNL     1     -16.056 -28.051 -27.191  1.00  0.00     0.183 A
ATOM     13  H4  UNL     1     -16.458 -27.034 -25.464  1.00  0.00     0.168 HD
HETATM   14  N5  UNL     1     -15.060 -28.457 -28.001  1.00  0.00    -0.338 N
HETATM   15  C6  UNL     1     -13.765 -28.191 -27.750  1.00  0.00     0.124 A
ATOM     16  H5  UNL     1     -15.296 -28.989 -28.839  1.00  0.00     0.168 HD
HETATM   17  N6  UNL     1     -12.764 -28.595 -28.556  1.00  0.00    -0.338 N
HETATM   18  C9  UNL     1     -13.411 -27.476 -26.624  1.00  0.00     0.096 A
HETATM   19  C7  UNL     1     -11.482 -28.295 -28.246  1.00  0.00     0.183 A
ATOM     20  H6  UNL     1     -12.973 -29.128 -29.400  1.00  0.00     0.168 HD
HETATM   21  N7  UNL     1     -11.154 -27.595 -27.143  1.00  0.00    -0.338 N
HETATM   22  C8  UNL     1     -12.111 -27.169 -26.307  1.00  0.00     0.117 A
ATOM     23  H7  UNL     1     -10.175 -27.389 -26.943  1.00  0.00     0.168 HD
BRANCH  22  24
HETATM   24  N8  UNL     1     -11.841 -26.485 -25.222  1.00  0.00    -0.385 N
ATOM     25  H82 UNL     1     -10.888 -26.176 -25.034  1.00  0.00     0.157 HD
ATOM     26  H81 UNL     1     -12.558 -26.240 -24.539  1.00  0.00     0.157 HD
ENDBRANCH  22  24
ENDBRANCH   8  10
ENDBRANCH   7   8
ENDBRANCH   5   7
ENDBRANCH   4   5
ENDBRANCH   3   4
TORSDOF 6
ENDMDL