MODEL 4
REMARK VINA RESULT: -7.516923837      3.617      5.683
REMARK  4 active torsions:
REMARK  status: ('A' for Active; 'I' for Inactive)
REMARK    1  A    between atoms: C5_8  and  N3_9
REMARK       I    between atoms: N3_9  and  C6_11
REMARK    2  A    between atoms: C6_11  and  C7_13
REMARK    3  A    between atoms: C8_14  and  N4_15
REMARK    4  A    between atoms: N4_15  and  C9_17
ROOT
HETATM    1  C7  UNL     1     -16.305 -25.804 -23.600  1.00  0.00     0.092 C
HETATM    2  C8  UNL     1     -15.476 -24.820 -23.319  1.00  0.00     0.112 C
ENDROOT
BRANCH   1   3
HETATM    3  C6  UNL     1     -16.305 -26.474 -24.919  1.00  0.00     0.247 C
HETATM    4  N3  UNL     1     -15.107 -26.952 -25.464  1.00  0.00    -0.321 N
ATOM      5  H3  UNL     1     -14.274 -26.804 -24.895  1.00  0.00     0.169 HD
HETATM    6  O1  UNL     1     -17.414 -26.565 -25.465  1.00  0.00    -0.268 OA
BRANCH   4   7
HETATM    7  C5  UNL     1     -14.898 -27.610 -26.691  1.00  0.00     0.074 A
HETATM    8  C1  UNL     1     -13.601 -27.707 -27.212  1.00  0.00     0.075 A
HETATM    9  N1  UNL     1     -12.535 -27.119 -26.450  1.00  0.00    -0.100 NA
HETATM   10  C2  UNL     1     -13.320 -28.335 -28.403  1.00  0.00     0.046 A
HETATM   11  C3  UNL     1     -14.347 -28.888 -29.114  1.00  0.00     0.089 A
HETATM   12  N2  UNL     1     -15.597 -28.812 -28.643  1.00  0.00    -0.373 N
HETATM   13  C4  UNL     1     -15.873 -28.187 -27.457  1.00  0.00     0.119 A
ATOM     14  H2  UNL     1     -16.359 -29.227 -29.178  1.00  0.00     0.164 HD
ENDBRANCH   4   7
ENDBRANCH   1   3
BRANCH   2  15
HETATM   15  N4  UNL     1     -15.511 -24.210 -22.050  1.00  0.00    -0.199 N
ATOM     16  H4  UNL     1     -16.243 -23.522 -21.875  1.00  0.00     0.183 HD
BRANCH  15  17
HETATM   17  C9  UNL     1     -14.689 -24.460 -21.099  1.00  0.00     0.713 A
HETATM   18  N5  UNL     1     -13.922 -23.591 -20.410  1.00  0.00    -0.115 N
HETATM   19  N6  UNL     1     -13.242 -24.307 -19.533  1.00  0.00    -0.213 N
ATOM     20  H5  UNL     1     -13.876 -22.581 -20.541  1.00  0.00     0.207 HD
HETATM   21  N7  UNL     1     -13.558 -25.565 -19.653  1.00  0.00    -0.213 N
ATOM     22  H6  UNL     1     -12.571 -23.932 -18.862  1.00  0.00     0.210 HD
HETATM   23  N8  UNL     1     -14.447 -25.675 -20.612  1.00  0.00    -0.115 N
ATOM     24  H7  UNL     1     -13.180 -26.331 -19.097  1.00  0.00     0.210 HD
ATOM     25  H8  UNL     1     -14.878 -26.542 -20.930  1.00  0.00     0.207 HD
ENDBRANCH  15  17
ENDBRANCH   2  15
TORSDOF 4
ENDMDL