MODEL 5
REMARK VINA RESULT: -6.928492148      2.803      5.720
REMARK  4 active torsions:
REMARK  status: ('A' for Active; 'I' for Inactive)
REMARK    1  A    between atoms: C2_5  and  C3_6
REMARK    2  A    between atoms: C3_6  and  N2_7
REMARK    3  A    between atoms: N2_7  and  N3_9
REMARK       I    between atoms: N3_9  and  C4_11
REMARK    4  A    between atoms: N6_17  and  C6_18
ROOT
HETATM    1  N1  UNL     1     -15.682 -28.175 -27.152  1.00  0.00    -0.383 N
ATOM      2  H11 UNL     1     -14.930 -28.566 -27.719  1.00  0.00     0.157 HD
ATOM      3  H12 UNL     1     -16.574 -28.293 -27.632  1.00  0.00     0.157 HD
HETATM    4  C1  UNL     1     -15.500 -27.622 -26.003  1.00  0.00     0.136 A
HETATM    5  C2  UNL     1     -16.530 -27.085 -25.225  1.00  0.00     0.043 A
HETATM    6  C5  UNL     1     -15.904 -26.604 -24.098  1.00  0.00     0.124 A
HETATM    7  N5  UNL     1     -14.594 -26.856 -24.233  1.00  0.00    -0.301 N
ATOM      8  H5  UNL     1     -13.890 -26.604 -23.538  1.00  0.00     0.186 HD
HETATM    9  N6  UNL     1     -14.321 -27.466 -25.369  1.00  0.00    -0.222 N
ENDROOT
BRANCH   5  10
HETATM   10  C3  UNL     1     -17.942 -27.050 -25.547  1.00  0.00     0.124 C
BRANCH  10  11
HETATM   11  N2  UNL     1     -18.621 -27.948 -26.108  1.00  0.00    -0.307 N
ATOM     12  H2  UNL     1     -19.081 -27.658 -26.972  1.00  0.00     0.186 HD
BRANCH  11  13
HETATM   13  N3  UNL     1     -18.844 -29.254 -25.749  1.00  0.00    -0.254 N
HETATM   14  C4  UNL     1     -18.514 -30.320 -26.625  1.00  0.00     0.347 C
HETATM   15  N4  UNL     1     -18.726 -31.684 -26.300  1.00  0.00    -0.038 NA
HETATM   16  O1  UNL     1     -18.013 -30.051 -27.740  1.00  0.00    -0.249 OA
ATOM     17  H3  UNL     1     -19.254 -29.461 -24.838  1.00  0.00     0.191 HD
ENDBRANCH  11  13
ENDBRANCH  10  11
ENDBRANCH   5  10
BRANCH   9  18
HETATM   18  C6  UNL     1     -13.040 -27.886 -25.848  1.00  0.00     0.143 A
HETATM   19  C7  UNL     1     -12.463 -27.335 -26.967  1.00  0.00     0.053 A
HETATM   20  C8  UNL     1     -11.226 -27.806 -27.349  1.00  0.00     0.022 A
HETATM   21  C9  UNL     1     -10.598 -28.796 -26.629  1.00  0.00     0.107 A
HETATM   22  N7  UNL     1     -11.202 -29.299 -25.547  1.00  0.00    -0.310 N
HETATM   23  N8  UNL     1     -12.377 -28.847 -25.189  1.00  0.00    -0.284 N
ATOM     24  H7  UNL     1     -10.748 -30.033 -25.002  1.00  0.00     0.186 HD
ATOM     25  H8  UNL     1     -12.814 -29.250 -24.360  1.00  0.00     0.188 HD
ENDBRANCH   9  18
TORSDOF 4
ENDMDL