MODEL 5
REMARK VINA RESULT: -7.408769732      4.149      6.409
REMARK  4 active torsions:
REMARK  status: ('A' for Active; 'I' for Inactive)
REMARK    1  A    between atoms: C1_4  and  C2_6
REMARK    2  A    between atoms: C5_9  and  C6_10
REMARK    3  A    between atoms: N3_11  and  N4_13
REMARK    4  A    between atoms: N4_13  and  C7_15
ROOT
HETATM    1  C6  UNL     1     -14.012 -27.784 -27.176  1.00  0.00     0.137 C
HETATM    2  N3  UNL     1     -13.410 -28.738 -27.782  1.00  0.00    -0.295 N
ATOM      3  H3  UNL     1     -13.958 -29.549 -28.070  1.00  0.00     0.186 HD
ENDROOT
BRANCH   1   4
HETATM    4  C5  UNL     1     -15.426 -27.846 -26.902  1.00  0.00     0.049 A
HETATM    5  C4  UNL     1     -16.248 -28.527 -27.778  1.00  0.00     0.032 A
HETATM    6  C3  UNL     1     -17.593 -28.569 -27.492  1.00  0.00     0.018 A
HETATM    7  C2  UNL     1     -18.088 -27.950 -26.371  1.00  0.00     0.020 A
HETATM    8  C8  UNL     1     -17.233 -27.284 -25.528  1.00  0.00     0.103 A
HETATM    9  N9  UNL     1     -15.934 -27.247 -25.809  1.00  0.00    -0.364 N
ATOM     10  H9  UNL     1     -15.304 -26.751 -25.178  1.00  0.00     0.165 HD
BRANCH   7  11
HETATM   11  C1  UNL     1     -19.535 -28.021 -26.104  1.00  0.00     0.121 C
HETATM   12  N1  UNL     1     -20.128 -26.991 -25.610  1.00  0.00    -0.387 N
ATOM     13  H12 UNL     1     -21.130 -27.040 -25.425  1.00  0.00     0.157 HD
ATOM     14  H11 UNL     1     -19.615 -26.134 -25.404  1.00  0.00     0.157 HD
HETATM   15  N2  UNL     1     -20.248 -29.211 -26.390  1.00  0.00    -0.082 NA
ENDBRANCH   7  11
ENDBRANCH   1   4
BRANCH   2  16
HETATM   16  N4  UNL     1     -12.046 -28.724 -28.069  1.00  0.00    -0.130 N
ATOM     17  H4  UNL     1     -11.715 -28.760 -29.034  1.00  0.00     0.205 HD
BRANCH  16  18
HETATM   18  C7  UNL     1     -11.214 -28.667 -27.092  1.00  0.00     0.728 A
HETATM   19  N5  UNL     1     -11.045 -29.588 -26.153  1.00  0.00    -0.114 N
HETATM   20  N6  UNL     1     -10.103 -29.161 -25.333  1.00  0.00    -0.213 N
ATOM     21  H5  UNL     1     -11.553 -30.469 -26.077  1.00  0.00     0.207 HD
HETATM   22  N7  UNL     1      -9.681 -27.982 -25.752  1.00  0.00    -0.213 N
ATOM     23  H6  UNL     1      -9.757 -29.659 -24.513  1.00  0.00     0.210 HD
HETATM   24  N8  UNL     1     -10.357 -27.669 -26.832  1.00  0.00    -0.114 N
ATOM     25  H7  UNL     1      -8.957 -27.414 -25.312  1.00  0.00     0.210 HD
ATOM     26  H8  UNL     1     -10.249 -26.815 -27.379  1.00  0.00     0.207 HD
ENDBRANCH  16  18
ENDBRANCH   2  16
TORSDOF 4
ENDMDL