MODEL 1
REMARK VINA RESULT: -5.712534353      0.000      0.000
REMARK  5 active torsions:
REMARK  status: ('A' for Active; 'I' for Inactive)
REMARK    1  A    between atoms: N1_1  and  C1_4
REMARK    2  A    between atoms: C3_10  and  N4_11
REMARK    3  A    between atoms: N4_11  and  O1_12
REMARK    4  A    between atoms: N4_11  and  C4_14
REMARK    5  A    between atoms: C5_16  and  N5_17
ROOT
HETATM    1  C1  UNL     1     -15.491 -26.198 -24.669  1.00  0.00     0.130 A
HETATM    2  N2  UNL     1     -16.505 -25.494 -24.140  1.00  0.00    -0.337 N
ATOM      3  H2  UNL     1     -16.299 -24.680 -23.562  1.00  0.00     0.168 HD
HETATM    4  C2  UNL     1     -17.789 -25.841 -24.358  1.00  0.00     0.183 A
HETATM    5  N3  UNL     1     -18.062 -26.911 -25.117  1.00  0.00    -0.335 N
ATOM      6  H3  UNL     1     -19.039 -27.162 -25.272  1.00  0.00     0.168 HD
HETATM    7  C3  UNL     1     -17.086 -27.685 -25.696  1.00  0.00     0.167 A
HETATM    8  C5  UNL     1     -15.797 -27.309 -25.459  1.00  0.00     0.121 A
ENDROOT
BRANCH   8   9
HETATM    9  N5  UNL     1     -14.718 -28.032 -26.006  1.00  0.00    -0.372 N
HETATM   10  C6  UNL     1     -14.017 -28.953 -25.138  1.00  0.00     0.150 C
HETATM   11  C7  UNL     1     -12.759 -29.515 -25.679  1.00  0.00     0.252 C
HETATM   12  N6  UNL     1     -12.478 -29.297 -27.052  1.00  0.00    -0.072 N
HETATM   13  C8  UNL     1     -12.779 -27.895 -27.377  1.00  0.00     0.252 C
ATOM     14  H62 UNL     1     -11.524 -29.560 -27.301  1.00  0.00     0.277 HD
ATOM     15  H61 UNL     1     -12.968 -29.954 -27.660  1.00  0.00     0.277 HD
HETATM   16  C9  UNL     1     -14.318 -27.844 -27.396  1.00  0.00     0.150 C
ENDBRANCH   8   9
BRANCH   1  17
HETATM   17  N1  UNL     1     -14.258 -25.910 -24.491  1.00  0.00    -0.383 N
ATOM     18  H12 UNL     1     -13.911 -25.866 -23.533  1.00  0.00     0.157 HD
ATOM     19  H11 UNL     1     -13.604 -25.722 -25.251  1.00  0.00     0.157 HD
ENDBRANCH   1  17
BRANCH   7  20
HETATM   20  N4  UNL     1     -17.424 -28.795 -26.491  1.00  0.00    -0.179 N
BRANCH  20  21
HETATM   21  O1  UNL     1     -17.424 -30.019 -25.926  1.00  0.00    -0.279 OA
ATOM     22  H1  UNL     1     -18.092 -30.223 -25.282  1.00  0.00     0.245 HD
ENDBRANCH  20  21
BRANCH  20  23
HETATM   23  C4  UNL     1     -17.752 -28.707 -27.873  1.00  0.00     0.383 C
HETATM   24  O2  UNL     1     -17.555 -29.709 -28.634  1.00  0.00    -0.281 OA
ENDBRANCH  20  23
ENDBRANCH   7  20
TORSDOF 5
ENDMDL