MODEL 4
REMARK VINA RESULT: -7.321799908      2.086      6.396
REMARK  3 active torsions:
REMARK  status: ('A' for Active; 'I' for Inactive)
REMARK    1  A    between atoms: C2_3  and  C3_4
REMARK    2  A    between atoms: C6_11  and  N4_12
REMARK    3  A    between atoms: N4_12  and  N5_14
REMARK       I    between atoms: N5_14  and  C7_16
ROOT
HETATM    1  C1  UNL     1     -14.112 -29.034 -29.063  1.00  0.00     0.158 C
HETATM    2  N1  UNL     1     -14.174 -28.310 -27.825  1.00  0.00    -0.331 N
HETATM    3  C2  UNL     1     -13.123 -27.816 -27.151  1.00  0.00     0.174 A
HETATM    4  N3  UNL     1     -13.599 -27.213 -26.047  1.00  0.00    -0.336 N
ATOM      5  H3  UNL     1     -13.038 -26.743 -25.335  1.00  0.00     0.168 HD
HETATM    6  C4  UNL     1     -14.944 -27.336 -26.040  1.00  0.00     0.063 A
HETATM    7  C5  UNL     1     -15.947 -26.926 -25.182  1.00  0.00     0.062 A
HETATM    8  C6  UNL     1     -17.266 -27.204 -25.443  1.00  0.00     0.050 A
HETATM    9  C8  UNL     1     -17.636 -27.902 -26.574  1.00  0.00     0.033 A
HETATM   10  C9  UNL     1     -16.651 -28.315 -27.435  1.00  0.00     0.034 A
HETATM   11  C10 UNL     1     -15.333 -28.032 -27.166  1.00  0.00     0.062 A
ENDROOT
BRANCH   8  12
HETATM   12  N4  UNL     1     -18.291 -26.772 -24.542  1.00  0.00    -0.297 N
ATOM     13  H4  UNL     1     -19.207 -26.494 -24.898  1.00  0.00     0.187 HD
BRANCH  12  14
HETATM   14  N5  UNL     1     -18.027 -26.735 -23.179  1.00  0.00    -0.254 N
HETATM   15  C7  UNL     1     -18.233 -27.881 -22.374  1.00  0.00     0.347 C
HETATM   16  N6  UNL     1     -17.948 -27.796 -20.987  1.00  0.00    -0.038 NA
HETATM   17  O2  UNL     1     -18.661 -28.926 -22.918  1.00  0.00    -0.249 OA
ATOM     18  H5  UNL     1     -17.681 -25.874 -22.755  1.00  0.00     0.191 HD
ENDBRANCH  12  14
ENDBRANCH   8  12
BRANCH   3  19
HETATM   19  C3  UNL     1     -11.732 -27.939 -27.582  1.00  0.00     0.299 C
HETATM   20  N2  UNL     1     -10.874 -28.872 -26.941  1.00  0.00    -0.054 NA
HETATM   21  O1  UNL     1     -11.268 -27.237 -28.512  1.00  0.00    -0.268 OA
ENDBRANCH   3  19
TORSDOF 3
ENDMDL