MODEL 3
REMARK VINA RESULT: -7.146753938      1.727      3.745
REMARK  4 active torsions:
REMARK  status: ('A' for Active; 'I' for Inactive)
REMARK    1  A    between atoms: C3_3  and  O1_4
REMARK    2  A    between atoms: O1_4  and  C4_5
REMARK    3  A    between atoms: C5_8  and  N2_9
REMARK    4  A    between atoms: C7_15  and  C8_16
ROOT
HETATM    1  C1  UNL     1     -15.359 -23.345 -24.084  1.00  0.00     0.014 C
HETATM    2  C2  UNL     1     -15.611 -24.523 -24.045  1.00  0.00    -0.091 C
HETATM    3  C3  UNL     1     -15.891 -25.959 -23.996  1.00  0.00     0.270 C
ENDROOT
BRANCH   3   4
HETATM    4  O1  UNL     1     -15.306 -26.656 -25.076  1.00  0.00    -0.323 OA
BRANCH   4   5
HETATM    5  C4  UNL     1     -16.134 -27.327 -25.955  1.00  0.00     0.170 A
HETATM    6  N1  UNL     1     -17.461 -27.403 -25.709  1.00  0.00    -0.170 N
HETATM    7  C5  UNL     1     -18.298 -28.041 -26.528  1.00  0.00     0.677 A
ATOM      8  H1  UNL     1     -17.835 -26.958 -24.871  1.00  0.00     0.186 HD
HETATM    9  N3  UNL     1     -17.807 -28.617 -27.617  1.00  0.00    -0.201 N
HETATM   10  C6  UNL     1     -16.517 -28.577 -27.913  1.00  0.00     0.122 A
ATOM     11  H3  UNL     1     -18.443 -29.106 -28.246  1.00  0.00     0.183 HD
HETATM   12  C7  UNL     1     -15.616 -27.918 -27.075  1.00  0.00     0.034 A
BRANCH   7  13
HETATM   13  N2  UNL     1     -19.565 -28.101 -26.267  1.00  0.00    -0.234 N
ATOM     14  H22 UNL     1     -19.902 -27.996 -25.310  1.00  0.00     0.174 HD
ATOM     15  H21 UNL     1     -20.245 -28.253 -27.011  1.00  0.00     0.174 HD
ENDBRANCH   7  13
BRANCH  12  16
HETATM   16  C8  UNL     1     -14.224 -27.866 -27.417  1.00  0.00     0.051 C
HETATM   17  C9  UNL     1     -13.300 -28.536 -26.713  1.00  0.00     0.089 A
HETATM   18  N4  UNL     1     -13.485 -29.362 -25.574  1.00  0.00    -0.281 N
HETATM   19  C10 UNL     1     -11.868 -28.566 -26.976  1.00  0.00     0.157 A
HETATM   20  N5  UNL     1     -12.205 -29.850 -25.195  1.00  0.00    -0.021 NA
ATOM     21  H4  UNL     1     -14.372 -29.567 -25.114  1.00  0.00     0.184 HD
HETATM   22  N6  UNL     1     -11.280 -29.325 -26.088  1.00  0.00    -0.270 N
ATOM     23  H6  UNL     1     -10.277 -29.507 -26.056  1.00  0.00     0.185 HD
HETATM   24  N7  UNL     1     -11.247 -27.866 -28.050  1.00  0.00    -0.079 NA
ENDBRANCH  12  16
ENDBRANCH   4   5
ENDBRANCH   3   4
TORSDOF 4
ENDMDL