MODEL 4
REMARK VINA RESULT: -7.245236950      2.764      4.241
REMARK  4 active torsions:
REMARK  status: ('A' for Active; 'I' for Inactive)
REMARK    1  A    between atoms: C3_3  and  O1_4
REMARK    2  A    between atoms: O1_4  and  C4_5
REMARK    3  A    between atoms: C4_5  and  N1_6
REMARK    4  A    between atoms: C7_11  and  N3_12
ROOT
HETATM    1  C1  UNL     1     -18.714 -32.072 -28.932  1.00  0.00     0.014 C
HETATM    2  C2  UNL     1     -18.929 -31.225 -28.094  1.00  0.00    -0.091 C
HETATM    3  C3  UNL     1     -19.199 -30.209 -27.078  1.00  0.00     0.262 C
ENDROOT
BRANCH   3   4
HETATM    4  O1  UNL     1     -18.037 -29.573 -26.650  1.00  0.00    -0.360 OA
BRANCH   4   5
HETATM    5  C4  UNL     1     -17.708 -28.489 -27.467  1.00  0.00     0.302 C
BRANCH   5   6
HETATM    6  N1  UNL     1     -16.262 -28.443 -27.554  1.00  0.00    -0.306 N
HETATM    7  C5  UNL     1     -15.703 -28.873 -28.699  1.00  0.00     0.187 A
HETATM    8  N2  UNL     1     -14.376 -28.863 -28.880  1.00  0.00    -0.347 N
HETATM    9  C6  UNL     1     -13.584 -28.420 -27.915  1.00  0.00     0.109 A
ATOM     10  H2  UNL     1     -13.977 -29.194 -29.758  1.00  0.00     0.167 HD
HETATM   11  C7  UNL     1     -12.203 -28.415 -28.117  1.00  0.00     0.144 A
HETATM   12  C9  UNL     1     -14.082 -27.966 -26.716  1.00  0.00     0.123 A
HETATM   13  N4  UNL     1     -11.454 -27.954 -27.099  1.00  0.00    -0.175 N
HETATM   14  C8  UNL     1     -11.969 -27.516 -25.938  1.00  0.00     0.678 A
ATOM     15  H4  UNL     1     -10.441 -27.936 -27.214  1.00  0.00     0.186 HD
HETATM   16  N5  UNL     1     -11.172 -27.092 -25.020  1.00  0.00    -0.234 N
HETATM   17  N6  UNL     1     -13.321 -27.515 -25.727  1.00  0.00    -0.186 N
ATOM     18  H52 UNL     1     -10.164 -27.092 -25.178  1.00  0.00     0.174 HD
ATOM     19  H51 UNL     1     -11.563 -26.759 -24.138  1.00  0.00     0.174 HD
ATOM     20  H6  UNL     1     -13.724 -27.184 -24.850  1.00  0.00     0.184 HD
HETATM   21  C10 UNL     1     -15.478 -27.995 -26.569  1.00  0.00     0.134 A
HETATM   22  N7  UNL     1     -15.993 -27.591 -25.466  1.00  0.00    -0.383 N
ATOM     23  H72 UNL     1     -17.008 -27.612 -25.359  1.00  0.00     0.157 HD
ATOM     24  H71 UNL     1     -15.395 -27.248 -24.714  1.00  0.00     0.157 HD
BRANCH  11  25
HETATM   25  N3  UNL     1     -11.665 -28.826 -29.214  1.00  0.00    -0.383 N
ATOM     26  H32 UNL     1     -11.250 -29.755 -29.287  1.00  0.00     0.157 HD
ATOM     27  H31 UNL     1     -11.628 -28.248 -30.054  1.00  0.00     0.157 HD
ENDBRANCH  11  25
ENDBRANCH   5   6
ENDBRANCH   4   5
ENDBRANCH   3   4
TORSDOF 4
ENDMDL