MODEL 4
REMARK VINA RESULT: -6.976710128      2.784      5.670
REMARK  3 active torsions:
REMARK  status: ('A' for Active; 'I' for Inactive)
REMARK    1  A    between atoms: C2_5  and  N2_6
REMARK    2  A    between atoms: N2_6  and  C3_8
REMARK    3  A    between atoms: C6_15  and  N5_16
ROOT
HETATM    1  O1  UNL     1     -17.076 -29.168 -28.466  1.00  0.00    -0.247 OA
HETATM    2  C1  UNL     1     -16.871 -28.431 -27.470  1.00  0.00     0.328 A
HETATM    3  N1  UNL     1     -15.609 -28.046 -27.132  1.00  0.00    -0.292 N
ATOM      4  H1  UNL     1     -14.816 -28.358 -27.693  1.00  0.00     0.172 HD
HETATM    5  C2  UNL     1     -15.406 -27.267 -26.079  1.00  0.00     0.151 A
HETATM    6  C6  UNL     1     -16.483 -26.846 -25.325  1.00  0.00     0.214 A
HETATM    7  C7  UNL     1     -17.741 -27.258 -25.701  1.00  0.00     0.286 A
HETATM    8  O4  UNL     1     -18.712 -26.865 -25.001  1.00  0.00    -0.265 OA
HETATM    9  N6  UNL     1     -17.955 -28.052 -26.771  1.00  0.00    -0.273 N
ATOM     10  H6  UNL     1     -18.894 -28.349 -27.038  1.00  0.00     0.173 HD
ENDROOT
BRANCH   5  11
HETATM   11  N2  UNL     1     -14.125 -26.856 -25.712  1.00  0.00    -0.312 N
ATOM     12  H2  UNL     1     -14.042 -26.001 -25.162  1.00  0.00     0.170 HD
BRANCH  11  13
HETATM   13  C3  UNL     1     -12.910 -27.550 -26.052  1.00  0.00     0.176 C
HETATM   14  N3  UNL     1     -12.382 -28.471 -25.344  1.00  0.00    -0.361 N
HETATM   15  C4  UNL     1     -11.182 -28.947 -25.970  1.00  0.00     0.142 C
ATOM     16  H3  UNL     1     -12.759 -28.817 -24.462  1.00  0.00     0.162 HD
HETATM   17  C5  UNL     1     -10.849 -27.894 -27.014  1.00  0.00     0.142 C
HETATM   18  N4  UNL     1     -12.149 -27.308 -27.223  1.00  0.00    -0.361 N
ATOM     19  H4  UNL     1     -12.462 -26.812 -28.057  1.00  0.00     0.162 HD
ENDBRANCH  11  13
ENDBRANCH   5  11
BRANCH   6  20
HETATM   20  N5  UNL     1     -16.240 -26.013 -24.201  1.00  0.00    -0.106 N
HETATM   21  O2  UNL     1     -16.342 -24.771 -24.364  1.00  0.00    -0.531 OA
HETATM   22  O3  UNL     1     -15.902 -26.515 -22.965  1.00  0.00    -0.531 OA
ENDBRANCH   6  20
TORSDOF 3
ENDMDL