MODEL 3
REMARK VINA RESULT: -7.473999976      2.322      5.807
REMARK  3 active torsions:
REMARK  status: ('A' for Active; 'I' for Inactive)
REMARK       I    between atoms: C2_2  and  N1_4
REMARK    1  A    between atoms: N1_4  and  C3_6
REMARK    2  A    between atoms: C5_12  and  C6_13
REMARK    3  A    between atoms: N4_14  and  C7_16
ROOT
HETATM    1  C3  UNL     1     -16.577 -26.416 -23.932  1.00  0.00     0.137 A
HETATM    2  N2  UNL     1     -17.084 -26.298 -22.698  1.00  0.00    -0.337 N
ATOM      3  H2  UNL     1     -18.069 -26.413 -22.461  1.00  0.00     0.168 HD
HETATM    4  C4  UNL     1     -16.111 -26.006 -21.817  1.00  0.00     0.182 A
HETATM    5  N3  UNL     1     -14.959 -25.937 -22.502  1.00  0.00    -0.348 N
ATOM      6  H3  UNL     1     -14.041 -25.732 -22.107  1.00  0.00     0.167 HD
HETATM    7  C5  UNL     1     -15.225 -26.189 -23.820  1.00  0.00     0.093 A
ENDROOT
BRANCH   7   8
HETATM    8  C6  UNL     1     -14.262 -26.213 -24.908  1.00  0.00     0.139 C
HETATM    9  N4  UNL     1     -13.665 -27.336 -25.179  1.00  0.00    -0.198 N
ATOM     10  H4  UNL     1     -13.896 -28.156 -24.618  1.00  0.00     0.183 HD
BRANCH   9  11
HETATM   11  C7  UNL     1     -12.714 -27.477 -26.210  1.00  0.00     0.700 A
HETATM   12  N5  UNL     1     -11.477 -26.978 -26.242  1.00  0.00    -0.128 N
HETATM   13  N6  UNL     1     -10.884 -27.322 -27.379  1.00  0.00    -0.237 N
ATOM     14  H5  UNL     1     -11.051 -26.416 -25.504  1.00  0.00     0.205 HD
HETATM   15  C8  UNL     1     -11.785 -28.051 -28.061  1.00  0.00     0.353 A
ATOM     16  H6  UNL     1      -9.938 -27.083 -27.675  1.00  0.00     0.192 HD
HETATM   17  O2  UNL     1     -11.535 -28.541 -29.204  1.00  0.00    -0.245 OA
HETATM   18  N7  UNL     1     -12.908 -28.148 -27.347  1.00  0.00    -0.139 N
ATOM     19  H7  UNL     1     -13.757 -28.642 -27.620  1.00  0.00     0.189 HD
ENDBRANCH   9  11
ENDBRANCH   7   8
BRANCH   1  20
HETATM   20  N1  UNL     1     -17.253 -26.717 -25.161  1.00  0.00    -0.311 N
HETATM   21  C2  UNL     1     -17.176 -28.004 -25.755  1.00  0.00     0.219 C
HETATM   22  C1  UNL     1     -17.886 -28.284 -27.025  1.00  0.00     0.117 C
HETATM   23  O1  UNL     1     -16.514 -28.945 -25.243  1.00  0.00    -0.274 OA
ATOM     24  H1  UNL     1     -17.802 -25.989 -25.618  1.00  0.00     0.170 HD
ENDBRANCH   1  20
TORSDOF 3
ENDMDL