MODEL 3
REMARK VINA RESULT: -6.723364966      4.652      7.058
REMARK  4 active torsions:
REMARK  status: ('A' for Active; 'I' for Inactive)
REMARK    1  A    between atoms: C1_4  and  C2_6
REMARK    2  A    between atoms: C3_9  and  C4_10
REMARK    3  A    between atoms: N4_11  and  N5_13
REMARK    4  A    between atoms: N5_13  and  C5_15
ROOT
HETATM    1  C4  UNL     1     -16.650 -28.152 -26.979  1.00  0.00     0.137 C
HETATM    2  N4  UNL     1     -16.900 -28.744 -28.070  1.00  0.00    -0.295 N
ATOM      3  H4  UNL     1     -16.117 -28.900 -28.704  1.00  0.00     0.186 HD
ENDROOT
BRANCH   1   4
HETATM    4  C3  UNL     1     -15.269 -27.712 -26.654  1.00  0.00     0.056 A
HETATM    5  N3  UNL     1     -14.266 -28.008 -27.413  1.00  0.00    -0.346 N
HETATM    6  C2  UNL     1     -13.049 -27.603 -27.099  1.00  0.00     0.115 A
ATOM      7  H3  UNL     1     -14.415 -28.557 -28.259  1.00  0.00     0.167 HD
HETATM    8  S1  UNL     1     -13.324 -26.748 -25.639  1.00  0.00    -0.079 SA
HETATM    9  C7  UNL     1     -15.012 -26.970 -25.525  1.00  0.00     0.082 A
BRANCH   6  10
HETATM   10  C1  UNL     1     -11.782 -27.819 -27.805  1.00  0.00     0.144 C
HETATM   11  N1  UNL     1     -10.702 -27.408 -27.277  1.00  0.00    -0.385 N
ATOM     12  H12 UNL     1      -9.820 -27.558 -27.768  1.00  0.00     0.157 HD
ATOM     13  H11 UNL     1     -10.696 -26.931 -26.375  1.00  0.00     0.157 HD
HETATM   14  N2  UNL     1     -11.790 -28.472 -29.039  1.00  0.00    -0.080 NA
ENDBRANCH   6  10
ENDBRANCH   1   4
BRANCH   2  15
HETATM   15  N5  UNL     1     -18.132 -29.195 -28.474  1.00  0.00    -0.131 N
ATOM     16  H5  UNL     1     -18.771 -28.567 -28.961  1.00  0.00     0.205 HD
BRANCH  15  17
HETATM   17  C5  UNL     1     -18.478 -30.405 -28.238  1.00  0.00     0.712 A
HETATM   18  N6  UNL     1     -18.938 -30.936 -27.075  1.00  0.00    -0.184 N
HETATM   19  C6  UNL     1     -19.191 -32.243 -27.232  1.00  0.00     0.215 A
ATOM     20  H6  UNL     1     -19.072 -30.416 -26.208  1.00  0.00     0.185 HD
HETATM   21  N7  UNL     1     -18.884 -32.525 -28.507  1.00  0.00    -0.281 N
HETATM   22  N8  UNL     1     -18.462 -31.437 -29.101  1.00  0.00    -0.130 N
ATOM     23  H7  UNL     1     -18.967 -33.443 -28.945  1.00  0.00     0.188 HD
ATOM     24  H8  UNL     1     -18.165 -31.380 -30.075  1.00  0.00     0.205 HD
ENDBRANCH  15  17
ENDBRANCH   2  15
TORSDOF 4
ENDMDL