MODEL 1
REMARK VINA RESULT: -7.254480444      0.000      0.000
REMARK  4 active torsions:
REMARK  status: ('A' for Active; 'I' for Inactive)
REMARK    1  A    between atoms: N1_1  and  C1_4
REMARK    2  A    between atoms: C3_9  and  C4_10
REMARK    3  A    between atoms: C5_11  and  C6_12
REMARK    4  A    between atoms: C6_12  and  N4_13
ROOT
HETATM    1  C1  UNL     1     -12.760 -27.056 -25.743  1.00  0.00     0.680 A
HETATM    2  N2  UNL     1     -12.947 -27.841 -26.826  1.00  0.00    -0.178 N
ATOM      3  H2  UNL     1     -12.127 -28.176 -27.334  1.00  0.00     0.185 HD
HETATM    4  C2  UNL     1     -14.156 -28.196 -27.260  1.00  0.00     0.147 A
HETATM    5  N3  UNL     1     -14.330 -29.028 -28.409  1.00  0.00    -0.081 NA
HETATM    6  C3  UNL     1     -15.312 -27.756 -26.587  1.00  0.00     0.074 A
HETATM    7  C9  UNL     1     -15.066 -26.960 -25.490  1.00  0.00     0.273 A
HETATM    8  O1  UNL     1     -16.043 -26.503 -24.804  1.00  0.00    -0.267 OA
HETATM    9  N7  UNL     1     -13.826 -26.609 -25.066  1.00  0.00    -0.156 N
ATOM     10  H7  UNL     1     -13.707 -26.015 -24.244  1.00  0.00     0.187 HD
ENDROOT
BRANCH   6  11
HETATM   11  C4  UNL     1     -16.617 -28.147 -27.064  1.00  0.00     0.018 C
HETATM   12  C5  UNL     1     -17.546 -28.835 -26.475  1.00  0.00    -0.004 C
BRANCH  12  13
HETATM   13  C6  UNL     1     -18.846 -29.123 -27.177  1.00  0.00     0.177 C
BRANCH  13  14
HETATM   14  N4  UNL     1     -18.807 -30.490 -27.691  1.00  0.00    -0.283 N
HETATM   15  C7  UNL     1     -19.119 -31.588 -26.977  1.00  0.00     0.201 A
HETATM   16  N5  UNL     1     -18.969 -32.674 -27.775  1.00  0.00    -0.346 N
HETATM   17  C8  UNL     1     -18.563 -32.250 -28.987  1.00  0.00     0.198 A
ATOM     18  H5  UNL     1     -19.134 -33.643 -27.504  1.00  0.00     0.167 HD
HETATM   19  N6  UNL     1     -18.478 -30.913 -28.887  1.00  0.00    -0.293 N
ATOM     20  H6  UNL     1     -18.192 -30.300 -29.650  1.00  0.00     0.188 HD
ENDBRANCH  13  14
ENDBRANCH  12  13
ENDBRANCH   6  11
BRANCH   1  21
HETATM   21  N1  UNL     1     -11.588 -26.739 -25.362  1.00  0.00    -0.234 N
ATOM     22  H12 UNL     1     -10.777 -27.098 -25.864  1.00  0.00     0.174 HD
ATOM     23  H11 UNL     1     -11.448 -26.129 -24.557  1.00  0.00     0.174 HD
ENDBRANCH   1  21
TORSDOF 4
ENDMDL