MODEL 1
REMARK VINA RESULT: -6.029725995      0.000      0.000
REMARK  3 active torsions:
REMARK  status: ('A' for Active; 'I' for Inactive)
REMARK    1  A    between atoms: C2_5  and  C3_6
REMARK       I    between atoms: C3_6  and  N3_8
REMARK    2  A    between atoms: N3_8  and  N4_10
REMARK    3  A    between atoms: C5_17  and  N6_18
ROOT
HETATM    1  C1  UNL     1     -16.153 -25.254 -24.396  1.00  0.00     0.197 C
HETATM    2  N1  UNL     1     -15.588 -26.391 -25.069  1.00  0.00    -0.128 N
HETATM    3  N2  UNL     1     -14.283 -26.392 -25.264  1.00  0.00    -0.275 N
ATOM      4  H2  UNL     1     -13.736 -25.598 -24.933  1.00  0.00     0.188 HD
HETATM    5  C2  UNL     1     -13.654 -27.398 -25.878  1.00  0.00     0.187 A
HETATM    6  C4  UNL     1     -14.411 -28.455 -26.315  1.00  0.00     0.293 A
HETATM    7  O2  UNL     1     -13.830 -29.417 -26.899  1.00  0.00    -0.265 OA
HETATM    8  N5  UNL     1     -15.726 -28.449 -26.116  1.00  0.00    -0.153 N
ATOM      9  H5  UNL     1     -16.283 -29.239 -26.443  1.00  0.00     0.187 HD
HETATM   10  C5  UNL     1     -16.339 -27.429 -25.496  1.00  0.00     0.695 A
ENDROOT
BRANCH   5  11
HETATM   11  C3  UNL     1     -12.209 -27.373 -26.080  1.00  0.00     0.293 C
HETATM   12  O1  UNL     1     -11.769 -26.812 -27.108  1.00  0.00    -0.264 OA
HETATM   13  N3  UNL     1     -11.339 -27.968 -25.133  1.00  0.00    -0.271 N
ATOM     14  H3  UNL     1     -11.749 -28.412 -24.311  1.00  0.00     0.189 HD
BRANCH  13  15
HETATM   15  N4  UNL     1      -9.955 -27.978 -25.265  1.00  0.00    -0.342 N
ATOM     16  H42 UNL     1      -9.449 -28.743 -24.820  1.00  0.00     0.176 HD
ATOM     17  H41 UNL     1      -9.435 -27.266 -25.780  1.00  0.00     0.176 HD
ENDBRANCH  13  15
ENDBRANCH   5  11
BRANCH  10  18
HETATM   18  N6  UNL     1     -17.599 -27.395 -25.292  1.00  0.00    -0.233 N
ATOM     19  H62 UNL     1     -18.008 -27.303 -24.362  1.00  0.00     0.174 HD
ATOM     20  H61 UNL     1     -18.225 -27.464 -26.093  1.00  0.00     0.174 HD
ENDBRANCH  10  18
TORSDOF 3
ENDMDL