MODEL 5
REMARK VINA RESULT: -5.938365389      2.479      4.947
REMARK  3 active torsions:
REMARK  status: ('A' for Active; 'I' for Inactive)
REMARK    1  A    between atoms: N1_1  and  N2_4
REMARK    2  A    between atoms: N2_4  and  N3_6
REMARK       I    between atoms: N3_6  and  C1_8
REMARK       I    between atoms: C1_8  and  N4_10
REMARK    3  A    between atoms: C3_16  and  C4_17
ROOT
HETATM    1  N3  UNL     1     -15.087 -28.841 -25.382  1.00  0.00    -0.236 N
ATOM      2  H3  UNL     1     -14.687 -29.290 -24.558  1.00  0.00     0.193 HD
HETATM    3  C1  UNL     1     -14.225 -28.548 -26.497  1.00  0.00     0.363 C
HETATM    4  O1  UNL     1     -14.761 -28.001 -27.449  1.00  0.00    -0.243 OA
HETATM    5  N4  UNL     1     -12.841 -28.900 -26.439  1.00  0.00    -0.181 N
HETATM    6  N5  UNL     1     -12.321 -29.527 -25.346  1.00  0.00    -0.284 N
ATOM      7  H5  UNL     1     -12.850 -29.764 -24.506  1.00  0.00     0.188 HD
HETATM    8  C2  UNL     1     -11.035 -29.786 -25.523  1.00  0.00     0.199 A
HETATM    9  N6  UNL     1     -10.739 -29.324 -26.732  1.00  0.00    -0.332 N
ATOM     10  H6  UNL     1      -9.819 -29.371 -27.169  1.00  0.00     0.168 HD
HETATM   11  C3  UNL     1     -11.872 -28.766 -27.312  1.00  0.00     0.198 A
ENDROOT
BRANCH  11  12
HETATM   12  C4  UNL     1     -11.850 -28.130 -28.609  1.00  0.00     0.300 C
HETATM   13  N7  UNL     1     -11.776 -28.761 -29.867  1.00  0.00    -0.054 NA
HETATM   14  O2  UNL     1     -11.910 -26.835 -28.633  1.00  0.00    -0.268 OA
ENDBRANCH  11  12
BRANCH   1  15
HETATM   15  N2  UNL     1     -16.424 -28.541 -25.383  1.00  0.00    -0.245 N
ATOM     16  H2  UNL     1     -17.128 -29.259 -25.209  1.00  0.00     0.208 HD
BRANCH  15  17
HETATM   17  N1  UNL     1     -16.778 -27.246 -25.626  1.00  0.00    -0.331 N
ATOM     18  H12 UNL     1     -16.910 -26.595 -24.853  1.00  0.00     0.178 HD
ATOM     19  H11 UNL     1     -16.901 -26.967 -26.599  1.00  0.00     0.178 HD
ENDBRANCH  15  17
ENDBRANCH   1  15
TORSDOF 3
ENDMDL