MODEL 3
REMARK VINA RESULT: -5.815428253      0.953      1.022
REMARK  3 active torsions:
REMARK  status: ('A' for Active; 'I' for Inactive)
REMARK    1  A    between atoms: N1_1  and  C1_5
REMARK    2  A    between atoms: C3_10  and  N3_11
REMARK    3  A    between atoms: N4_14  and  N5_15
ROOT
HETATM    1  C1  UNL     1     -10.777 -28.045 -25.728  1.00  0.00     0.580 C
HETATM    2  N2  UNL     1     -11.178 -26.923 -24.864  1.00  0.00    -0.018 N
ATOM      3  H21 UNL     1     -10.742 -26.038 -25.126  1.00  0.00     0.281 HD
ATOM      4  H22 UNL     1     -10.793 -26.983 -23.922  1.00  0.00     0.281 HD
HETATM    5  C2  UNL     1     -12.609 -26.874 -24.887  1.00  0.00     0.302 C
HETATM    6  C3  UNL     1     -12.959 -27.829 -26.006  1.00  0.00     0.451 C
HETATM    7  N6  UNL     1     -11.992 -28.877 -25.794  1.00  0.00     0.012 N
ATOM      8  H61 UNL     1     -12.160 -29.497 -25.002  1.00  0.00     0.284 HD
ATOM      9  H62 UNL     1     -11.986 -29.634 -26.477  1.00  0.00     0.284 HD
ENDROOT
BRANCH   6  10
HETATM   10  N3  UNL     1     -14.315 -28.206 -25.923  1.00  0.00     0.137 N
HETATM   11  C4  UNL     1     -14.904 -27.556 -24.765  1.00  0.00     0.293 C
HETATM   12  C5  UNL     1     -16.058 -26.760 -25.386  1.00  0.00     0.145 C
HETATM   13  N4  UNL     1     -16.458 -27.711 -26.434  1.00  0.00    -0.209 NA
HETATM   14  C6  UNL     1     -15.144 -27.963 -27.046  1.00  0.00     0.388 C
BRANCH  13  15
HETATM   15  N5  UNL     1     -16.879 -28.856 -25.745  1.00  0.00    -0.362 NA
ATOM     16  H52 UNL     1     -17.853 -28.744 -25.464  1.00  0.00     0.171 HD
ATOM     17  H51 UNL     1     -16.993 -29.570 -26.464  1.00  0.00     0.171 HD
ENDBRANCH  13  15
ENDBRANCH   6  10
BRANCH   1  18
HETATM   18  N1  UNL     1      -9.667 -28.735 -25.149  1.00  0.00    -0.026 N
ATOM     19  H13 UNL     1      -8.829 -28.154 -25.121  1.00  0.00     0.278 HD
ATOM     20  H12 UNL     1      -9.785 -28.874 -24.146  1.00  0.00     0.278 HD
ATOM     21  H11 UNL     1      -9.507 -29.613 -25.641  1.00  0.00     0.278 HD
ENDBRANCH   1  18
TORSDOF 3
ENDMDL