MODEL 2
REMARK VINA RESULT: -6.184368736      1.868      2.375
REMARK  4 active torsions:
REMARK  status: ('A' for Active; 'I' for Inactive)
REMARK    1  A    between atoms: N1_1  and  C1_5
REMARK    2  A    between atoms: C1_5  and  C2_6
REMARK    3  A    between atoms: C4_10  and  N3_11
REMARK    4  A    between atoms: N3_11  and  C5_13
ROOT
HETATM    1  C2  UNL     1     -15.987 -27.752 -24.931  1.00  0.00     0.127 C
HETATM    2  C3  UNL     1     -15.212 -26.599 -24.341  1.00  0.00     0.149 C
HETATM    3  N2  UNL     1     -13.827 -26.902 -24.621  1.00  0.00    -0.360 N
ATOM      4  H2  UNL     1     -13.041 -26.361 -24.261  1.00  0.00     0.162 HD
HETATM    5  C4  UNL     1     -13.701 -27.934 -25.377  1.00  0.00     0.190 C
HETATM    6  N8  UNL     1     -14.976 -28.439 -25.691  1.00  0.00    -0.354 N
ATOM      7  H8  UNL     1     -15.159 -29.186 -26.361  1.00  0.00     0.163 HD
ENDROOT
BRANCH   5   8
HETATM    8  N3  UNL     1     -12.479 -28.517 -25.855  1.00  0.00    -0.159 N
ATOM      9  H3  UNL     1     -11.952 -29.153 -25.256  1.00  0.00     0.187 HD
BRANCH   8  10
HETATM   10  C5  UNL     1     -12.040 -28.238 -27.050  1.00  0.00     0.710 A
HETATM   11  N4  UNL     1     -12.156 -29.048 -28.114  1.00  0.00    -0.117 N
HETATM   12  N5  UNL     1     -11.600 -28.450 -29.175  1.00  0.00     0.006 NA
ATOM     13  H4  UNL     1     -12.595 -29.969 -28.115  1.00  0.00     0.202 HD
HETATM   14  N6  UNL     1     -11.144 -27.279 -28.770  1.00  0.00     0.006 NA
HETATM   15  N7  UNL     1     -11.412 -27.144 -27.462  1.00  0.00    -0.117 N
ATOM     16  H7  UNL     1     -11.174 -26.339 -26.884  1.00  0.00     0.202 HD
ENDBRANCH   8  10
ENDBRANCH   5   8
BRANCH   1  17
HETATM   17  C1  UNL     1     -17.083 -27.214 -25.860  1.00  0.00     0.256 C
BRANCH  17  18
HETATM   18  N1  UNL     1     -18.384 -27.619 -25.412  1.00  0.00    -0.077 N
ATOM     19  H13 UNL     1     -18.643 -28.531 -25.789  1.00  0.00     0.274 HD
ATOM     20  H12 UNL     1     -18.382 -27.855 -24.420  1.00  0.00     0.274 HD
ATOM     21  H11 UNL     1     -19.084 -26.910 -25.629  1.00  0.00     0.274 HD
ENDBRANCH  17  18
ENDBRANCH   1  17
TORSDOF 4
ENDMDL