MODEL 4
REMARK VINA RESULT: -5.923999462      1.605      2.852
REMARK  1 active torsions:
REMARK  status: ('A' for Active; 'I' for Inactive)
REMARK    1  A    between atoms: C2_7  and  S1_8
ROOT
HETATM    1  N1  UNL     1     -11.877 -28.714 -29.155  1.00  0.00    -0.234 N
ATOM      2  H11 UNL     1     -11.182 -29.274 -29.649  1.00  0.00     0.174 HD
ATOM      3  H12 UNL     1     -12.737 -28.414 -29.615  1.00  0.00     0.174 HD
HETATM    4  C1  UNL     1     -11.678 -28.367 -27.922  1.00  0.00     0.680 A
HETATM    5  N2  UNL     1     -12.594 -27.628 -27.270  1.00  0.00    -0.165 N
ATOM      6  H2  UNL     1     -13.441 -27.349 -27.765  1.00  0.00     0.186 HD
HETATM    7  C2  UNL     1     -12.438 -27.242 -25.992  1.00  0.00     0.235 A
HETATM    8  N3  UNL     1     -11.287 -27.643 -25.382  1.00  0.00    -0.305 N
ATOM      9  H3  UNL     1     -11.114 -27.378 -24.412  1.00  0.00     0.170 HD
HETATM   10  C3  UNL     1     -10.376 -28.381 -26.039  1.00  0.00     0.208 A
HETATM   11  N4  UNL     1      -9.191 -28.778 -25.367  1.00  0.00    -0.063 NA
HETATM   12  N5  UNL     1     -10.542 -28.761 -27.316  1.00  0.00    -0.163 N
ATOM     13  H5  UNL     1      -9.843 -29.322 -27.803  1.00  0.00     0.187 HD
ENDROOT
BRANCH   7  14
HETATM   14  S1  UNL     1     -13.645 -26.289 -25.189  1.00  0.00     0.321 S
HETATM   15  O1  UNL     1     -13.572 -26.623 -23.550  1.00  0.00    -0.203 OA
HETATM   16  O2  UNL     1     -15.149 -26.713 -25.769  1.00  0.00    -0.203 OA
ENDBRANCH   7  14
TORSDOF 1
ENDMDL