MODEL 4
REMARK VINA RESULT: -6.211259685      1.615      3.092
REMARK  4 active torsions:
REMARK  status: ('A' for Active; 'I' for Inactive)
REMARK    1  A    between atoms: N3_5  and  N4_6
REMARK    2  A    between atoms: C2_9  and  C3_10
REMARK    3  A    between atoms: C3_10  and  N6_14
REMARK    4  A    between atoms: N6_14  and  N7_16
ROOT
HETATM    1  C1  UNL     1     -16.251 -25.722 -24.564  1.00  0.00     0.180 C
HETATM    2  N1  UNL     1     -14.992 -26.334 -24.881  1.00  0.00    -0.268 N
HETATM    3  N2  UNL     1     -13.770 -25.877 -24.819  1.00  0.00    -0.218 N
ATOM      4  H2  UNL     1     -13.534 -24.935 -24.506  1.00  0.00     0.210 HD
HETATM    5  N3  UNL     1     -12.888 -26.751 -25.198  1.00  0.00    -0.182 N
HETATM    6  C2  UNL     1     -13.576 -27.877 -25.539  1.00  0.00     0.159 A
HETATM    7  C4  UNL     1     -14.895 -27.626 -25.344  1.00  0.00     0.166 A
HETATM    8  C5  UNL     1     -16.004 -28.495 -25.560  1.00  0.00     0.122 C
HETATM    9  N8  UNL     1     -16.932 -29.183 -25.727  1.00  0.00    -0.190 NA
ENDROOT
BRANCH   6  10
HETATM   10  C3  UNL     1     -12.940 -29.078 -26.014  1.00  0.00     0.147 C
HETATM   11  N5  UNL     1     -12.668 -30.076 -25.307  1.00  0.00    -0.382 N
ATOM     12  H52 UNL     1     -12.920 -30.030 -24.319  1.00  0.00     0.157 HD
ATOM     13  H51 UNL     1     -12.217 -30.927 -25.643  1.00  0.00     0.157 HD
BRANCH  10  14
HETATM   14  N6  UNL     1     -12.577 -29.144 -27.435  1.00  0.00    -0.290 N
ATOM     15  H6  UNL     1     -13.290 -29.191 -28.163  1.00  0.00     0.188 HD
BRANCH  14  16
HETATM   16  N7  UNL     1     -11.247 -29.139 -27.744  1.00  0.00    -0.344 N
ATOM     17  H72 UNL     1     -10.564 -28.771 -27.081  1.00  0.00     0.176 HD
ATOM     18  H71 UNL     1     -10.976 -29.514 -28.653  1.00  0.00     0.176 HD
ENDBRANCH  14  16
ENDBRANCH  10  14
ENDBRANCH   6  10
BRANCH   5  19
HETATM   19  N4  UNL     1     -11.507 -26.605 -25.258  1.00  0.00    -0.322 N
ATOM     20  H42 UNL     1     -10.828 -27.277 -24.898  1.00  0.00     0.179 HD
ATOM     21  H41 UNL     1     -10.971 -25.834 -25.656  1.00  0.00     0.179 HD
ENDBRANCH   5  19
TORSDOF 4
ENDMDL