MODEL 4
REMARK VINA RESULT: -5.710748390      2.959      4.050
REMARK  4 active torsions:
REMARK  status: ('A' for Active; 'I' for Inactive)
REMARK    1  A    between atoms: N1_1  and  C1_4
REMARK    2  A    between atoms: C2_9  and  S1_10
REMARK    3  A    between atoms: S1_10  and  N4_11
REMARK    4  A    between atoms: N5_16  and  N6_17
ROOT
HETATM    1  C1  UNL     1     -14.344 -28.766 -26.358  1.00  0.00     0.713 A
HETATM    2  N2  UNL     1     -14.063 -29.625 -25.376  1.00  0.00    -0.128 N
ATOM      3  H2  UNL     1     -14.740 -30.115 -24.790  1.00  0.00     0.205 HD
HETATM    4  N3  UNL     1     -12.758 -29.723 -25.302  1.00  0.00    -0.258 N
ATOM      5  H3  UNL     1     -12.262 -30.314 -24.635  1.00  0.00     0.190 HD
HETATM    6  C2  UNL     1     -12.159 -28.945 -26.218  1.00  0.00     0.276 A
HETATM    7  N5  UNL     1     -13.173 -28.356 -26.866  1.00  0.00    -0.061 N
ENDROOT
BRANCH   6   8
HETATM    8  S1  UNL     1     -10.433 -28.773 -26.470  1.00  0.00     0.292 S
HETATM    9  O1  UNL     1      -9.783 -30.128 -26.628  1.00  0.00    -0.198 OA
HETATM   10  O2  UNL     1     -10.147 -27.931 -27.695  1.00  0.00    -0.198 OA
BRANCH   8  11
HETATM   11  N4  UNL     1      -9.788 -27.979 -25.099  1.00  0.00    -0.322 N
ATOM     12  H42 UNL     1     -10.045 -28.169 -24.130  1.00  0.00     0.169 HD
ATOM     13  H41 UNL     1      -9.111 -27.292 -25.431  1.00  0.00     0.169 HD
ENDBRANCH   8  11
ENDBRANCH   6   8
BRANCH   7  14
HETATM   14  N6  UNL     1     -13.016 -27.450 -27.916  1.00  0.00    -0.322 N
ATOM     15  H62 UNL     1     -13.556 -26.591 -28.020  1.00  0.00     0.178 HD
ATOM     16  H61 UNL     1     -12.354 -27.543 -28.686  1.00  0.00     0.178 HD
ENDBRANCH   7  14
BRANCH   1  17
HETATM   17  N1  UNL     1     -15.546 -28.389 -26.756  1.00  0.00    -0.231 N
ATOM     18  H12 UNL     1     -16.070 -28.771 -27.543  1.00  0.00     0.174 HD
ATOM     19  H11 UNL     1     -16.126 -27.661 -26.337  1.00  0.00     0.174 HD
ENDBRANCH   1  17
TORSDOF 4
ENDMDL