MODEL 4
REMARK VINA RESULT: -5.896710294      1.617      4.744
REMARK  2 active torsions:
REMARK  status: ('A' for Active; 'I' for Inactive)
REMARK    1  A    between atoms: O1_2  and  C2_3
REMARK    2  A    between atoms: N4_15  and  N5_17
ROOT
HETATM    1  C2  UNL     1     -12.115 -28.262 -26.135  1.00  0.00     0.192 C
HETATM    2  N1  UNL     1     -12.260 -27.394 -25.100  1.00  0.00    -0.286 N
ATOM      3  H1  UNL     1     -11.417 -26.989 -24.694  1.00  0.00     0.172 HD
HETATM    4  C3  UNL     1     -13.463 -27.028 -24.569  1.00  0.00     0.330 C
HETATM    5  O2  UNL     1     -13.453 -26.584 -23.392  1.00  0.00    -0.246 OA
HETATM    6  N2  UNL     1     -14.678 -27.079 -25.145  1.00  0.00    -0.260 N
ATOM      7  H2  UNL     1     -15.425 -26.646 -24.603  1.00  0.00     0.175 HD
HETATM    8  C4  UNL     1     -15.076 -27.615 -26.335  1.00  0.00     0.329 C
HETATM    9  O3  UNL     1     -16.266 -27.462 -26.683  1.00  0.00    -0.246 OA
HETATM   10  N3  UNL     1     -14.336 -28.308 -27.216  1.00  0.00    -0.290 N
ATOM     11  H3  UNL     1     -14.836 -28.776 -27.973  1.00  0.00     0.172 HD
HETATM   12  C5  UNL     1     -12.976 -28.448 -27.195  1.00  0.00     0.175 C
HETATM   13  N4  UNL     1     -12.465 -28.800 -28.324  1.00  0.00    -0.288 N
ATOM     14  H4  UNL     1     -13.053 -28.952 -29.144  1.00  0.00     0.188 HD
ENDROOT
BRANCH   1  15
HETATM   15  O1  UNL     1     -10.999 -29.066 -26.175  1.00  0.00    -0.338 OA
HETATM   16  C1  UNL     1      -9.786 -28.776 -25.513  1.00  0.00     0.211 C
ENDBRANCH   1  15
BRANCH  13  17
HETATM   17  N5  UNL     1     -11.081 -28.966 -28.390  1.00  0.00    -0.344 N
ATOM     18  H52 UNL     1     -10.463 -28.164 -28.265  1.00  0.00     0.176 HD
ATOM     19  H51 UNL     1     -10.721 -29.904 -28.564  1.00  0.00     0.176 HD
ENDBRANCH  13  17
TORSDOF 2
ENDMDL