MODEL 5
REMARK VINA RESULT: -6.938793570      1.019      1.832
REMARK  3 active torsions:
REMARK  status: ('A' for Active; 'I' for Inactive)
REMARK    1  A    between atoms: C3_3  and  N1_4
REMARK    2  A    between atoms: C4_9  and  N4_10
REMARK       I    between atoms: N4_10  and  C5_12
REMARK       I    between atoms: C5_12  and  N6_16
REMARK    3  A    between atoms: N6_16  and  N7_18
ROOT
HETATM    1  C1  UNL     1     -17.514 -26.843 -25.175  1.00  0.00     0.014 C
HETATM    2  C2  UNL     1     -16.752 -27.331 -25.978  1.00  0.00    -0.094 C
HETATM    3  C3  UNL     1     -15.831 -27.914 -26.957  1.00  0.00     0.264 C
ENDROOT
BRANCH   3   4
HETATM    4  N1  UNL     1     -14.589 -28.343 -26.300  1.00  0.00    -0.194 N
HETATM    5  N2  UNL     1     -14.352 -29.475 -25.681  1.00  0.00    -0.210 N
HETATM    6  N3  UNL     1     -13.106 -29.419 -25.249  1.00  0.00    -0.114 N
ATOM      7  H2  UNL     1     -15.006 -30.249 -25.557  1.00  0.00     0.210 HD
HETATM    8  C4  UNL     1     -12.564 -28.243 -25.603  1.00  0.00     0.728 A
ATOM      9  H3  UNL     1     -12.629 -30.155 -24.727  1.00  0.00     0.207 HD
HETATM   10  N8  UNL     1     -13.521 -27.575 -26.267  1.00  0.00    -0.111 N
ATOM     11  H8  UNL     1     -13.435 -26.642 -26.673  1.00  0.00     0.207 HD
BRANCH   8  12
HETATM   12  N4  UNL     1     -11.377 -27.782 -25.382  1.00  0.00    -0.019 N
HETATM   13  C5  UNL     1     -10.346 -28.224 -26.250  1.00  0.00     0.704 C
HETATM   14  N5  UNL     1     -10.168 -27.612 -27.370  1.00  0.00    -0.233 N
HETATM   15  N6  UNL     1      -9.535 -29.326 -25.873  1.00  0.00    -0.139 N
ATOM     16  H52 UNL     1     -10.751 -26.821 -27.640  1.00  0.00     0.174 HD
ATOM     17  H51 UNL     1      -9.427 -27.931 -27.994  1.00  0.00     0.174 HD
ATOM     18  H6  UNL     1      -8.629 -29.430 -26.329  1.00  0.00     0.205 HD
ATOM     19  H4  UNL     1     -11.190 -27.131 -24.620  1.00  0.00     0.203 HD
BRANCH  15  20
HETATM   20  N7  UNL     1      -9.895 -30.266 -24.927  1.00  0.00    -0.331 N
ATOM     21  H72 UNL     1     -10.785 -30.122 -24.450  1.00  0.00     0.177 HD
ATOM     22  H71 UNL     1      -9.330 -31.079 -24.684  1.00  0.00     0.177 HD
ENDBRANCH  15  20
ENDBRANCH   8  12
ENDBRANCH   3   4
TORSDOF 3
ENDMDL