MODEL 1
REMARK VINA RESULT: -7.542945013      0.000      0.000
REMARK  6 active torsions:
REMARK  status: ('A' for Active; 'I' for Inactive)
REMARK    1  A    between atoms: N1_1  and  C1_4
REMARK    2  A    between atoms: C3_11  and  C4_12
REMARK    3  A    between atoms: C7_15  and  O1_16
REMARK    4  A    between atoms: O1_16  and  C8_17
REMARK    5  A    between atoms: C8_17  and  C9_18
REMARK    6  A    between atoms: C9_18  and  N4_19
ROOT
HETATM    1  C4  UNL     1      -3.538   0.173  28.866  1.00  0.00    -0.005 A
HETATM    2  C5  UNL     1      -4.765   0.653  28.418  1.00  0.00     0.016 A
HETATM    3  C6  UNL     1      -5.170   0.528  27.107  1.00  0.00     0.037 A
HETATM    4  C7  UNL     1      -4.375  -0.082  26.171  1.00  0.00     0.068 A
HETATM    5  C10 UNL     1      -3.163  -0.560  26.595  1.00  0.00     0.037 A
HETATM    6  C11 UNL     1      -2.756  -0.430  27.933  1.00  0.00     0.016 A
ENDROOT
BRANCH   1   7
HETATM    7  C3  UNL     1      -3.191   0.352  30.282  1.00  0.00     0.088 A
HETATM    8  C1  UNL     1      -1.938   0.138  30.958  1.00  0.00     0.129 A
HETATM    9  N2  UNL     1      -2.134   0.465  32.372  1.00  0.00    -0.318 N
HETATM   10  C2  UNL     1      -3.486   0.855  32.463  1.00  0.00     0.178 A
ATOM     11  H2  UNL     1      -1.446   0.421  33.123  1.00  0.00     0.170 HD
HETATM   12  S1  UNL     1      -4.265   1.337  33.849  1.00  0.00    -0.040 SA
HETATM   13  N3  UNL     1      -4.037   0.760  31.192  1.00  0.00    -0.329 N
ATOM     14  H3  UNL     1      -5.010   0.988  30.987  1.00  0.00     0.168 HD
BRANCH   8  15
HETATM   15  N1  UNL     1      -0.824  -0.244  30.567  1.00  0.00    -0.384 N
ATOM     16  H12 UNL     1      -0.075   0.219  30.052  1.00  0.00     0.157 HD
ATOM     17  H11 UNL     1      -0.523  -1.199  30.760  1.00  0.00     0.157 HD
ENDBRANCH   8  15
ENDBRANCH   1   7
BRANCH   4  18
HETATM   18  O1  UNL     1      -4.814  -0.191  24.857  1.00  0.00    -0.350 OA
BRANCH  18  19
HETATM   19  C8  UNL     1      -6.033  -0.791  24.520  1.00  0.00     0.203 C
BRANCH  19  20
HETATM   20  C9  UNL     1      -6.089  -0.913  22.994  1.00  0.00     0.256 C
BRANCH  20  21
HETATM   21  N4  UNL     1      -7.414  -0.603  22.492  1.00  0.00    -0.077 N
ATOM     22  H43 UNL     1      -7.966  -1.447  22.345  1.00  0.00     0.274 HD
ATOM     23  H42 UNL     1      -7.991  -0.160  23.206  1.00  0.00     0.274 HD
ATOM     24  H41 UNL     1      -7.364  -0.036  21.646  1.00  0.00     0.274 HD
ENDBRANCH  20  21
ENDBRANCH  19  20
ENDBRANCH  18  19
ENDBRANCH   4  18
TORSDOF 6
ENDMDL