MODEL 5
REMARK VINA RESULT: -6.711974532      1.841      5.707
REMARK  5 active torsions:
REMARK  status: ('A' for Active; 'I' for Inactive)
REMARK    1  A    between atoms: N1_2  and  C3_4
REMARK    2  A    between atoms: C3_4  and  C4_5
REMARK    3  A    between atoms: C4_5  and  C5_6
REMARK    4  A    between atoms: C5_6  and  N2_7
REMARK    5  A    between atoms: C6_8  and  N3_9
ROOT
HETATM    1  N2  UNL     1      -2.505   0.232  31.095  1.00  0.00    -0.319 N
HETATM    2  C6  UNL     1      -1.945  -0.720  31.832  1.00  0.00     0.102 A
HETATM    3  C7  UNL     1      -2.138  -0.804  33.210  1.00  0.00     0.049 A
HETATM    4  C8  UNL     1      -2.937   0.128  33.829  1.00  0.00     0.021 A
HETATM    5  C9  UNL     1      -3.529   1.119  33.100  1.00  0.00     0.035 A
HETATM    6  C10 UNL     1      -4.326   2.046  33.746  1.00  0.00     0.041 A
HETATM    7  N4  UNL     1      -4.569   2.059  34.999  1.00  0.00    -0.398 N
ATOM      8  H41 UNL     1      -5.157   2.742  35.476  1.00  0.00     0.156 HD
ATOM      9  H42 UNL     1      -4.146   1.332  35.577  1.00  0.00     0.156 HD
HETATM   10  C11 UNL     1      -4.908   3.044  32.953  1.00  0.00     0.047 A
HETATM   11  C12 UNL     1      -4.674   3.067  31.606  1.00  0.00     0.092 A
HETATM   12  N5  UNL     1      -3.874   2.124  31.015  1.00  0.00    -0.351 N
ATOM     13  H5  UNL     1      -3.717   2.168  30.008  1.00  0.00     0.166 HD
HETATM   14  C13 UNL     1      -3.294   1.148  31.723  1.00  0.00     0.121 A
ENDROOT
BRANCH   1  15
HETATM   15  C5  UNL     1      -2.277   0.344  29.696  1.00  0.00     0.134 C
BRANCH  15  16
HETATM   16  C4  UNL     1      -3.364  -0.181  28.808  1.00  0.00     0.050 C
BRANCH  16  17
HETATM   17  C3  UNL     1      -2.940  -0.538  27.423  1.00  0.00     0.273 C
BRANCH  17  18
HETATM   18  N1  UNL     1      -4.066  -0.655  26.511  1.00  0.00     0.080 N
HETATM   19  C1  UNL     1      -5.140   0.155  27.056  1.00  0.00     0.309 C
HETATM   20  C2  UNL     1      -3.717  -0.089  25.220  1.00  0.00     0.309 C
ENDBRANCH  17  18
ENDBRANCH  16  17
ENDBRANCH  15  16
ENDBRANCH   1  15
BRANCH   2  21
HETATM   21  N3  UNL     1      -1.224  -1.642  31.344  1.00  0.00    -0.385 N
ATOM     22  H32 UNL     1      -0.228  -1.428  31.315  1.00  0.00     0.157 HD
ATOM     23  H31 UNL     1      -1.599  -2.537  31.030  1.00  0.00     0.157 HD
ENDBRANCH   2  21
TORSDOF 5
ENDMDL