MODEL 4
REMARK VINA RESULT: -7.637359244      1.246      2.040
REMARK  6 active torsions:
REMARK  status: ('A' for Active; 'I' for Inactive)
REMARK    1  A    between atoms: N1_1  and  C1_4
REMARK    2  A    between atoms: C2_7  and  C3_8
REMARK    3  A    between atoms: C3_8  and  C4_9
REMARK    4  A    between atoms: C4_9  and  N3_11
REMARK    5  A    between atoms: N3_11  and  C5_13
REMARK    6  A    between atoms: C5_13  and  C6_14
ROOT
HETATM    1  C3  UNL     1      -4.470   2.136  34.189  1.00  0.00     0.147 C
ENDROOT
BRANCH   1   2
HETATM    2  C2  UNL     1      -3.516   1.134  34.697  1.00  0.00     0.111 A
HETATM    3  N2  UNL     1      -2.180   1.287  34.700  1.00  0.00    -0.309 N
HETATM    4  C1  UNL     1      -1.621   0.185  35.233  1.00  0.00     0.242 A
ATOM      5  H2  UNL     1      -1.674   2.103  34.356  1.00  0.00     0.170 HD
HETATM    6  O1  UNL     1      -2.616  -0.605  35.539  1.00  0.00    -0.200 OA
HETATM    7  N4  UNL     1      -3.745  -0.075  35.236  1.00  0.00    -0.245 N
ATOM      8  H4  UNL     1      -4.661  -0.499  35.380  1.00  0.00     0.196 HD
BRANCH   4   9
HETATM    9  N1  UNL     1      -0.355   0.001  35.385  1.00  0.00    -0.364 N
ATOM     10  H12 UNL     1       0.179  -0.141  36.243  1.00  0.00     0.159 HD
ATOM     11  H11 UNL     1       0.326  -0.031  34.626  1.00  0.00     0.159 HD
ENDBRANCH   4   9
ENDBRANCH   1   2
BRANCH   1  12
HETATM   12  C4  UNL     1      -4.530   2.195  32.723  1.00  0.00     0.080 C
HETATM   13  S1  UNL     1      -4.794   3.602  31.963  1.00  0.00    -0.065 SA
BRANCH  12  14
HETATM   14  N3  UNL     1      -4.362   1.033  31.950  1.00  0.00    -0.380 N
ATOM     15  H3  UNL     1      -5.039   0.272  32.001  1.00  0.00     0.160 HD
BRANCH  14  16
HETATM   16  C5  UNL     1      -3.212   0.938  31.081  1.00  0.00     0.158 C
BRANCH  16  17
HETATM   17  C6  UNL     1      -3.633   0.572  29.725  1.00  0.00    -0.041 A
HETATM   18  C7  UNL     1      -4.871   0.986  29.270  1.00  0.00     0.009 A
HETATM   19  C8  UNL     1      -5.299   0.667  28.018  1.00  0.00     0.001 A
HETATM   20  C9  UNL     1      -4.464  -0.082  27.208  1.00  0.00     0.000 A
HETATM   21  C10 UNL     1      -3.218  -0.516  27.627  1.00  0.00     0.001 A
HETATM   22  C11 UNL     1      -2.806  -0.180  28.899  1.00  0.00     0.009 A
ENDBRANCH  16  17
ENDBRANCH  14  16
ENDBRANCH  12  14
ENDBRANCH   1  12
TORSDOF 6
ENDMDL