MODEL 4
REMARK VINA RESULT: -6.619673523      2.192      4.744
REMARK  6 active torsions:
REMARK  status: ('A' for Active; 'I' for Inactive)
REMARK    1  A    between atoms: C2_3  and  S1_4
REMARK    2  A    between atoms: S1_4  and  C3_5
REMARK    3  A    between atoms: C5_7  and  N2_8
REMARK    4  A    between atoms: N2_8  and  C6_10
REMARK    5  A    between atoms: C6_10  and  C7_11
REMARK    6  A    between atoms: C7_11  and  O1_12
ROOT
HETATM    1  N1  UNL     1      -3.586   0.239  24.464  1.00  0.00    -0.197 NA
HETATM    2  C1  UNL     1      -3.939  -0.186  25.476  1.00  0.00     0.069 C
HETATM    3  C2  UNL     1      -4.368  -0.735  26.749  1.00  0.00     0.203 C
ENDROOT
BRANCH   3   4
HETATM    4  S1  UNL     1      -5.095   0.614  27.747  1.00  0.00    -0.113 SA
BRANCH   4   5
HETATM    5  C3  UNL     1      -4.256   0.620  29.309  1.00  0.00     0.034 A
HETATM    6  C4  UNL     1      -4.818   1.120  30.465  1.00  0.00     0.069 A
HETATM    7  C5  UNL     1      -4.178   1.131  31.687  1.00  0.00     0.102 A
HETATM    8  N3  UNL     1      -2.936   0.615  31.719  1.00  0.00    -0.341 N
HETATM    9  C8  UNL     1      -2.330   0.112  30.633  1.00  0.00     0.063 A
ATOM     10  H3  UNL     1      -2.434   0.607  32.607  1.00  0.00     0.167 HD
HETATM   11  C9  UNL     1      -1.079  -0.454  30.460  1.00  0.00     0.049 A
HETATM   12  C11 UNL     1      -2.972   0.103  29.411  1.00  0.00     0.076 A
HETATM   13  C10 UNL     1      -0.965  -0.806  29.131  1.00  0.00     0.090 A
HETATM   14  N4  UNL     1      -2.117  -0.459  28.533  1.00  0.00    -0.363 N
ATOM     15  H4  UNL     1      -2.319  -0.601  27.543  1.00  0.00     0.165 HD
BRANCH   7  16
HETATM   16  N2  UNL     1      -4.736   1.610  32.758  1.00  0.00    -0.374 N
ATOM     17  H2  UNL     1      -5.747   1.739  32.760  1.00  0.00     0.161 HD
BRANCH  16  18
HETATM   18  C6  UNL     1      -4.005   1.964  33.934  1.00  0.00     0.147 C
BRANCH  18  19
HETATM   19  C7  UNL     1      -4.344   0.924  35.004  1.00  0.00     0.183 C
BRANCH  19  20
HETATM   20  O1  UNL     1      -5.496   1.367  35.675  1.00  0.00    -0.399 OA
ATOM     21  H1  UNL     1      -5.303   2.220  36.046  1.00  0.00     0.209 HD
ENDBRANCH  19  20
ENDBRANCH  18  19
ENDBRANCH  16  18
ENDBRANCH   7  16
ENDBRANCH   4   5
ENDBRANCH   3   4
TORSDOF 6
ENDMDL