MODEL 5
REMARK VINA RESULT: -8.539152865      0.078      1.980
REMARK  4 active torsions:
REMARK  status: ('A' for Active; 'I' for Inactive)
REMARK    1  A    between atoms: C6_6  and  C7_7
REMARK    2  A    between atoms: C8_8  and  N1_9
REMARK    3  A    between atoms: N1_9  and  N2_11
REMARK    4  A    between atoms: N2_11  and  C9_13
ROOT
HETATM    1  C7  UNL     1      -3.630   1.518  31.553  1.00  0.00     0.031 C
HETATM    2  C8  UNL     1      -4.410   1.204  32.714  1.00  0.00     0.108 C
ENDROOT
BRANCH   2   3
HETATM    3  N1  UNL     1      -4.369  -0.176  33.140  1.00  0.00    -0.298 N
ATOM      4  H1  UNL     1      -5.167  -0.782  32.949  1.00  0.00     0.186 HD
BRANCH   3   5
HETATM    5  N2  UNL     1      -3.238  -0.706  33.822  1.00  0.00    -0.130 N
ATOM      6  H2  UNL     1      -2.371  -0.884  33.315  1.00  0.00     0.205 HD
BRANCH   5   7
HETATM    7  C9  UNL     1      -3.315  -0.961  35.094  1.00  0.00     0.722 A
HETATM    8  N3  UNL     1      -4.166  -1.817  35.699  1.00  0.00    -0.115 N
HETATM    9  N4  UNL     1      -3.924  -1.791  37.000  1.00  0.00     0.006 NA
ATOM     10  H3  UNL     1      -4.875  -2.385  35.234  1.00  0.00     0.202 HD
HETATM   11  N5  UNL     1      -2.936  -0.940  37.262  1.00  0.00     0.006 NA
HETATM   12  N6  UNL     1      -2.574  -0.442  36.090  1.00  0.00    -0.115 N
ATOM     13  H6  UNL     1      -1.832   0.245  35.959  1.00  0.00     0.202 HD
ENDBRANCH   5   7
ENDBRANCH   3   5
ENDBRANCH   2   3
BRANCH   1  14
HETATM   14  C6  UNL     1      -3.740   0.965  30.257  1.00  0.00    -0.023 A
HETATM   15  C4  UNL     1      -2.795   0.110  29.722  1.00  0.00    -0.051 A
HETATM   16  C3  UNL     1      -2.961  -0.419  28.457  1.00  0.00     0.014 A
HETATM   17  C5  UNL     1      -1.650  -0.180  30.577  1.00  0.00     0.049 C
HETATM   18  C2  UNL     1      -4.056  -0.124  27.678  1.00  0.00    -0.061 A
HETATM   19  C1  UNL     1      -4.157  -0.732  26.333  1.00  0.00     0.048 C
HETATM   20  C12 UNL     1      -5.007   0.721  28.185  1.00  0.00     0.014 A
HETATM   21  C10 UNL     1      -4.833   1.253  29.468  1.00  0.00    -0.051 A
HETATM   22  C11 UNL     1      -5.938   2.139  29.966  1.00  0.00     0.049 C
ENDBRANCH   1  14
TORSDOF 4
ENDMDL