MODEL 1
REMARK VINA RESULT: -7.515652134      0.000      0.000
REMARK  5 active torsions:
REMARK  status: ('A' for Active; 'I' for Inactive)
REMARK    1  A    between atoms: C5_9  and  N3_10
REMARK    2  A    between atoms: N5_18  and  C8_19
REMARK    3  A    between atoms: C8_19  and  C9_20
REMARK    4  A    between atoms: C9_20  and  C10_21
REMARK    5  A    between atoms: C10_21  and  C11_22
ROOT
HETATM    1  C1  UNL     1      -5.109   3.710  31.963  1.00  0.00     0.106 C
HETATM    2  C2  UNL     1      -4.553   2.832  32.604  1.00  0.00    -0.112 C
HETATM    3  C3  UNL     1      -3.911   1.804  33.376  1.00  0.00     0.153 A
HETATM    4  N1  UNL     1      -3.704   1.739  34.703  1.00  0.00    -0.319 N
ATOM      5  H1  UNL     1      -3.988   2.448  35.379  1.00  0.00     0.169 HD
HETATM    6  C4  UNL     1      -3.062   0.590  34.999  1.00  0.00     0.155 A
HETATM    7  N2  UNL     1      -2.620   0.030  36.145  1.00  0.00    -0.174 N
ATOM      8  H2  UNL     1      -2.759   0.512  37.032  1.00  0.00     0.186 HD
HETATM    9  C5  UNL     1      -2.002  -1.155  36.120  1.00  0.00     0.680 A
HETATM   10  N4  UNL     1      -1.795  -1.835  34.964  1.00  0.00    -0.154 N
ATOM     11  H4  UNL     1      -1.319  -2.737  34.984  1.00  0.00     0.187 HD
HETATM   12  C6  UNL     1      -2.212  -1.328  33.797  1.00  0.00     0.290 A
HETATM   13  O1  UNL     1      -2.050  -1.911  32.699  1.00  0.00    -0.265 OA
HETATM   14  C7  UNL     1      -2.851  -0.105  33.813  1.00  0.00     0.151 A
HETATM   15  N5  UNL     1      -3.386   0.670  32.838  1.00  0.00    -0.319 N
ENDROOT
BRANCH  15  16
HETATM   16  C8  UNL     1      -3.411   0.364  31.424  1.00  0.00     0.132 C
BRANCH  16  17
HETATM   17  C9  UNL     1      -2.124   0.760  30.725  1.00  0.00     0.020 C
BRANCH  17  18
HETATM   18  C10 UNL     1      -2.089   0.007  29.410  1.00  0.00     0.001 C
BRANCH  18  19
HETATM   19  C11 UNL     1      -3.445  -0.067  28.759  1.00  0.00    -0.004 C
HETATM   20  C12 UNL     1      -3.278  -0.478  27.315  1.00  0.00     0.005 C
ENDBRANCH  18  19
ENDBRANCH  17  18
ENDBRANCH  16  17
ENDBRANCH  15  16
BRANCH   9  21
HETATM   21  N3  UNL     1      -1.586  -1.677  37.211  1.00  0.00    -0.234 N
ATOM     22  H32 UNL     1      -1.976  -1.335  38.089  1.00  0.00     0.174 HD
ATOM     23  H31 UNL     1      -0.881  -2.415  37.183  1.00  0.00     0.174 HD
ENDBRANCH   9  21
TORSDOF 5
ENDMDL