MODEL 4
REMARK VINA RESULT: -8.087198599      1.521      1.534
REMARK  5 active torsions:
REMARK  status: ('A' for Active; 'I' for Inactive)
REMARK    1  A    between atoms: N1_1  and  C1_4
REMARK    2  A    between atoms: C2_7  and  S1_8
REMARK    3  A    between atoms: S1_8  and  C3_9
REMARK    4  A    between atoms: C3_9  and  C4_10
REMARK    5  A    between atoms: C4_10  and  C5_11
ROOT
HETATM    1  C1  UNL     1      -1.682   0.861  35.114  1.00  0.00     0.681 A
HETATM    2  N2  UNL     1      -2.675   1.634  34.586  1.00  0.00    -0.170 N
ATOM      3  H2  UNL     1      -2.878   2.548  34.991  1.00  0.00     0.186 HD
HETATM    4  C2  UNL     1      -3.379   1.195  33.540  1.00  0.00     0.163 A
HETATM    5  N3  UNL     1      -3.110  -0.004  33.011  1.00  0.00    -0.288 N
ATOM      6  H3  UNL     1      -3.658  -0.326  32.212  1.00  0.00     0.172 HD
HETATM    7  C11 UNL     1      -2.135  -0.804  33.502  1.00  0.00     0.340 A
HETATM    8  O1  UNL     1      -1.914  -1.916  32.981  1.00  0.00    -0.246 OA
HETATM    9  N4  UNL     1      -1.437  -0.354  34.549  1.00  0.00    -0.141 N
ATOM     10  H4  UNL     1      -0.696  -0.938  34.936  1.00  0.00     0.189 HD
ENDROOT
BRANCH   4  11
HETATM   11  S1  UNL     1      -4.666   2.194  32.852  1.00  0.00    -0.093 SA
BRANCH  11  12
HETATM   12  C3  UNL     1      -4.368   2.317  31.069  1.00  0.00     0.087 C
BRANCH  12  13
HETATM   13  C4  UNL     1      -5.323   1.463  30.275  1.00  0.00     0.049 C
BRANCH  13  14
HETATM   14  C5  UNL     1      -4.699   0.803  29.124  1.00  0.00    -0.057 A
HETATM   15  C6  UNL     1      -5.320   0.740  27.905  1.00  0.00     0.007 A
HETATM   16  C7  UNL     1      -4.712   0.111  26.833  1.00  0.00     0.001 A
HETATM   17  C8  UNL     1      -3.469  -0.453  27.013  1.00  0.00     0.000 A
HETATM   18  C9  UNL     1      -2.818  -0.407  28.228  1.00  0.00     0.001 A
HETATM   19  C10 UNL     1      -3.454   0.229  29.278  1.00  0.00     0.007 A
ENDBRANCH  13  14
ENDBRANCH  12  13
ENDBRANCH  11  12
ENDBRANCH   4  11
BRANCH   1  20
HETATM   20  N1  UNL     1      -0.997   1.277  36.122  1.00  0.00    -0.234 N
ATOM     21  H12 UNL     1      -1.146   2.207  36.514  1.00  0.00     0.174 HD
ATOM     22  H11 UNL     1      -0.289   0.679  36.549  1.00  0.00     0.174 HD
ENDBRANCH   1  20
TORSDOF 5
ENDMDL