MODEL 2
REMARK VINA RESULT: -7.649007212      2.033      3.571
REMARK  5 active torsions:
REMARK  status: ('A' for Active; 'I' for Inactive)
REMARK    1  A    between atoms: C3_3  and  C4_4
REMARK    2  A    between atoms: C4_4  and  C5_5
REMARK    3  A    between atoms: C5_5  and  C6_6
REMARK    4  A    between atoms: C6_6  and  N1_7
REMARK    5  A    between atoms: C11_17  and  N4_18
ROOT
HETATM    1  C1  UNL     1      -3.958  -0.118  26.422  1.00  0.00     0.012 C
HETATM    2  C2  UNL     1      -4.701   0.238  27.294  1.00  0.00    -0.117 C
HETATM    3  C3  UNL     1      -5.599   0.640  28.340  1.00  0.00     0.093 C
ENDROOT
BRANCH   3   4
HETATM    4  C4  UNL     1      -5.246   1.986  28.910  1.00  0.00     0.014 C
BRANCH   4   5
HETATM    5  C5  UNL     1      -5.643   2.171  30.329  1.00  0.00     0.021 C
BRANCH   5   6
HETATM    6  C6  UNL     1      -4.452   2.690  31.105  1.00  0.00     0.132 C
BRANCH   6   7
HETATM    7  N1  UNL     1      -3.797   1.682  31.874  1.00  0.00    -0.321 N
HETATM    8  C7  UNL     1      -3.875   1.504  33.197  1.00  0.00     0.081 A
HETATM    9  C8  UNL     1      -4.648   2.288  34.206  1.00  0.00     0.089 C
HETATM   10  N2  UNL     1      -3.108   0.438  33.567  1.00  0.00    -0.339 N
HETATM   11  C9  UNL     1      -2.554  -0.039  32.444  1.00  0.00     0.148 A
ATOM     12  H2  UNL     1      -2.981   0.076  34.512  1.00  0.00     0.167 HD
HETATM   13  C10 UNL     1      -1.702  -1.099  32.261  1.00  0.00     0.290 A
HETATM   14  C12 UNL     1      -2.982   0.738  31.377  1.00  0.00     0.157 A
HETATM   15  O1  UNL     1      -1.342  -1.771  33.255  1.00  0.00    -0.265 OA
HETATM   16  N3  UNL     1      -1.272  -1.396  31.039  1.00  0.00    -0.154 N
HETATM   17  C11 UNL     1      -1.676  -0.654  29.991  1.00  0.00     0.680 A
ATOM     18  H3  UNL     1      -0.640  -2.182  30.896  1.00  0.00     0.187 HD
HETATM   19  N5  UNL     1      -2.505   0.377  30.173  1.00  0.00    -0.174 N
ATOM     20  H5  UNL     1      -2.792   0.918  29.356  1.00  0.00     0.186 HD
BRANCH  17  21
HETATM   21  N4  UNL     1      -1.230  -0.984  28.828  1.00  0.00    -0.234 N
ATOM     22  H42 UNL     1      -0.450  -0.498  28.384  1.00  0.00     0.174 HD
ATOM     23  H41 UNL     1      -1.689  -1.762  28.356  1.00  0.00     0.174 HD
ENDBRANCH  17  21
ENDBRANCH   6   7
ENDBRANCH   5   6
ENDBRANCH   4   5
ENDBRANCH   3   4
TORSDOF 5
ENDMDL