MODEL 4
REMARK VINA RESULT: -7.117384222      1.484      2.647
REMARK  6 active torsions:
REMARK  status: ('A' for Active; 'I' for Inactive)
REMARK    1  A    between atoms: N1_1  and  C1_4
REMARK    2  A    between atoms: N3_11  and  C6_12
REMARK    3  A    between atoms: C6_12  and  C7_13
REMARK    4  A    between atoms: C7_13  and  C8_14
REMARK    5  A    between atoms: C8_14  and  C9_15
REMARK    6  A    between atoms: C9_15  and  N4_16
ROOT
HETATM    1  C1  UNL     1      -5.182   0.704  29.050  1.00  0.00     0.684 A
HETATM    2  N2  UNL     1      -4.431   0.647  30.166  1.00  0.00    -0.175 N
ATOM      3  H2  UNL     1      -4.838   0.946  31.052  1.00  0.00     0.186 HD
HETATM    4  C2  UNL     1      -3.162   0.210  30.146  1.00  0.00     0.135 A
HETATM    5  C3  UNL     1      -2.656  -0.182  28.922  1.00  0.00     0.038 A
HETATM    6  C4  UNL     1      -1.356  -0.578  29.186  1.00  0.00     0.035 A
HETATM    7  C5  UNL     1      -1.081  -0.435  30.516  1.00  0.00     0.093 A
HETATM    8  N3  UNL     1      -2.197   0.050  31.096  1.00  0.00    -0.342 N
HETATM    9  C10 UNL     1      -3.444  -0.114  27.793  1.00  0.00     0.070 A
HETATM   10  C11 UNL     1      -3.195  -0.436  26.475  1.00  0.00     0.033 A
HETATM   11  C12 UNL     1      -4.317  -0.190  25.709  1.00  0.00     0.020 A
HETATM   12  C13 UNL     1      -5.262   0.290  26.590  1.00  0.00     0.115 A
HETATM   13  N5  UNL     1      -4.719   0.329  27.842  1.00  0.00    -0.158 N
ENDROOT
BRANCH   8  14
HETATM   14  C6  UNL     1      -2.366   0.363  32.517  1.00  0.00     0.130 C
BRANCH  14  15
HETATM   15  C7  UNL     1      -2.069  -0.884  33.287  1.00  0.00     0.022 C
BRANCH  15  16
HETATM   16  C8  UNL     1      -1.487  -0.647  34.638  1.00  0.00     0.029 C
BRANCH  16  17
HETATM   17  C9  UNL     1      -2.111   0.650  35.172  1.00  0.00     0.229 C
BRANCH  17  18
HETATM   18  N4  UNL     1      -1.107   1.523  35.718  1.00  0.00    -0.079 N
ATOM     19  H43 UNL     1      -0.621   1.091  36.504  1.00  0.00     0.274 HD
ATOM     20  H42 UNL     1      -0.315   1.627  35.084  1.00  0.00     0.274 HD
ATOM     21  H41 UNL     1      -1.505   2.426  35.974  1.00  0.00     0.274 HD
ENDBRANCH  17  18
ENDBRANCH  16  17
ENDBRANCH  15  16
ENDBRANCH  14  15
ENDBRANCH   8  14
BRANCH   1  22
HETATM   22  N1  UNL     1      -6.414   1.130  29.078  1.00  0.00    -0.234 N
ATOM     23  H12 UNL     1      -6.540   2.104  29.352  1.00  0.00     0.174 HD
ATOM     24  H11 UNL     1      -7.196   0.519  28.839  1.00  0.00     0.174 HD
ENDBRANCH   1  22
TORSDOF 6
ENDMDL