MODEL 3
REMARK VINA RESULT: -8.412471683      1.215      1.843
REMARK  6 active torsions:
REMARK  status: ('A' for Active; 'I' for Inactive)
REMARK    1  A    between atoms: C4_9  and  N4_10
REMARK    2  A    between atoms: N4_10  and  C5_12
REMARK    3  A    between atoms: C5_12  and  C6_13
REMARK    4  A    between atoms: C6_13  and  C7_14
REMARK    5  A    between atoms: C7_14  and  O1_15
REMARK    6  A    between atoms: C7_14  and  C8_17
ROOT
HETATM    1  N4  UNL     1      -4.444   1.209  32.536  1.00  0.00    -0.375 N
ATOM      2  H4  UNL     1      -5.077   0.564  32.063  1.00  0.00     0.161 HD
ENDROOT
BRANCH   1   3
HETATM    3  C4  UNL     1      -3.750   0.620  33.381  1.00  0.00     0.128 A
HETATM    4  C1  UNL     1      -3.977   0.637  34.723  1.00  0.00     0.105 A
HETATM    5  N1  UNL     1      -5.058   1.346  35.332  1.00  0.00    -0.097 NA
HETATM    6  C2  UNL     1      -3.110  -0.073  35.540  1.00  0.00     0.119 A
HETATM    7  N2  UNL     1      -2.063  -0.774  35.079  1.00  0.00    -0.360 N
HETATM    8  C3  UNL     1      -1.867  -0.771  33.749  1.00  0.00     0.181 A
ATOM      9  H2  UNL     1      -1.445  -1.286  35.709  1.00  0.00     0.166 HD
HETATM   10  N3  UNL     1      -2.679  -0.099  32.928  1.00  0.00    -0.337 N
ATOM     11  H3  UNL     1      -2.493  -0.124  31.926  1.00  0.00     0.168 HD
ENDBRANCH   1   3
BRANCH   1  12
HETATM   12  C5  UNL     1      -4.596   2.510  32.054  1.00  0.00     0.124 C
BRANCH  12  13
HETATM   13  C6  UNL     1      -4.986   2.569  30.569  1.00  0.00     0.056 C
BRANCH  13  14
HETATM   14  C7  UNL     1      -5.557   1.240  30.163  1.00  0.00     0.152 C
BRANCH  14  15
HETATM   15  O1  UNL     1      -6.881   1.385  29.707  1.00  0.00    -0.391 OA
ATOM     16  H1  UNL     1      -7.337   0.552  29.730  1.00  0.00     0.210 HD
ENDBRANCH  14  15
BRANCH  14  17
HETATM   17  C8  UNL     1      -4.808   0.647  29.015  1.00  0.00    -0.030 A
HETATM   18  C9  UNL     1      -5.364   0.620  27.741  1.00  0.00     0.010 A
HETATM   19  C10 UNL     1      -4.710   0.085  26.654  1.00  0.00     0.001 A
HETATM   20  C11 UNL     1      -3.449  -0.450  26.817  1.00  0.00     0.000 A
HETATM   21  C12 UNL     1      -2.858  -0.446  28.060  1.00  0.00     0.001 A
HETATM   22  C13 UNL     1      -3.548   0.102  29.134  1.00  0.00     0.010 A
ENDBRANCH  14  17
ENDBRANCH  13  14
ENDBRANCH  12  13
ENDBRANCH   1  12
TORSDOF 6
ENDMDL