MODEL 1
REMARK VINA RESULT: -9.248515858      0.000      0.000
REMARK  14 active torsions:
REMARK  status: ('A' for Active; 'I' for Inactive)
REMARK    1  A    between atoms: C2_2  and  C3_3
REMARK    2  A    between atoms: C3_3  and  N1_4
REMARK    3  A    between atoms: C3_3  and  C26_38
REMARK       I    between atoms: N1_4  and  C4_6
REMARK    4  A    between atoms: C4_6  and  C5_8
REMARK       I    between atoms: N2_12  and  C9_13
REMARK    5  A    between atoms: C9_13  and  C10_15
REMARK    6  A    between atoms: C10_15  and  N3_16
REMARK    7  A    between atoms: C10_15  and  C22_34
REMARK       I    between atoms: N3_16  and  C11_18
REMARK    8  A    between atoms: C11_18  and  C12_20
REMARK    9  A    between atoms: C12_20  and  N4_21
REMARK   10  A    between atoms: C12_20  and  C18_30
REMARK       I    between atoms: N4_21  and  C13_23
REMARK   11  A    between atoms: C13_23  and  O5_25
REMARK   12  A    between atoms: O5_25  and  C14_26
REMARK   13  A    between atoms: C18_30  and  C20_32
REMARK   14  A    between atoms: C26_38  and  C27_40
REMARK       I    between atoms: C27_40  and  N5_42
ROOT
HETATM    1  C5  UNL     1     -14.292 -20.756  18.061  1.00  0.00     0.179 C
HETATM    2  C6  UNL     1     -14.229 -21.920  19.013  1.00  0.00     0.037 C
HETATM    3  C7  UNL     1     -13.191 -22.814  18.382  1.00  0.00     0.022 C
HETATM    4  C8  UNL     1     -12.391 -21.882  17.458  1.00  0.00     0.127 C
HETATM    5  N2  UNL     1     -12.908 -20.562  17.715  1.00  0.00    -0.337 N
HETATM    6  C9  UNL     1     -12.226 -19.336  17.685  1.00  0.00     0.244 C
HETATM    7  O2  UNL     1     -12.917 -18.290  17.999  1.00  0.00    -0.271 OA
ENDROOT
BRANCH   6   8
HETATM    8  C10 UNL     1     -10.817 -19.099  17.346  1.00  0.00     0.184 C
BRANCH   8   9
HETATM    9  N3  UNL     1     -10.270 -18.061  18.241  1.00  0.00    -0.345 N
HETATM   10  C11 UNL     1      -9.048 -18.219  18.911  1.00  0.00     0.241 C
HETATM   11  O3  UNL     1      -8.453 -19.337  18.681  1.00  0.00    -0.271 OA
ATOM     12  H3  UNL     1     -10.798 -17.199  18.377  1.00  0.00     0.163 HD
BRANCH  10  13
HETATM   13  C12 UNL     1      -8.364 -17.320  19.816  1.00  0.00     0.182 C
BRANCH  13  14
HETATM   14  N4  UNL     1      -7.202 -16.731  19.180  1.00  0.00    -0.323 N
HETATM   15  C13 UNL     1      -7.321 -15.709  18.198  1.00  0.00     0.362 C
HETATM   16  O4  UNL     1      -8.458 -15.295  17.858  1.00  0.00    -0.238 OA
ATOM     17  H4  UNL     1      -6.273 -17.058  19.445  1.00  0.00     0.165 HD
BRANCH  15  18
HETATM   18  O5  UNL     1      -6.223 -15.146  17.593  1.00  0.00    -0.294 OA
BRANCH  18  19
HETATM   19  C14 UNL     1      -5.885 -15.246  16.232  1.00  0.00     0.061 C
HETATM   20  C15 UNL     1      -6.366 -16.550  15.627  1.00  0.00     0.046 C
HETATM   21  C16 UNL     1      -6.460 -14.107  15.412  1.00  0.00     0.046 C
HETATM   22  C17 UNL     1      -4.377 -15.217  16.098  1.00  0.00     0.046 C
ENDBRANCH  18  19
ENDBRANCH  15  18
ENDBRANCH  13  14
BRANCH  13  23
HETATM   23  C18 UNL     1      -7.977 -17.826  21.164  1.00  0.00     0.013 C
HETATM   24  C19 UNL     1      -7.433 -16.787  22.110  1.00  0.00     0.012 C
BRANCH  23  25
HETATM   25  C20 UNL     1      -9.057 -18.634  21.841  1.00  0.00     0.002 C
HETATM   26  C21 UNL     1      -8.535 -20.054  21.958  1.00  0.00     0.005 C
ENDBRANCH  23  25
ENDBRANCH  13  23
ENDBRANCH  10  13
ENDBRANCH   8   9
BRANCH   8  27
HETATM   27  C22 UNL     1     -10.658 -18.627  15.950  1.00  0.00    -0.022 C
HETATM   28  C23 UNL     1     -10.766 -17.080  15.884  1.00  0.00     0.017 C
HETATM   29  C24 UNL     1     -11.663 -19.239  15.036  1.00  0.00     0.017 C
HETATM   30  C25 UNL     1      -9.289 -18.897  15.369  1.00  0.00     0.017 C
ENDBRANCH   8  27
ENDBRANCH   6   8
BRANCH   1  31
HETATM   31  C4  UNL     1     -15.162 -21.083  16.875  1.00  0.00     0.241 C
HETATM   32  N1  UNL     1     -15.989 -22.197  16.933  1.00  0.00    -0.347 N
ATOM     33  H1  UNL     1     -15.927 -22.683  17.828  1.00  0.00     0.163 HD
HETATM   34  O1  UNL     1     -15.064 -20.304  15.909  1.00  0.00    -0.271 OA
BRANCH  32  35
HETATM   35  C3  UNL     1     -16.896 -22.814  16.044  1.00  0.00     0.164 C
BRANCH  35  36
HETATM   36  C2  UNL     1     -17.123 -22.056  14.761  1.00  0.00     0.029 C
HETATM   37  C1  UNL     1     -16.774 -22.787  13.509  1.00  0.00     0.007 C
ENDBRANCH  35  36
BRANCH  35  38
HETATM   38  C26 UNL     1     -18.171 -23.213  16.643  1.00  0.00     0.239 C
HETATM   39  O6  UNL     1     -19.217 -22.590  16.274  1.00  0.00    -0.285 OA
BRANCH  38  40
HETATM   40  C27 UNL     1     -18.236 -24.278  17.625  1.00  0.00     0.291 C
HETATM   41  O7  UNL     1     -18.140 -24.112  18.848  1.00  0.00    -0.264 OA
HETATM   42  N5  UNL     1     -18.426 -25.651  17.189  1.00  0.00    -0.345 N
HETATM   43  C28 UNL     1     -18.535 -26.781  18.068  1.00  0.00     0.126 C
HETATM   44  C31 UNL     1     -18.519 -26.045  15.830  1.00  0.00     0.126 C
HETATM   45  C29 UNL     1     -18.173 -27.955  17.216  1.00  0.00     0.021 C
HETATM   46  C30 UNL     1     -18.643 -27.541  15.823  1.00  0.00     0.021 C
ENDBRANCH  38  40
ENDBRANCH  35  38
ENDBRANCH  32  35
ENDBRANCH   1  31
TORSDOF 14
ENDMDL