MODEL 4
REMARK VINA RESULT: -7.963832886      2.388      5.002
REMARK  17 active torsions:
REMARK  status: ('A' for Active; 'I' for Inactive)
REMARK    1  A    between atoms: C2_2  and  C3_3
REMARK    2  A    between atoms: N1_5  and  C5_6
REMARK    3  A    between atoms: C5_6  and  C6_7
REMARK    4  A    between atoms: C6_7  and  C7_9
REMARK    5  A    between atoms: C12_14  and  O2_15
REMARK    6  A    between atoms: C13_17  and  C15_19
REMARK    7  A    between atoms: C15_19  and  C16_21
REMARK    8  A    between atoms: C16_21  and  N2_23
REMARK       I    between atoms: N2_23  and  C18_25
REMARK    9  A    between atoms: C18_25  and  C19_27
REMARK   10  A    between atoms: C19_27  and  N3_28
REMARK   11  A    between atoms: C19_27  and  C22_34
REMARK   12  A    between atoms: C19_27  and  C30_45
REMARK       I    between atoms: N3_28  and  C20_30
REMARK   13  A    between atoms: C20_30  and  O6_32
REMARK   14  A    between atoms: C22_34  and  O7_35
REMARK   15  A    between atoms: C22_34  and  N4_37
REMARK   16  A    between atoms: N4_37  and  C24_39
REMARK   17  A    between atoms: C24_39  and  C27_42
ROOT
HETATM    1  N2  UNL     1      -8.316 -18.204  17.671  1.00  0.00    -0.347 N
ATOM      2  H2  UNL     1      -7.780 -17.647  17.005  1.00  0.00     0.163 HD
HETATM    3  C18 UNL     1      -7.989 -18.111  19.060  1.00  0.00     0.255 C
HETATM    4  O4  UNL     1      -8.713 -18.682  19.890  1.00  0.00    -0.270 OA
ENDROOT
BRANCH   1   5
HETATM    5  C16 UNL     1      -9.375 -19.056  17.166  1.00  0.00     0.151 C
HETATM    6  C17 UNL     1      -9.272 -18.838  15.640  1.00  0.00     0.040 C
BRANCH   5   7
HETATM    7  C15 UNL     1     -10.724 -18.988  17.667  1.00  0.00     0.162 C
HETATM    8  O3  UNL     1     -11.273 -17.913  17.752  1.00  0.00    -0.295 OA
BRANCH   7   9
HETATM    9  C13 UNL     1     -11.476 -20.211  18.087  1.00  0.00     0.085 C
HETATM   10  C3  UNL     1     -12.106 -21.140  17.186  1.00  0.00     0.190 C
HETATM   11  C4  UNL     1     -11.264 -22.488  17.095  1.00  0.00     0.055 C
HETATM   12  N1  UNL     1     -13.237 -21.694  17.979  1.00  0.00     0.112 N
HETATM   13  C11 UNL     1     -13.766 -20.580  18.741  1.00  0.00     0.307 C
HETATM   14  C12 UNL     1     -12.522 -19.827  19.132  1.00  0.00     0.165 C
HETATM   15  C14 UNL     1     -10.381 -20.960  18.938  1.00  0.00     0.029 C
BRANCH  10  16
HETATM   16  C2  UNL     1     -12.478 -20.836  15.820  1.00  0.00     0.005 C
HETATM   17  C1  UNL     1     -12.898 -19.735  15.264  1.00  0.00     0.009 C
ENDBRANCH  10  16
BRANCH  12  18
HETATM   18  C5  UNL     1     -14.254 -22.308  17.177  1.00  0.00     0.352 C
BRANCH  18  19
HETATM   19  C6  UNL     1     -14.678 -23.554  17.912  1.00  0.00     0.162 C
HETATM   20  O1  UNL     1     -13.770 -24.383  18.117  1.00  0.00    -0.295 OA
BRANCH  19  21
HETATM   21  C7  UNL     1     -16.010 -23.859  18.403  1.00  0.00     0.011 C
HETATM   22  C8  UNL     1     -17.007 -22.921  17.723  1.00  0.00     0.022 C
HETATM   23  C9  UNL     1     -16.449 -25.250  17.918  1.00  0.00     0.022 C
HETATM   24  C10 UNL     1     -16.104 -23.805  19.885  1.00  0.00     0.022 C
ENDBRANCH  19  21
ENDBRANCH  18  19
ENDBRANCH  12  18
BRANCH  14  25
HETATM   25  O2  UNL     1     -12.171 -20.287  20.404  1.00  0.00    -0.393 OA
ATOM     26  H2  UNL     1     -12.306 -19.557  20.997  1.00  0.00     0.210 HD
ENDBRANCH  14  25
ENDBRANCH   7   9
ENDBRANCH   5   7
ENDBRANCH   1   5
BRANCH   3  27
HETATM   27  C19 UNL     1      -6.698 -17.363  19.503  1.00  0.00     0.183 C
BRANCH  27  28
HETATM   28  N3  UNL     1      -6.412 -17.023  18.027  1.00  0.00    -0.311 N
HETATM   29  C20 UNL     1      -5.547 -16.270  17.330  1.00  0.00     0.361 C
HETATM   30  O5  UNL     1      -4.638 -15.586  17.857  1.00  0.00    -0.238 OA
ATOM     31  H3  UNL     1      -7.062 -17.506  17.406  1.00  0.00     0.166 HD
BRANCH  29  32
HETATM   32  O6  UNL     1      -5.636 -16.209  15.922  1.00  0.00    -0.309 OA
HETATM   33  C21 UNL     1      -6.786 -15.929  15.229  1.00  0.00     0.215 C
ENDBRANCH  29  32
ENDBRANCH  27  28
BRANCH  27  34
HETATM   34  C22 UNL     1      -5.688 -18.370  19.730  1.00  0.00     0.153 C
BRANCH  34  35
HETATM   35  O7  UNL     1      -6.206 -19.583  19.448  1.00  0.00    -0.347 OA
ATOM     36  H7  UNL     1      -5.572 -20.251  19.678  1.00  0.00     0.219 HD
ENDBRANCH  34  35
BRANCH  34  37
HETATM   37  N4  UNL     1      -4.381 -18.544  20.134  1.00  0.00    -0.355 N
HETATM   38  C23 UNL     1      -4.208 -18.347  21.652  1.00  0.00     0.152 C
BRANCH  37  39
HETATM   39  C24 UNL     1      -3.144 -18.835  19.542  1.00  0.00     0.044 C
HETATM   40  C25 UNL     1      -1.929 -18.147  20.150  1.00  0.00     0.043 C
HETATM   41  C26 UNL     1      -3.013 -18.706  18.063  1.00  0.00     0.043 C
BRANCH  39  42
HETATM   42  C27 UNL     1      -2.780 -20.330  19.757  1.00  0.00    -0.001 C
HETATM   43  C28 UNL     1      -3.181 -21.190  18.853  1.00  0.00    -0.033 C
HETATM   44  C29 UNL     1      -2.907 -22.659  18.936  1.00  0.00     0.036 C
ENDBRANCH  39  42
ENDBRANCH  37  39
ENDBRANCH  34  37
ENDBRANCH  27  34
BRANCH  27  45
HETATM   45  C30 UNL     1      -7.019 -16.191  20.212  1.00  0.00     0.024 C
HETATM   46  C31 UNL     1      -8.126 -15.340  19.642  1.00  0.00     0.013 C
HETATM   47  C32 UNL     1      -7.219 -16.317  21.722  1.00  0.00     0.013 C
ENDBRANCH  27  45
ENDBRANCH   3  27
TORSDOF 17
ENDMDL