MODEL 1
REMARK VINA RESULT: -8.609621457      0.000      0.000
REMARK  14 active torsions:
REMARK  status: ('A' for Active; 'I' for Inactive)
REMARK    1  A    between atoms: C2_2  and  N1_3
REMARK    2  A    between atoms: N1_3  and  C3_4
REMARK    3  A    between atoms: N1_3  and  S3_41
REMARK    4  A    between atoms: C6_7  and  C7_8
REMARK       I    between atoms: C7_8  and  N2_10
REMARK    5  A    between atoms: N2_10  and  C8_12
REMARK    6  A    between atoms: C9_17  and  C10_18
REMARK    7  A    between atoms: C10_18  and  C11_19
REMARK    8  A    between atoms: C11_19  and  C12_20
REMARK    9  A    between atoms: C12_20  and  C13_21
REMARK   10  A    between atoms: C13_21  and  C14_22
REMARK   11  A    between atoms: C16_26  and  N6_27
REMARK       I    between atoms: N6_27  and  C17_29
REMARK   12  A    between atoms: C17_29  and  C18_31
REMARK   13  A    between atoms: C18_31  and  C19_32
REMARK   14  A    between atoms: C19_32  and  C20_33
ROOT
HETATM    1  C8  UNL     1     -10.894 -18.836  17.899  1.00  0.00     0.168 A
HETATM    2  N3  UNL     1      -9.698 -18.869  17.300  1.00  0.00    -0.279 N
ATOM      3  H3  UNL     1      -8.939 -19.432  17.685  1.00  0.00     0.189 HD
HETATM    4  N4  UNL     1      -9.525 -18.188  16.248  1.00  0.00    -0.296 N
ATOM      5  H4  UNL     1      -8.617 -18.206  15.783  1.00  0.00     0.187 HD
HETATM    6  C9  UNL     1     -10.501 -17.455  15.739  1.00  0.00     0.069 A
HETATM    7  S2  UNL     1     -11.765 -17.780  16.880  1.00  0.00    -0.038 SA
ENDROOT
BRANCH   6   8
HETATM    8  C10 UNL     1     -10.532 -16.586  14.532  1.00  0.00     0.066 C
BRANCH   8   9
HETATM    9  C11 UNL     1      -9.137 -16.266  14.089  1.00  0.00     0.007 C
BRANCH   9  10
HETATM   10  C12 UNL     1      -8.762 -14.884  14.551  1.00  0.00     0.006 C
BRANCH  10  11
HETATM   11  C13 UNL     1      -7.294 -14.706  14.648  1.00  0.00     0.048 C
BRANCH  11  12
HETATM   12  C14 UNL     1      -6.716 -15.434  15.816  1.00  0.00     0.001 A
HETATM   13  C15 UNL     1      -5.609 -16.221  15.942  1.00  0.00     0.104 A
HETATM   14  N5  UNL     1      -5.346 -16.756  17.097  1.00  0.00    -0.345 N
HETATM   15  C16 UNL     1      -6.166 -16.516  18.117  1.00  0.00     0.151 A
ATOM     16  H5  UNL     1      -4.525 -17.349  17.220  1.00  0.00     0.167 HD
HETATM   17  S1  UNL     1      -7.350 -15.502  17.432  1.00  0.00    -0.057 SA
BRANCH  15  18
HETATM   18  N6  UNL     1      -6.067 -16.963  19.351  1.00  0.00    -0.307 N
HETATM   19  C17 UNL     1      -6.897 -16.436  20.349  1.00  0.00     0.224 C
HETATM   20  O2  UNL     1      -6.418 -15.488  21.049  1.00  0.00    -0.273 OA
ATOM     21  H6  UNL     1      -5.389 -17.690  19.580  1.00  0.00     0.171 HD
BRANCH  19  22
HETATM   22  C18 UNL     1      -8.266 -16.909  20.630  1.00  0.00     0.112 C
BRANCH  22  23
HETATM   23  C19 UNL     1      -8.332 -18.006  21.631  1.00  0.00     0.109 C
BRANCH  23  24
HETATM   24  C20 UNL     1      -8.368 -19.366  21.078  1.00  0.00     0.231 C
HETATM   25  N7  UNL     1      -8.739 -20.513  21.796  1.00  0.00    -0.062 NA
HETATM   26  O3  UNL     1      -8.042 -19.529  19.865  1.00  0.00    -0.277 OA
ENDBRANCH  23  24
ENDBRANCH  22  23
ENDBRANCH  19  22
ENDBRANCH  15  18
ENDBRANCH  11  12
ENDBRANCH  10  11
ENDBRANCH   9  10
ENDBRANCH   8   9
ENDBRANCH   6   8
BRANCH   1  27
HETATM   27  N2  UNL     1     -11.255 -19.473  18.991  1.00  0.00    -0.302 N
HETATM   28  C7  UNL     1     -11.322 -20.887  18.888  1.00  0.00     0.257 C
HETATM   29  O1  UNL     1     -10.267 -21.550  18.838  1.00  0.00    -0.267 OA
ATOM     30  H2  UNL     1     -11.475 -18.982  19.858  1.00  0.00     0.171 HD
BRANCH  28  31
HETATM   31  C6  UNL     1     -12.617 -21.544  18.842  1.00  0.00     0.033 A
HETATM   32  C5  UNL     1     -13.747 -20.839  19.157  1.00  0.00     0.019 A
HETATM   33  C4  UNL     1     -14.964 -21.469  19.110  1.00  0.00     0.032 A
HETATM   34  C3  UNL     1     -15.100 -22.796  18.756  1.00  0.00     0.050 A
HETATM   35  C22 UNL     1     -13.975 -23.513  18.438  1.00  0.00    -0.034 A
HETATM   36  C21 UNL     1     -12.733 -22.881  18.482  1.00  0.00     0.026 A
HETATM   37  C23 UNL     1     -14.075 -24.946  18.062  1.00  0.00     0.050 C
BRANCH  34  38
HETATM   38  N1  UNL     1     -16.402 -23.349  18.728  1.00  0.00    -0.276 N
BRANCH  38  39
HETATM   39  C2  UNL     1     -16.942 -23.801  20.000  1.00  0.00     0.137 C
HETATM   40  C1  UNL     1     -16.590 -25.216  20.320  1.00  0.00     0.028 C
ENDBRANCH  38  39
BRANCH  38  41
HETATM   41  S3  UNL     1     -17.244 -23.454  17.257  1.00  0.00     0.229 S
HETATM   42  C24 UNL     1     -16.554 -22.534  15.933  1.00  0.00     0.186 C
HETATM   43  O4  UNL     1     -18.652 -22.928  17.500  1.00  0.00    -0.206 OA
HETATM   44  O5  UNL     1     -17.393 -24.901  16.875  1.00  0.00    -0.206 OA
ENDBRANCH  38  41
ENDBRANCH  34  38
ENDBRANCH  28  31
ENDBRANCH   1  27
TORSDOF 14
ENDMDL