MODEL 5
REMARK VINA RESULT: -8.428265837      1.667      3.697
REMARK  13 active torsions:
REMARK  status: ('A' for Active; 'I' for Inactive)
REMARK    1  A    between atoms: C2_2  and  C4_4
REMARK    2  A    between atoms: C4_4  and  C5_5
REMARK    3  A    between atoms: C5_5  and  C6_6
REMARK    4  A    between atoms: C5_5  and  N4_26
REMARK    5  A    between atoms: C6_6  and  N1_7
REMARK    6  A    between atoms: C6_6  and  C15_23
REMARK       I    between atoms: N1_7  and  C7_9
REMARK    7  A    between atoms: C7_9  and  C8_11
REMARK       I    between atoms: C8_11  and  N2_13
REMARK    8  A    between atoms: N2_13  and  C9_15
REMARK    9  A    between atoms: C9_15  and  N3_17
REMARK   10  A    between atoms: C21_30  and  C22_31
REMARK       I    between atoms: C22_31  and  N5_33
REMARK   11  A    between atoms: N5_33  and  C23_35
REMARK   12  A    between atoms: C23_35  and  C24_36
REMARK   13  A    between atoms: C23_35  and  C30_44
REMARK       I    between atoms: C24_36  and  N6_38
ROOT
HETATM    1  C5  UNL     1     -15.726 -22.377  16.842  1.00  0.00     0.013 C
ENDROOT
BRANCH   1   2
HETATM    2  C4  UNL     1     -15.335 -20.920  16.683  1.00  0.00     0.059 C
BRANCH   2   3
HETATM    3  C2  UNL     1     -14.773 -20.634  15.324  1.00  0.00    -0.017 C
HETATM    4  C1  UNL     1     -13.243 -20.406  15.503  1.00  0.00     0.010 C
HETATM    5  C3  UNL     1     -15.315 -19.287  14.801  1.00  0.00     0.010 C
ENDBRANCH   2   3
ENDBRANCH   1   2
BRANCH   1   6
HETATM    6  C6  UNL     1     -16.840 -22.792  15.947  1.00  0.00     0.134 C
BRANCH   6   7
HETATM    7  N1  UNL     1     -16.904 -24.273  15.888  1.00  0.00    -0.343 N
HETATM    8  C7  UNL     1     -18.090 -24.963  16.149  1.00  0.00     0.310 C
HETATM    9  O1  UNL     1     -19.124 -24.287  16.441  1.00  0.00    -0.262 OA
ATOM     10  H1  UNL     1     -16.064 -24.800  15.652  1.00  0.00     0.163 HD
BRANCH   8  11
HETATM   11  C8  UNL     1     -18.251 -26.405  16.114  1.00  0.00     0.310 C
HETATM   12  O2  UNL     1     -17.552 -27.108  16.892  1.00  0.00    -0.262 OA
HETATM   13  N2  UNL     1     -19.156 -27.058  15.245  1.00  0.00    -0.332 N
ATOM     14  H2  UNL     1     -19.716 -26.478  14.621  1.00  0.00     0.165 HD
BRANCH  13  15
HETATM   15  C9  UNL     1     -19.341 -28.484  15.180  1.00  0.00     0.182 C
HETATM   16  C10 UNL     1     -18.734 -29.004  13.883  1.00  0.00     0.056 C
BRANCH  15  17
HETATM   17  N3  UNL     1     -20.703 -28.836  15.354  1.00  0.00    -0.369 N
HETATM   18  C11 UNL     1     -21.527 -28.996  14.227  1.00  0.00     0.086 C
HETATM   19  C12 UNL     1     -22.321 -27.776  13.821  1.00  0.00     0.212 C
HETATM   20  O3  UNL     1     -22.758 -27.034  14.928  1.00  0.00    -0.385 OA
HETATM   21  C13 UNL     1     -22.774 -27.849  16.063  1.00  0.00     0.187 C
HETATM   22  C14 UNL     1     -21.361 -28.211  16.450  1.00  0.00     0.150 C
ENDBRANCH  15  17
ENDBRANCH  13  15
ENDBRANCH   8  11
ENDBRANCH   6   7
BRANCH   6  23
HETATM   23  C15 UNL     1     -17.044 -22.329  14.589  1.00  0.00     0.006 C
HETATM   24  C16 UNL     1     -18.314 -21.566  14.273  1.00  0.00     0.012 C
HETATM   25  C17 UNL     1     -16.579 -23.124  13.423  1.00  0.00     0.012 C
ENDBRANCH   6  23
ENDBRANCH   1   6
BRANCH   1  26
HETATM   26  N4  UNL     1     -15.706 -22.742  18.163  1.00  0.00    -0.352 N
HETATM   27  C18 UNL     1     -16.782 -23.392  18.783  1.00  0.00     0.065 C
HETATM   28  C19 UNL     1     -16.127 -24.431  19.662  1.00  0.00     0.047 C
HETATM   29  C20 UNL     1     -14.768 -23.868  19.944  1.00  0.00     0.040 C
HETATM   30  C21 UNL     1     -14.735 -22.561  19.105  1.00  0.00     0.181 C
BRANCH  30  31
HETATM   31  C22 UNL     1     -13.367 -22.190  18.836  1.00  0.00     0.241 C
HETATM   32  O4  UNL     1     -12.569 -22.861  18.166  1.00  0.00    -0.271 OA
HETATM   33  N5  UNL     1     -12.873 -20.969  19.366  1.00  0.00    -0.346 N
ATOM     34  H5  UNL     1     -13.505 -20.394  19.924  1.00  0.00     0.163 HD
BRANCH  33  35
HETATM   35  C23 UNL     1     -11.498 -20.491  19.154  1.00  0.00     0.180 C
BRANCH  35  36
HETATM   36  C24 UNL     1     -11.616 -19.234  18.405  1.00  0.00     0.243 C
HETATM   37  O5  UNL     1     -12.697 -18.552  18.602  1.00  0.00    -0.271 OA
HETATM   38  N6  UNL     1     -10.733 -18.646  17.490  1.00  0.00    -0.350 N
HETATM   39  C25 UNL     1      -9.506 -19.259  17.091  1.00  0.00     0.126 C
HETATM   40  C29 UNL     1     -11.011 -17.344  16.865  1.00  0.00     0.126 C
HETATM   41  C26 UNL     1      -9.209 -18.983  15.616  1.00  0.00     0.020 C
HETATM   42  C27 UNL     1      -9.055 -17.514  15.356  1.00  0.00     0.003 C
HETATM   43  C28 UNL     1      -9.708 -16.698  16.420  1.00  0.00     0.020 C
ENDBRANCH  35  36
BRANCH  35  44
HETATM   44  C30 UNL     1     -10.915 -20.248  20.565  1.00  0.00     0.009 C
HETATM   45  C31 UNL     1     -10.403 -18.865  20.751  1.00  0.00     0.012 C
HETATM   46  C32 UNL     1      -9.992 -21.317  21.035  1.00  0.00     0.012 C
ENDBRANCH  35  44
ENDBRANCH  33  35
ENDBRANCH  30  31
ENDBRANCH   1  26
TORSDOF 13
ENDMDL