MODEL 5
REMARK VINA RESULT: -7.971391701      1.659      3.256
REMARK  16 active torsions:
REMARK  status: ('A' for Active; 'I' for Inactive)
REMARK    1  A    between atoms: C2_2  and  N1_3
REMARK    2  A    between atoms: C3_4  and  C4_5
REMARK       I    between atoms: C4_5  and  N2_7
REMARK    3  A    between atoms: N2_7  and  C5_8
REMARK    4  A    between atoms: N2_7  and  C9_12
REMARK    5  A    between atoms: C5_8  and  C6_9
REMARK    6  A    between atoms: C9_12  and  C10_13
REMARK    7  A    between atoms: C10_13  and  C11_14
REMARK    8  A    between atoms: C10_13  and  C14_17
REMARK    9  A    between atoms: C14_17  and  O2_18
REMARK   10  A    between atoms: C14_17  and  N3_20
REMARK       I    between atoms: N3_20  and  C15_22
REMARK   11  A    between atoms: C15_22  and  C16_24
REMARK   12  A    between atoms: C16_24  and  C17_25
REMARK   13  A    between atoms: C16_24  and  N4_29
REMARK   14  A    between atoms: C17_25  and  C18_26
REMARK       I    between atoms: N4_29  and  C21_31
REMARK   15  A    between atoms: C21_31  and  O5_33
REMARK   16  A    between atoms: O5_33  and  C22_34
ROOT
HETATM    1  C10 UNL     1     -11.352 -19.761  17.209  1.00  0.00    -0.013 C
ENDROOT
BRANCH   1   2
HETATM    2  C9  UNL     1      -9.971 -19.388  17.582  1.00  0.00     0.101 C
BRANCH   2   3
HETATM    3  N2  UNL     1      -9.226 -18.314  17.086  1.00  0.00    -0.325 N
HETATM    4  C4  UNL     1      -8.329 -17.532  17.897  1.00  0.00     0.252 C
HETATM    5  O1  UNL     1      -7.620 -16.704  17.268  1.00  0.00    -0.270 OA
BRANCH   4   6
HETATM    6  C3  UNL     1      -8.154 -17.581  19.343  1.00  0.00     0.227 C
HETATM    7  N1  UNL     1      -7.196 -18.584  19.687  1.00  0.00    -0.188 NA
HETATM    8  S2  UNL     1      -5.617 -18.055  19.982  1.00  0.00     0.213 S
HETATM    9  C27 UNL     1      -5.493 -17.094  21.473  1.00  0.00     0.168 C
HETATM   10  O6  UNL     1      -4.733 -19.281  20.129  1.00  0.00    -0.211 OA
HETATM   11  O7  UNL     1      -5.106 -17.263  18.819  1.00  0.00    -0.211 OA
HETATM   12  C26 UNL     1      -6.822 -16.382  21.674  1.00  0.00     0.092 C
HETATM   13  S1  UNL     1      -7.615 -16.037  20.090  1.00  0.00    -0.138 SA
BRANCH   7  14
HETATM   14  C2  UNL     1      -7.706 -19.525  20.654  1.00  0.00     0.104 C
HETATM   15  C1  UNL     1      -9.063 -19.048  21.170  1.00  0.00     0.022 C
ENDBRANCH   7  14
ENDBRANCH   4   6
BRANCH   3  16
HETATM   16  C5  UNL     1      -9.308 -17.959  15.675  1.00  0.00     0.135 C
BRANCH  16  17
HETATM   17  C6  UNL     1     -10.179 -16.835  15.300  1.00  0.00    -0.004 C
HETATM   18  C7  UNL     1     -11.563 -17.216  14.775  1.00  0.00     0.011 C
HETATM   19  C8  UNL     1      -9.595 -15.742  14.469  1.00  0.00     0.011 C
ENDBRANCH  16  17
ENDBRANCH   3  16
ENDBRANCH   2   3
ENDBRANCH   1   2
BRANCH   1  20
HETATM   20  C11 UNL     1     -12.407 -19.694  18.247  1.00  0.00     0.012 C
HETATM   21  C12 UNL     1     -11.996 -20.232  19.609  1.00  0.00     0.014 C
HETATM   22  C13 UNL     1     -12.813 -18.237  18.575  1.00  0.00     0.014 C
ENDBRANCH   1  20
BRANCH   1  23
HETATM   23  C14 UNL     1     -11.422 -20.941  16.274  1.00  0.00     0.252 C
BRANCH  23  24
HETATM   24  O2  UNL     1     -10.601 -21.966  16.724  1.00  0.00    -0.373 OA
ATOM     25  H2  UNL     1     -10.427 -22.584  16.023  1.00  0.00     0.212 HD
ENDBRANCH  23  24
BRANCH  23  26
HETATM   26  N3  UNL     1     -12.780 -21.539  16.380  1.00  0.00    -0.326 N
HETATM   27  C15 UNL     1     -13.659 -21.646  15.307  1.00  0.00     0.266 C
HETATM   28  O3  UNL     1     -13.197 -21.188  14.184  1.00  0.00    -0.266 OA
ATOM     29  H3  UNL     1     -13.084 -21.890  17.288  1.00  0.00     0.165 HD
BRANCH  27  30
HETATM   30  C16 UNL     1     -15.009 -22.189  15.223  1.00  0.00     0.082 C
BRANCH  30  31
HETATM   31  C17 UNL     1     -16.153 -21.271  15.065  1.00  0.00     0.067 C
BRANCH  31  32
HETATM   32  C18 UNL     1     -17.214 -21.637  14.088  1.00  0.00    -0.017 C
HETATM   33  C19 UNL     1     -18.510 -21.934  14.856  1.00  0.00     0.010 C
HETATM   34  C20 UNL     1     -16.896 -22.952  13.369  1.00  0.00     0.010 C
ENDBRANCH  31  32
ENDBRANCH  30  31
BRANCH  30  35
HETATM   35  N4  UNL     1     -15.298 -23.238  16.191  1.00  0.00    -0.301 N
HETATM   36  C21 UNL     1     -15.476 -23.046  17.569  1.00  0.00     0.365 C
HETATM   37  O4  UNL     1     -15.393 -21.905  18.059  1.00  0.00    -0.238 OA
ATOM     38  H4  UNL     1     -15.378 -24.191  15.837  1.00  0.00     0.171 HD
BRANCH  36  39
HETATM   39  O5  UNL     1     -15.740 -24.109  18.394  1.00  0.00    -0.294 OA
BRANCH  39  40
HETATM   40  C22 UNL     1     -17.011 -24.658  18.626  1.00  0.00     0.061 C
HETATM   41  C23 UNL     1     -18.113 -23.847  18.016  1.00  0.00     0.046 C
HETATM   42  C24 UNL     1     -17.122 -26.086  18.163  1.00  0.00     0.046 C
HETATM   43  C25 UNL     1     -17.253 -24.666  20.134  1.00  0.00     0.046 C
ENDBRANCH  39  40
ENDBRANCH  36  39
ENDBRANCH  30  35
ENDBRANCH  27  30
ENDBRANCH  23  26
ENDBRANCH   1  23
TORSDOF 16
ENDMDL