MODEL 1
REMARK VINA RESULT: -9.333508175      0.000      0.000
REMARK  16 active torsions:
REMARK  status: ('A' for Active; 'I' for Inactive)
REMARK    1  A    between atoms: C2_2  and  C3_3
REMARK    2  A    between atoms: C3_3  and  C4_4
REMARK    3  A    between atoms: C3_3  and  C5_7
REMARK    4  A    between atoms: C5_7  and  O3_8
REMARK    5  A    between atoms: C5_7  and  C11_17
REMARK    6  A    between atoms: O3_8  and  C6_9
REMARK       I    between atoms: C6_9  and  N1_11
REMARK    7  A    between atoms: C11_17  and  O6_18
REMARK    8  A    between atoms: C11_17  and  C12_20
REMARK    9  A    between atoms: C12_20  and  C13_21
REMARK   10  A    between atoms: C12_20  and  C20_28
REMARK   11  A    between atoms: C13_21  and  C14_22
REMARK   12  A    between atoms: C20_28  and  O7_29
REMARK   13  A    between atoms: C20_28  and  C21_31
REMARK   14  A    between atoms: C21_31  and  C22_32
REMARK   15  A    between atoms: C21_31  and  N2_35
REMARK       I    between atoms: N3_38  and  C26_39
REMARK   16  A    between atoms: C26_39  and  C27_41
ROOT
HETATM    1  C12 UNL     1     -10.144 -18.324  18.776  1.00  0.00     0.049 C
ENDROOT
BRANCH   1   2
HETATM    2  C11 UNL     1      -8.945 -18.367  19.599  1.00  0.00     0.155 C
BRANCH   2   3
HETATM    3  C5  UNL     1      -8.214 -17.176  20.086  1.00  0.00     0.177 C
BRANCH   3   4
HETATM    4  C3  UNL     1      -7.420 -17.237  21.315  1.00  0.00     0.118 C
BRANCH   4   5
HETATM    5  C2  UNL     1      -7.365 -15.821  21.921  1.00  0.00     0.013 C
HETATM    6  C1  UNL     1      -7.510 -15.815  23.401  1.00  0.00     0.006 C
ENDBRANCH   4   5
BRANCH   4   7
HETATM    7  C4  UNL     1      -5.952 -17.489  21.024  1.00  0.00     0.179 C
HETATM    8  O1  UNL     1      -5.527 -18.620  20.754  1.00  0.00    -0.648 OA
HETATM    9  O2  UNL     1      -5.082 -16.425  21.063  1.00  0.00    -0.648 OA
ENDBRANCH   4   7
ENDBRANCH   3   4
BRANCH   3  10
HETATM   10  O3  UNL     1      -7.225 -16.859  19.047  1.00  0.00    -0.295 OA
BRANCH  10  11
HETATM   11  C6  UNL     1      -7.365 -15.845  18.153  1.00  0.00     0.363 C
HETATM   12  O4  UNL     1      -8.360 -15.065  18.271  1.00  0.00    -0.238 OA
HETATM   13  N1  UNL     1      -6.418 -15.656  17.107  1.00  0.00    -0.324 N
HETATM   14  C7  UNL     1      -5.299 -16.539  16.998  1.00  0.00     0.154 C
HETATM   15  C10 UNL     1      -6.598 -14.590  16.161  1.00  0.00     0.154 C
HETATM   16  C8  UNL     1      -4.067 -15.690  16.667  1.00  0.00     0.187 C
HETATM   17  O5  UNL     1      -4.348 -14.907  15.568  1.00  0.00    -0.388 OA
HETATM   18  C9  UNL     1      -5.263 -13.920  15.932  1.00  0.00     0.187 C
ENDBRANCH  10  11
ENDBRANCH   3  10
ENDBRANCH   2   3
BRANCH   2  19
HETATM   19  O6  UNL     1      -7.975 -19.119  18.841  1.00  0.00    -0.392 OA
ATOM     20  H6  UNL     1      -8.488 -19.668  18.260  1.00  0.00     0.210 HD
ENDBRANCH   2  19
ENDBRANCH   1   2
BRANCH   1  21
HETATM   21  C13 UNL     1     -10.135 -18.637  17.334  1.00  0.00     0.014 C
BRANCH  21  22
HETATM   22  C14 UNL     1      -9.925 -17.591  16.310  1.00  0.00    -0.014 C
HETATM   23  C15 UNL     1     -11.034 -17.634  15.284  1.00  0.00     0.005 C
HETATM   24  C16 UNL     1     -10.868 -16.542  14.242  1.00  0.00     0.000 C
HETATM   25  C17 UNL     1      -9.454 -16.019  14.229  1.00  0.00     0.000 C
HETATM   26  C18 UNL     1      -8.516 -17.195  14.281  1.00  0.00     0.000 C
HETATM   27  C19 UNL     1      -8.665 -18.024  15.527  1.00  0.00     0.005 C
ENDBRANCH  21  22
ENDBRANCH   1  21
BRANCH   1  28
HETATM   28  C20 UNL     1     -11.430 -18.830  19.398  1.00  0.00     0.165 C
BRANCH  28  29
HETATM   29  O7  UNL     1     -11.645 -18.017  20.562  1.00  0.00    -0.392 OA
ATOM     30  H7  UNL     1     -12.513 -18.243  20.877  1.00  0.00     0.210 HD
ENDBRANCH  28  29
BRANCH  28  31
HETATM   31  C21 UNL     1     -11.725 -20.218  19.620  1.00  0.00     0.320 C
BRANCH  31  32
HETATM   32  C22 UNL     1     -10.738 -21.281  19.629  1.00  0.00     0.159 C
HETATM   33  C23 UNL     1      -9.857 -21.744  20.724  1.00  0.00     0.093 C
HETATM   34  O8  UNL     1     -10.561 -21.934  18.584  1.00  0.00    -0.296 OA
ENDBRANCH  31  32
BRANCH  31  35
HETATM   35  N2  UNL     1     -12.798 -20.643  18.693  1.00  0.00     0.106 N
HETATM   36  C24 UNL     1     -13.657 -21.659  19.135  1.00  0.00     0.293 C
HETATM   37  C25 UNL     1     -14.980 -21.580  18.358  1.00  0.00     0.156 C
HETATM   38  N3  UNL     1     -14.796 -21.082  17.027  1.00  0.00    -0.348 N
HETATM   39  C26 UNL     1     -15.109 -21.827  15.881  1.00  0.00     0.223 C
HETATM   40  C30 UNL     1     -14.252 -19.748  16.900  1.00  0.00     0.156 C
HETATM   41  O9  UNL     1     -15.572 -22.982  16.044  1.00  0.00    -0.273 OA
HETATM   42  C31 UNL     1     -13.513 -19.473  18.202  1.00  0.00     0.293 C
BRANCH  39  43
HETATM   43  C27 UNL     1     -14.923 -21.321  14.504  1.00  0.00     0.070 C
HETATM   44  C28 UNL     1     -13.451 -21.096  14.271  1.00  0.00     0.019 C
HETATM   45  C29 UNL     1     -15.492 -22.252  13.454  1.00  0.00     0.019 C
ENDBRANCH  39  43
ENDBRANCH  31  35
ENDBRANCH  28  31
ENDBRANCH   1  28
TORSDOF 16
ENDMDL