MODEL 4
REMARK VINA RESULT: -8.219158314      2.471      4.439
REMARK  15 active torsions:
REMARK  status: ('A' for Active; 'I' for Inactive)
REMARK    1  A    between atoms: C2_2  and  O2_4
REMARK    2  A    between atoms: O2_4  and  C3_5
REMARK    3  A    between atoms: C3_5  and  C4_6
REMARK    4  A    between atoms: C3_5  and  C8_10
REMARK    5  A    between atoms: C4_6  and  C5_7
REMARK    6  A    between atoms: C8_10  and  C9_12
REMARK    7  A    between atoms: C9_12  and  N1_13
REMARK       I    between atoms: N1_13  and  C10_15
REMARK    8  A    between atoms: C10_15  and  C11_17
REMARK    9  A    between atoms: C11_17  and  N2_18
REMARK   10  A    between atoms: C11_17  and  C27_44
REMARK   11  A    between atoms: N2_18  and  C12_20
REMARK   12  A    between atoms: C14_22  and  C15_23
REMARK   13  A    between atoms: C14_22  and  C21_32
REMARK   14  A    between atoms: C15_23  and  C16_24
REMARK   15  A    between atoms: C21_32  and  O7_33
ROOT
HETATM    1  C12 UNL     1     -12.679 -18.580  15.669  1.00  0.00     0.288 A
HETATM    2  C13 UNL     1     -12.298 -19.829  14.988  1.00  0.00     0.102 A
HETATM    3  C14 UNL     1     -13.691 -20.358  15.554  1.00  0.00     0.195 A
HETATM    4  N4  UNL     1     -13.915 -19.086  16.066  1.00  0.00    -0.038 N
ATOM      5  H41 UNL     1     -14.754 -18.590  15.765  1.00  0.00     0.281 HD
ATOM      6  H42 UNL     1     -14.171 -19.005  17.050  1.00  0.00     0.281 HD
ENDROOT
BRANCH   1   7
HETATM    7  N2  UNL     1     -11.848 -18.040  16.712  1.00  0.00    -0.361 N
ATOM      8  H2  UNL     1     -12.132 -17.200  17.216  1.00  0.00     0.161 HD
BRANCH   7   9
HETATM    9  C11 UNL     1     -10.646 -18.683  17.025  1.00  0.00     0.078 C
BRANCH   9  10
HETATM   10  C10 UNL     1     -10.597 -19.222  18.383  1.00  0.00     0.264 C
HETATM   11  N1  UNL     1     -10.492 -18.429  19.598  1.00  0.00    -0.349 N
ATOM     12  H1  UNL     1     -10.513 -17.412  19.515  1.00  0.00     0.163 HD
HETATM   13  O4  UNL     1     -10.643 -20.472  18.604  1.00  0.00    -0.266 OA
BRANCH  11  14
HETATM   14  C9  UNL     1     -10.362 -18.997  20.893  1.00  0.00     0.208 C
BRANCH  14  15
HETATM   15  C8  UNL     1      -8.966 -19.303  21.353  1.00  0.00     0.196 C
HETATM   16  O3  UNL     1      -8.757 -20.367  21.859  1.00  0.00    -0.289 OA
BRANCH  15  17
HETATM   17  C3  UNL     1      -7.938 -18.232  21.119  1.00  0.00     0.104 C
BRANCH  17  18
HETATM   18  O2  UNL     1      -8.297 -16.942  21.415  1.00  0.00    -0.280 OA
BRANCH  18  19
HETATM   19  C2  UNL     1      -7.614 -15.918  22.013  1.00  0.00     0.259 C
HETATM   20  C1  UNL     1      -7.428 -15.815  23.487  1.00  0.00     0.126 C
HETATM   21  O1  UNL     1      -7.134 -15.043  21.219  1.00  0.00    -0.265 OA
ENDBRANCH  18  19
ENDBRANCH  17  18
BRANCH  17  22
HETATM   22  C4  UNL     1      -6.520 -18.623  21.159  1.00  0.00     0.073 C
BRANCH  22  23
HETATM   23  C5  UNL     1      -5.776 -18.818  19.893  1.00  0.00    -0.017 C
HETATM   24  C6  UNL     1      -5.739 -17.462  19.210  1.00  0.00     0.010 C
HETATM   25  C7  UNL     1      -4.320 -19.180  20.123  1.00  0.00     0.010 C
ENDBRANCH  22  23
ENDBRANCH  17  22
ENDBRANCH  15  17
ENDBRANCH  14  15
ENDBRANCH  11  14
ENDBRANCH   9  10
BRANCH   9  26
HETATM   26  C27 UNL     1      -9.319 -18.196  16.597  1.00  0.00     0.033 C
HETATM   27  C28 UNL     1      -9.445 -16.629  16.629  1.00  0.00     0.016 C
HETATM   28  C29 UNL     1      -8.839 -18.508  15.238  1.00  0.00     0.016 C
ENDBRANCH   9  26
ENDBRANCH   7   9
ENDBRANCH   1   7
BRANCH   3  29
HETATM   29  C15 UNL     1     -14.488 -20.871  14.420  1.00  0.00     0.052 C
BRANCH  29  30
HETATM   30  C16 UNL     1     -15.315 -22.114  14.602  1.00  0.00    -0.010 C
HETATM   31  C17 UNL     1     -15.568 -22.576  13.138  1.00  0.00     0.019 C
HETATM   32  C18 UNL     1     -16.254 -23.928  13.135  1.00  0.00     0.140 C
HETATM   33  S1  UNL     1     -17.942 -23.512  13.654  1.00  0.00     0.144 S
HETATM   34  O5  UNL     1     -18.778 -24.722  13.719  1.00  0.00    -0.228 OA
HETATM   35  O6  UNL     1     -18.452 -22.504  12.631  1.00  0.00    -0.228 OA
HETATM   36  C19 UNL     1     -17.741 -22.660  15.195  1.00  0.00     0.140 C
HETATM   37  C20 UNL     1     -16.692 -21.610  15.067  1.00  0.00     0.019 C
ENDBRANCH  29  30
ENDBRANCH   3  29
BRANCH   3  38
HETATM   38  C21 UNL     1     -13.302 -21.377  16.603  1.00  0.00     0.151 C
HETATM   39  N3  UNL     1     -13.830 -21.890  17.713  1.00  0.00    -0.363 N
HETATM   40  C22 UNL     1     -13.101 -23.100  18.357  1.00  0.00     0.124 C
HETATM   41  C26 UNL     1     -14.939 -21.562  18.550  1.00  0.00     0.124 C
HETATM   42  C23 UNL     1     -14.029 -24.245  18.180  1.00  0.00     0.020 C
HETATM   43  C24 UNL     1     -15.422 -23.816  17.700  1.00  0.00     0.003 C
HETATM   44  C25 UNL     1     -15.982 -22.698  18.546  1.00  0.00     0.020 C
BRANCH  38  45
HETATM   45  O7  UNL     1     -12.098 -21.881  16.283  1.00  0.00    -0.348 OA
ATOM     46  H7  UNL     1     -11.930 -22.636  16.835  1.00  0.00     0.219 HD
ENDBRANCH  38  45
ENDBRANCH   3  38
TORSDOF 15
ENDMDL