MODEL 3
REMARK VINA RESULT: -8.898036293      3.696      7.067
REMARK  13 active torsions:
REMARK  status: ('A' for Active; 'I' for Inactive)
REMARK    1  A    between atoms: C2_2  and  C3_3
REMARK    2  A    between atoms: C3_3  and  C4_4
REMARK    3  A    between atoms: C4_4  and  N1_5
REMARK    4  A    between atoms: C4_4  and  C11_22
REMARK       I    between atoms: N1_5  and  C5_7
REMARK    5  A    between atoms: C5_7  and  C6_9
REMARK       I    between atoms: C6_9  and  N2_11
REMARK    6  A    between atoms: C8_18  and  C9_19
REMARK    7  A    between atoms: C11_22  and  C12_24
REMARK    8  A    between atoms: C12_24  and  C13_26
REMARK       I    between atoms: C13_26  and  N5_28
REMARK    9  A    between atoms: C19_34  and  C20_35
REMARK       I    between atoms: C20_35  and  N6_37
REMARK   10  A    between atoms: N6_37  and  C21_39
REMARK   11  A    between atoms: C21_39  and  C22_40
REMARK   12  A    between atoms: C21_39  and  C26_44
REMARK   13  A    between atoms: C22_40  and  C23_41
ROOT
HETATM    1  C12 UNL     1     -14.706 -22.176  16.731  1.00  0.00     0.286 C
HETATM    2  O4  UNL     1     -14.447 -23.405  16.738  1.00  0.00    -0.278 OA
ENDROOT
BRANCH   1   3
HETATM    3  C11 UNL     1     -15.781 -21.815  15.771  1.00  0.00     0.227 C
HETATM    4  O3  UNL     1     -15.615 -20.737  15.150  1.00  0.00    -0.286 OA
BRANCH   3   5
HETATM    5  C4  UNL     1     -16.958 -22.656  15.551  1.00  0.00     0.163 C
BRANCH   5   6
HETATM    6  C3  UNL     1     -16.854 -23.296  14.169  1.00  0.00     0.033 C
BRANCH   6   7
HETATM    7  C2  UNL     1     -18.099 -23.055  13.348  1.00  0.00    -0.002 C
HETATM    8  C1  UNL     1     -17.959 -23.803  12.038  1.00  0.00     0.005 C
ENDBRANCH   6   7
ENDBRANCH   5   6
BRANCH   5   9
HETATM    9  N1  UNL     1     -17.116 -23.735  16.501  1.00  0.00    -0.341 N
HETATM   10  C5  UNL     1     -18.146 -23.719  17.487  1.00  0.00     0.310 C
HETATM   11  O1  UNL     1     -18.893 -22.726  17.485  1.00  0.00    -0.262 OA
ATOM     12  H1  UNL     1     -16.475 -24.528  16.465  1.00  0.00     0.163 HD
BRANCH  10  13
HETATM   13  C6  UNL     1     -18.343 -24.779  18.451  1.00  0.00     0.315 C
HETATM   14  O2  UNL     1     -17.963 -24.494  19.659  1.00  0.00    -0.262 OA
HETATM   15  N2  UNL     1     -18.865 -26.034  18.280  1.00  0.00    -0.298 N
HETATM   16  C7  UNL     1     -18.961 -26.849  17.300  1.00  0.00     0.168 A
ATOM     17  H2  UNL     1     -19.276 -26.406  19.137  1.00  0.00     0.171 HD
HETATM   18  N3  UNL     1     -19.529 -28.069  17.346  1.00  0.00    -0.279 N
HETATM   19  S1  UNL     1     -18.465 -26.796  15.649  1.00  0.00    -0.038 SA
HETATM   20  N4  UNL     1     -19.551 -28.773  16.305  1.00  0.00    -0.296 N
ATOM     21  H3  UNL     1     -19.935 -28.418  18.215  1.00  0.00     0.189 HD
HETATM   22  C8  UNL     1     -19.027 -28.331  15.170  1.00  0.00     0.069 A
ATOM     23  H4  UNL     1     -19.980 -29.698  16.332  1.00  0.00     0.187 HD
BRANCH  22  24
HETATM   24  C9  UNL     1     -18.954 -29.037  13.841  1.00  0.00     0.062 C
HETATM   25  C10 UNL     1     -18.270 -28.114  12.878  1.00  0.00     0.012 C
ENDBRANCH  22  24
ENDBRANCH  10  13
ENDBRANCH   5   9
ENDBRANCH   3   5
ENDBRANCH   1   3
BRANCH   1  26
HETATM   26  C13 UNL     1     -14.053 -21.198  17.546  1.00  0.00     0.298 C
HETATM   27  O5  UNL     1     -14.625 -20.965  18.678  1.00  0.00    -0.264 OA
HETATM   28  N5  UNL     1     -12.874 -20.460  17.279  1.00  0.00    -0.332 N
HETATM   29  C14 UNL     1     -12.209 -20.576  16.019  1.00  0.00     0.127 C
HETATM   30  C19 UNL     1     -12.379 -19.614  18.380  1.00  0.00     0.179 C
HETATM   31  C15 UNL     1     -11.566 -19.301  15.512  1.00  0.00     0.020 C
HETATM   32  C16 UNL     1     -12.360 -18.066  15.755  1.00  0.00     0.002 C
HETATM   33  C17 UNL     1     -12.089 -17.442  17.106  1.00  0.00     0.002 C
HETATM   34  C18 UNL     1     -12.710 -18.187  18.228  1.00  0.00     0.035 C
BRANCH  30  35
HETATM   35  C20 UNL     1     -10.997 -19.949  18.738  1.00  0.00     0.241 C
HETATM   36  O6  UNL     1     -10.546 -21.131  18.548  1.00  0.00    -0.271 OA
HETATM   37  N6  UNL     1     -10.067 -19.044  19.300  1.00  0.00    -0.354 N
ATOM     38  H6  UNL     1     -10.382 -18.090  19.476  1.00  0.00     0.162 HD
BRANCH  37  39
HETATM   39  C21 UNL     1      -8.705 -19.375  19.641  1.00  0.00     0.092 C
BRANCH  39  40
HETATM   40  C22 UNL     1      -7.709 -18.474  18.981  1.00  0.00     0.029 C
BRANCH  40  41
HETATM   41  C23 UNL     1      -8.325 -17.240  18.388  1.00  0.00    -0.021 C
HETATM   42  C24 UNL     1      -8.266 -17.156  16.903  1.00  0.00     0.009 C
HETATM   43  C25 UNL     1      -7.575 -16.046  18.970  1.00  0.00     0.009 C
ENDBRANCH  40  41
ENDBRANCH  39  40
BRANCH  39  44
HETATM   44  C26 UNL     1      -8.563 -19.449  21.125  1.00  0.00    -0.031 C
HETATM   45  C27 UNL     1      -9.449 -18.349  21.730  1.00  0.00     0.016 C
HETATM   46  C28 UNL     1      -7.131 -19.157  21.506  1.00  0.00     0.016 C
HETATM   47  C29 UNL     1      -9.015 -20.736  21.726  1.00  0.00     0.016 C
ENDBRANCH  39  44
ENDBRANCH  37  39
ENDBRANCH  30  35
ENDBRANCH   1  26
TORSDOF 13
ENDMDL