MODEL 3
REMARK VINA RESULT: -9.292147532      1.080      1.249
REMARK  15 active torsions:
REMARK  status: ('A' for Active; 'I' for Inactive)
REMARK    1  A    between atoms: N3_4  and  C2_6
REMARK    2  A    between atoms: C2_6  and  C3_7
REMARK    3  A    between atoms: C3_7  and  C4_8
REMARK    4  A    between atoms: C4_8  and  C5_9
REMARK    5  A    between atoms: C16_22  and  C17_23
REMARK    6  A    between atoms: C18_24  and  C19_25
REMARK    7  A    between atoms: C19_25  and  C20_26
REMARK    8  A    between atoms: C20_26  and  C21_27
REMARK    9  A    between atoms: C21_27  and  C22_28
REMARK   10  A    between atoms: C22_28  and  C23_29
REMARK   11  A    between atoms: C23_29  and  C24_30
REMARK   12  A    between atoms: C24_30  and  C25_31
REMARK       I    between atoms: C25_31  and  N4_33
REMARK   13  A    between atoms: C30_39  and  O5_40
REMARK   14  A    between atoms: N5_42  and  N6_43
REMARK   15  A    between atoms: C31_46  and  O6_47
ROOT
HETATM    1  C5  UNL     1     -13.919 -20.733  15.322  1.00  0.00     0.062 C
HETATM    2  C6  UNL     1     -15.067 -21.013  14.351  1.00  0.00     0.013 C
HETATM    3  C7  UNL     1     -16.330 -21.448  15.053  1.00  0.00     0.001 C
HETATM    4  C8  UNL     1     -17.067 -22.537  14.306  1.00  0.00     0.004 C
HETATM    5  C9  UNL     1     -17.218 -23.792  15.133  1.00  0.00     0.027 C
HETATM    6  C10 UNL     1     -18.254 -23.622  16.187  1.00  0.00    -0.031 C
HETATM    7  C11 UNL     1     -18.329 -24.372  17.279  1.00  0.00    -0.031 C
HETATM    8  C12 UNL     1     -17.395 -25.485  17.608  1.00  0.00     0.027 C
HETATM    9  C13 UNL     1     -16.898 -25.420  19.021  1.00  0.00     0.013 C
HETATM   10  C14 UNL     1     -15.981 -24.285  19.327  1.00  0.00     0.111 C
HETATM   11  C15 UNL     1     -14.786 -24.252  18.455  1.00  0.00     0.259 C
HETATM   12  O1  UNL     1     -14.366 -25.390  18.064  1.00  0.00    -0.265 OA
HETATM   13  O2  UNL     1     -14.193 -23.108  18.103  1.00  0.00    -0.304 OA
HETATM   14  C16 UNL     1     -13.560 -22.075  18.759  1.00  0.00     0.230 C
HETATM   15  C30 UNL     1     -14.254 -20.762  18.699  1.00  0.00     0.172 C
HETATM   16  N5  UNL     1     -14.197 -19.764  17.723  1.00  0.00    -0.223 N
HETATM   17  C31 UNL     1     -14.367 -19.752  16.332  1.00  0.00     0.143 C
ENDROOT
BRANCH  14  18
HETATM   18  C17 UNL     1     -12.123 -22.013  18.354  1.00  0.00     0.010 C
HETATM   19  C18 UNL     1     -11.155 -21.426  18.992  1.00  0.00    -0.028 C
BRANCH  19  20
HETATM   20  C19 UNL     1     -11.312 -20.697  20.259  1.00  0.00     0.027 C
BRANCH  20  21
HETATM   21  C20 UNL     1     -10.960 -19.224  20.083  1.00  0.00     0.004 C
BRANCH  21  22
HETATM   22  C21 UNL     1     -10.041 -18.781  21.175  1.00  0.00     0.000 C
BRANCH  22  23
HETATM   23  C22 UNL     1      -9.058 -19.815  21.634  1.00  0.00     0.000 C
BRANCH  23  24
HETATM   24  C23 UNL     1      -7.644 -19.390  21.334  1.00  0.00     0.009 C
BRANCH  24  25
HETATM   25  C24 UNL     1      -7.410 -17.911  21.463  1.00  0.00     0.103 C
BRANCH  25  26
HETATM   26  C25 UNL     1      -6.300 -17.496  20.566  1.00  0.00     0.219 C
HETATM   27  O3  UNL     1      -5.171 -18.023  20.676  1.00  0.00    -0.273 OA
HETATM   28  N4  UNL     1      -6.511 -16.509  19.585  1.00  0.00    -0.348 N
HETATM   29  C26 UNL     1      -5.409 -16.117  18.705  1.00  0.00     0.152 C
HETATM   30  C29 UNL     1      -7.806 -15.843  19.397  1.00  0.00     0.152 C
HETATM   31  C27 UNL     1      -5.949 -15.934  17.293  1.00  0.00     0.187 C
HETATM   32  O4  UNL     1      -7.051 -15.086  17.274  1.00  0.00    -0.388 OA
HETATM   33  C28 UNL     1      -8.103 -15.743  17.909  1.00  0.00     0.187 C
ENDBRANCH  25  26
ENDBRANCH  24  25
ENDBRANCH  23  24
ENDBRANCH  22  23
ENDBRANCH  21  22
ENDBRANCH  20  21
ENDBRANCH  19  20
ENDBRANCH  14  18
BRANCH  15  34
HETATM   34  O5  UNL     1     -15.012 -20.586  19.750  1.00  0.00    -0.346 OA
ATOM     35  H5  UNL     1     -15.062 -19.666  19.981  1.00  0.00     0.219 HD
ENDBRANCH  15  34
BRANCH  16  36
HETATM   36  N6  UNL     1     -13.914 -18.449  18.249  1.00  0.00    -0.335 N
ATOM     37  H62 UNL     1     -14.720 -18.044  18.725  1.00  0.00     0.177 HD
ATOM     38  H61 UNL     1     -12.960 -18.132  18.076  1.00  0.00     0.177 HD
ENDBRANCH  16  36
BRANCH  17  39
HETATM   39  O6  UNL     1     -15.001 -18.778  15.732  1.00  0.00    -0.348 OA
ATOM     40  H6  UNL     1     -14.857 -17.971  16.211  1.00  0.00     0.219 HD
ENDBRANCH  17  39
BRANCH   1  41
HETATM   41  C4  UNL     1     -12.740 -20.282  14.496  1.00  0.00     0.014 C
BRANCH  41  42
HETATM   42  C3  UNL     1     -11.519 -19.919  15.244  1.00  0.00     0.020 C
BRANCH  42  43
HETATM   43  C2  UNL     1     -11.343 -18.397  15.358  1.00  0.00     0.122 C
BRANCH  43  44
HETATM   44  N3  UNL     1      -9.906 -18.184  15.151  1.00  0.00    -0.367 N
HETATM   45  C1  UNL     1      -9.415 -17.105  14.667  1.00  0.00     0.196 C
HETATM   46  N1  UNL     1     -10.249 -16.018  14.289  1.00  0.00    -0.067 NA
HETATM   47  N2  UNL     1      -8.017 -17.004  14.509  1.00  0.00    -0.067 NA
ATOM     48  H3  UNL     1      -9.264 -18.934  15.408  1.00  0.00     0.161 HD
ENDBRANCH  43  44
ENDBRANCH  42  43
ENDBRANCH  41  42
ENDBRANCH   1  41
TORSDOF 15
ENDMDL