MODEL 2
REMARK VINA RESULT: -8.299956950      1.964      3.428
REMARK  15 active torsions:
REMARK  status: ('A' for Active; 'I' for Inactive)
REMARK    1  A    between atoms: C2_2  and  C3_3
REMARK    2  A    between atoms: C3_3  and  C5_5
REMARK    3  A    between atoms: C5_5  and  C6_6
REMARK    4  A    between atoms: C5_5  and  N1_9
REMARK    5  A    between atoms: C6_6  and  O1_7
REMARK       I    between atoms: N1_9  and  C8_11
REMARK    6  A    between atoms: C8_11  and  C9_13
REMARK    7  A    between atoms: C9_13  and  C10_14
REMARK    8  A    between atoms: C10_14  and  N2_15
REMARK       I    between atoms: N3_19  and  C14_20
REMARK    9  A    between atoms: C14_20  and  C15_22
REMARK   10  A    between atoms: C15_22  and  N4_23
REMARK   11  A    between atoms: C15_22  and  C27_41
REMARK       I    between atoms: N4_23  and  C16_25
REMARK   12  A    between atoms: C16_25  and  C17_27
REMARK   13  A    between atoms: C17_27  and  N5_28
REMARK       I    between atoms: N5_28  and  C18_30
REMARK   14  A    between atoms: C18_30  and  O6_32
REMARK   15  A    between atoms: O6_32  and  C19_33
ROOT
HETATM    1  N2  UNL     1     -12.453 -20.490  18.564  1.00  0.00    -0.391 N
HETATM    2  C11 UNL     1     -12.323 -19.148  18.963  1.00  0.00     0.059 C
HETATM    3  C12 UNL     1     -11.130 -18.991  19.872  1.00  0.00     0.064 C
HETATM    4  C13 UNL     1      -9.897 -18.734  19.053  1.00  0.00     0.131 C
HETATM    5  N3  UNL     1      -9.947 -19.302  17.724  1.00  0.00    -0.348 N
HETATM    6  C14 UNL     1      -9.557 -18.497  16.649  1.00  0.00     0.245 C
HETATM    7  O3  UNL     1      -9.613 -19.051  15.489  1.00  0.00    -0.271 OA
HETATM    8  C30 UNL     1     -10.345 -20.658  17.330  1.00  0.00     0.145 C
HETATM    9  C31 UNL     1     -11.289 -21.259  18.345  1.00  0.00     0.141 C
ENDROOT
BRANCH   6  10
HETATM   10  C15 UNL     1      -9.085 -17.087  16.681  1.00  0.00     0.213 C
BRANCH  10  11
HETATM   11  N4  UNL     1      -7.873 -17.141  17.528  1.00  0.00    -0.343 N
HETATM   12  C16 UNL     1      -7.607 -16.164  18.496  1.00  0.00     0.246 C
HETATM   13  O4  UNL     1      -8.410 -15.217  18.665  1.00  0.00    -0.271 OA
ATOM     14  H4  UNL     1      -7.214 -17.909  17.404  1.00  0.00     0.163 HD
BRANCH  12  15
HETATM   15  C17 UNL     1      -6.389 -16.215  19.348  1.00  0.00     0.116 C
HETATM   16  C23 UNL     1      -6.669 -15.765  20.741  1.00  0.00     0.041 C
HETATM   17  C24 UNL     1      -6.797 -16.992  21.602  1.00  0.00     0.003 C
HETATM   18  C25 UNL     1      -6.584 -18.184  20.715  1.00  0.00     0.003 C
HETATM   19  C26 UNL     1      -5.905 -17.652  19.496  1.00  0.00     0.041 C
BRANCH  15  20
HETATM   20  N5  UNL     1      -5.311 -15.447  18.772  1.00  0.00    -0.319 N
HETATM   21  C18 UNL     1      -4.524 -15.820  17.664  1.00  0.00     0.362 C
HETATM   22  O5  UNL     1      -4.641 -16.875  16.995  1.00  0.00    -0.238 OA
ATOM     23  H5  UNL     1      -5.099 -14.550  19.208  1.00  0.00     0.166 HD
BRANCH  21  24
HETATM   24  O6  UNL     1      -3.508 -14.954  17.251  1.00  0.00    -0.294 OA
BRANCH  24  25
HETATM   25  C19 UNL     1      -3.651 -14.155  16.095  1.00  0.00     0.061 C
HETATM   26  C20 UNL     1      -2.857 -14.709  14.935  1.00  0.00     0.046 C
HETATM   27  C21 UNL     1      -5.063 -13.879  15.704  1.00  0.00     0.046 C
HETATM   28  C22 UNL     1      -3.033 -12.796  16.481  1.00  0.00     0.046 C
ENDBRANCH  24  25
ENDBRANCH  21  24
ENDBRANCH  15  20
ENDBRANCH  12  15
ENDBRANCH  10  11
BRANCH  10  29
HETATM   29  C27 UNL     1      -8.672 -16.533  15.371  1.00  0.00     0.107 A
HETATM   30  C28 UNL     1      -7.255 -16.848  14.896  1.00  0.00     0.051 C
HETATM   31  C29 UNL     1      -9.059 -15.097  15.094  1.00  0.00     0.209 A
HETATM   32  O7  UNL     1      -9.592 -16.172  14.384  1.00  0.00    -0.373 OA
ENDBRANCH  10  29
ENDBRANCH   6  10
BRANCH   1  33
HETATM   33  C10 UNL     1     -13.544 -21.260  19.016  1.00  0.00     0.131 C
BRANCH  33  34
HETATM   34  C9  UNL     1     -14.886 -20.808  18.477  1.00  0.00     0.122 C
BRANCH  34  35
HETATM   35  C8  UNL     1     -15.079 -21.279  17.089  1.00  0.00     0.221 C
HETATM   36  N1  UNL     1     -15.902 -22.380  16.828  1.00  0.00    -0.349 N
HETATM   37  C7  UNL     1     -15.987 -22.819  15.449  1.00  0.00     0.153 C
HETATM   38  O2  UNL     1     -14.492 -20.680  16.171  1.00  0.00    -0.273 OA
BRANCH  36  39
HETATM   39  C5  UNL     1     -16.643 -23.096  17.807  1.00  0.00     0.114 C
BRANCH  39  40
HETATM   40  C3  UNL     1     -16.009 -24.349  18.337  1.00  0.00     0.006 C
HETATM   41  C4  UNL     1     -17.015 -25.462  18.135  1.00  0.00     0.012 C
BRANCH  40  42
HETATM   42  C2  UNL     1     -15.691 -24.289  19.805  1.00  0.00     0.002 C
HETATM   43  C1  UNL     1     -16.989 -24.468  20.556  1.00  0.00     0.005 C
ENDBRANCH  40  42
ENDBRANCH  39  40
BRANCH  39  44
HETATM   44  C6  UNL     1     -17.970 -23.535  17.175  1.00  0.00     0.189 C
BRANCH  44  45
HETATM   45  O1  UNL     1     -19.003 -22.644  17.479  1.00  0.00    -0.399 OA
ATOM     46  H1  UNL     1     -19.191 -22.065  16.750  1.00  0.00     0.209 HD
ENDBRANCH  44  45
ENDBRANCH  39  44
ENDBRANCH  36  39
ENDBRANCH  34  35
ENDBRANCH  33  34
ENDBRANCH   1  33
TORSDOF 15
ENDMDL