MODEL 5
REMARK VINA RESULT: -6.183523607      2.843      6.174
REMARK  15 active torsions:
REMARK  status: ('A' for Active; 'I' for Inactive)
REMARK    1  A    between atoms: S1_2  and  C2_3
REMARK    2  A    between atoms: C2_3  and  C3_4
REMARK    3  A    between atoms: C3_4  and  C4_5
REMARK    4  A    between atoms: C4_5  and  N1_6
REMARK    5  A    between atoms: C4_5  and  C28_42
REMARK       I    between atoms: N1_6  and  C5_8
REMARK    6  A    between atoms: C5_8  and  C6_10
REMARK       I    between atoms: N3_16  and  C11_17
REMARK    7  A    between atoms: C11_17  and  C12_19
REMARK    8  A    between atoms: C12_19  and  N4_20
REMARK    9  A    between atoms: C12_19  and  C24_38
REMARK       I    between atoms: N4_20  and  C13_22
REMARK   10  A    between atoms: C13_22  and  C14_24
REMARK   11  A    between atoms: C14_24  and  C15_25
REMARK   12  A    between atoms: C14_24  and  N5_29
REMARK   13  A    between atoms: C15_25  and  C16_26
REMARK       I    between atoms: N5_29  and  C19_31
REMARK   14  A    between atoms: C19_31  and  O5_33
REMARK   15  A    between atoms: O5_33  and  C20_34
ROOT
HETATM    1  C12 UNL     1       8.993  19.070  19.383  1.00  0.00     0.184 C
ENDROOT
BRANCH   1   2
HETATM    2  C11 UNL     1       8.615  17.716  19.940  1.00  0.00     0.245 C
HETATM    3  N3  UNL     1       7.389  17.077  19.740  1.00  0.00    -0.306 N
HETATM    4  C6  UNL     1       6.211  17.519  18.962  1.00  0.00     0.419 C
HETATM    5  C9  UNL     1       6.974  15.800  20.244  1.00  0.00     0.114 C
HETATM    6  N2  UNL     1       5.111  17.069  19.740  1.00  0.00     0.118 N
HETATM    7  C7  UNL     1       4.364  18.145  20.361  1.00  0.00     0.313 C
HETATM    8  C8  UNL     1       5.548  16.116  20.698  1.00  0.00     0.300 C
HETATM    9  C10 UNL     1       7.795  15.272  21.367  1.00  0.00     0.034 C
HETATM   10  O2  UNL     1       9.487  17.144  20.628  1.00  0.00    -0.271 OA
BRANCH   4  11
HETATM   11  C5  UNL     1       6.220  16.882  17.606  1.00  0.00     0.272 C
HETATM   12  N1  UNL     1       5.083  16.222  17.059  1.00  0.00    -0.343 N
ATOM     13  H1  UNL     1       4.226  16.167  17.609  1.00  0.00     0.163 HD
HETATM   14  O1  UNL     1       7.295  16.958  16.960  1.00  0.00    -0.269 OA
BRANCH  12  15
HETATM   15  C4  UNL     1       5.119  15.625  15.729  1.00  0.00     0.186 C
BRANCH  15  16
HETATM   16  C3  UNL     1       3.722  15.690  15.189  1.00  0.00     0.046 C
BRANCH  16  17
HETATM   17  C2  UNL     1       2.720  16.303  16.125  1.00  0.00     0.076 C
BRANCH  17  18
HETATM   18  S1  UNL     1       1.501  15.100  16.724  1.00  0.00    -0.173 SA
HETATM   19  C1  UNL     1       2.214  14.120  18.082  1.00  0.00     0.089 C
ENDBRANCH  17  18
ENDBRANCH  16  17
ENDBRANCH  15  16
BRANCH  15  20
HETATM   20  C28 UNL     1       5.663  14.239  15.799  1.00  0.00     0.196 C
HETATM   21  O6  UNL     1       4.886  13.257  15.889  1.00  0.00    -0.646 OA
HETATM   22  O7  UNL     1       7.015  13.982  15.766  1.00  0.00    -0.646 OA
ENDBRANCH  15  20
ENDBRANCH  12  15
ENDBRANCH   4  11
ENDBRANCH   1   2
BRANCH   1  23
HETATM   23  N4  UNL     1      10.039  18.698  18.390  1.00  0.00    -0.345 N
HETATM   24  C13 UNL     1      10.042  19.130  17.062  1.00  0.00     0.241 C
HETATM   25  O3  UNL     1       9.108  19.942  16.700  1.00  0.00    -0.271 OA
ATOM     26  H4  UNL     1      10.799  18.091  18.699  1.00  0.00     0.163 HD
BRANCH  24  27
HETATM   27  C14 UNL     1      11.026  18.697  16.068  1.00  0.00     0.179 C
BRANCH  27  28
HETATM   28  C15 UNL     1      11.110  17.304  15.623  1.00  0.00     0.038 C
BRANCH  28  29
HETATM   29  C16 UNL     1      10.404  16.846  14.416  1.00  0.00    -0.020 C
HETATM   30  C17 UNL     1       9.924  15.438  14.396  1.00  0.00     0.009 C
HETATM   31  C18 UNL     1       9.138  17.725  14.247  1.00  0.00     0.009 C
ENDBRANCH  28  29
ENDBRANCH  27  28
BRANCH  27  32
HETATM   32  N5  UNL     1      12.332  19.182  16.551  1.00  0.00    -0.324 N
HETATM   33  C19 UNL     1      12.839  20.414  16.078  1.00  0.00     0.362 C
HETATM   34  O4  UNL     1      12.150  21.087  15.237  1.00  0.00    -0.238 OA
ATOM     35  H5  UNL     1      12.868  18.631  17.222  1.00  0.00     0.165 HD
BRANCH  33  36
HETATM   36  O5  UNL     1      14.038  20.956  16.462  1.00  0.00    -0.294 OA
BRANCH  36  37
HETATM   37  C20 UNL     1      14.230  21.634  17.695  1.00  0.00     0.061 C
HETATM   38  C21 UNL     1      13.087  22.526  18.076  1.00  0.00     0.046 C
HETATM   39  C22 UNL     1      15.438  22.556  17.465  1.00  0.00     0.046 C
HETATM   40  C23 UNL     1      14.593  20.697  18.808  1.00  0.00     0.046 C
ENDBRANCH  36  37
ENDBRANCH  33  36
ENDBRANCH  27  32
ENDBRANCH  24  27
ENDBRANCH   1  23
BRANCH   1  41
HETATM   41  C24 UNL     1       9.638  19.931  20.394  1.00  0.00    -0.022 C
HETATM   42  C25 UNL     1       8.937  19.959  21.747  1.00  0.00     0.017 C
HETATM   43  C26 UNL     1      11.094  19.718  20.630  1.00  0.00     0.017 C
HETATM   44  C27 UNL     1       9.467  21.384  19.893  1.00  0.00     0.017 C
ENDBRANCH   1  41
TORSDOF 15
ENDMDL