MODEL 5
REMARK VINA RESULT: -8.937282286      1.956      2.882
REMARK  14 active torsions:
REMARK  status: ('A' for Active; 'I' for Inactive)
REMARK    1  A    between atoms: C2_2  and  C3_3
REMARK    2  A    between atoms: C3_3  and  C4_4
REMARK    3  A    between atoms: C4_4  and  N1_5
REMARK    4  A    between atoms: C4_4  and  C13_18
REMARK       I    between atoms: N1_5  and  C5_7
REMARK    5  A    between atoms: C5_7  and  C6_9
REMARK    6  A    between atoms: C6_9  and  N2_12
REMARK       I    between atoms: C13_18  and  N3_20
REMARK    7  A    between atoms: N3_20  and  C14_22
REMARK    8  A    between atoms: C16_24  and  C17_25
REMARK       I    between atoms: C17_25  and  N4_27
REMARK    9  A    between atoms: N4_27  and  C18_29
REMARK   10  A    between atoms: C18_29  and  C19_30
REMARK   11  A    between atoms: C18_29  and  C22_33
REMARK   12  A    between atoms: C22_33  and  C25_36
REMARK   13  A    between atoms: C25_36  and  O5_37
REMARK   14  A    between atoms: C25_36  and  N5_39
ROOT
HETATM    1  C14 UNL     1       8.751  17.674  17.674  1.00  0.00     0.052 A
HETATM    2  C15 UNL     1      10.052  17.930  17.227  1.00  0.00     0.066 A
HETATM    3  C16 UNL     1      10.769  18.577  18.201  1.00  0.00     0.104 A
HETATM    4  N6  UNL     1       9.962  18.741  19.250  1.00  0.00    -0.354 N
HETATM    5  C30 UNL     1      10.222  19.393  20.546  1.00  0.00     0.156 C
HETATM    6  C31 UNL     1       8.743  18.199  18.940  1.00  0.00     0.120 A
ENDROOT
BRANCH   1   7
HETATM    7  N3  UNL     1       7.755  16.980  16.939  1.00  0.00    -0.324 N
HETATM    8  C13 UNL     1       7.556  15.602  17.094  1.00  0.00     0.245 C
HETATM    9  O3  UNL     1       8.279  14.974  17.930  1.00  0.00    -0.271 OA
ATOM     10  H3  UNL     1       7.170  17.497  16.282  1.00  0.00     0.169 HD
BRANCH   8  11
HETATM   11  C4  UNL     1       6.516  14.830  16.315  1.00  0.00     0.177 C
BRANCH  11  12
HETATM   12  C3  UNL     1       6.705  14.901  14.869  1.00  0.00     0.034 C
BRANCH  12  13
HETATM   13  C2  UNL     1       8.108  14.677  14.406  1.00  0.00    -0.002 C
HETATM   14  C1  UNL     1       8.896  15.859  14.003  1.00  0.00     0.005 C
ENDBRANCH  12  13
ENDBRANCH  11  12
BRANCH  11  15
HETATM   15  N1  UNL     1       5.219  15.083  16.842  1.00  0.00    -0.346 N
HETATM   16  C5  UNL     1       4.402  16.195  16.553  1.00  0.00     0.245 C
HETATM   17  O1  UNL     1       4.851  17.060  15.770  1.00  0.00    -0.271 OA
ATOM     18  H1  UNL     1       4.844  14.393  17.492  1.00  0.00     0.163 HD
BRANCH  16  19
HETATM   19  C6  UNL     1       3.071  16.333  17.139  1.00  0.00     0.102 C
HETATM   20  C7  UNL     1       2.145  16.775  15.990  1.00  0.00     0.048 C
HETATM   21  C8  UNL     1       2.547  14.978  17.548  1.00  0.00     0.048 C
BRANCH  19  22
HETATM   22  N2  UNL     1       2.929  17.295  18.178  1.00  0.00    -0.392 N
HETATM   23  C9  UNL     1       3.767  17.184  19.309  1.00  0.00     0.144 C
HETATM   24  C10 UNL     1       4.110  18.583  19.824  1.00  0.00     0.187 C
HETATM   25  O2  UNL     1       2.998  19.355  20.056  1.00  0.00    -0.388 OA
HETATM   26  C11 UNL     1       2.007  19.263  19.088  1.00  0.00     0.187 C
HETATM   27  C12 UNL     1       2.599  18.623  17.819  1.00  0.00     0.144 C
ENDBRANCH  19  22
ENDBRANCH  16  19
ENDBRANCH  11  15
ENDBRANCH   8  11
ENDBRANCH   1   7
BRANCH   3  28
HETATM   28  C17 UNL     1      12.163  19.044  18.031  1.00  0.00     0.268 C
HETATM   29  O4  UNL     1      12.982  18.165  18.472  1.00  0.00    -0.266 OA
HETATM   30  N4  UNL     1      12.431  20.265  17.471  1.00  0.00    -0.350 N
ATOM     31  H4  UNL     1      11.596  20.799  17.231  1.00  0.00     0.163 HD
BRANCH  30  32
HETATM   32  C18 UNL     1      13.675  20.947  17.152  1.00  0.00     0.103 C
BRANCH  32  33
HETATM   33  C19 UNL     1      13.771  22.250  17.846  1.00  0.00     0.001 C
HETATM   34  C20 UNL     1      14.281  22.214  19.277  1.00  0.00     0.011 C
HETATM   35  C21 UNL     1      12.286  22.700  18.085  1.00  0.00     0.011 C
ENDBRANCH  32  33
BRANCH  32  36
HETATM   36  C22 UNL     1      14.007  20.802  15.734  1.00  0.00     0.038 C
HETATM   37  C23 UNL     1      12.813  20.391  14.870  1.00  0.00     0.026 C
HETATM   38  C24 UNL     1      14.931  19.558  15.642  1.00  0.00     0.026 C
BRANCH  36  39
HETATM   39  C25 UNL     1      14.736  21.842  15.025  1.00  0.00     0.123 C
BRANCH  39  40
HETATM   40  O5  UNL     1      14.033  22.423  14.079  1.00  0.00    -0.349 OA
ATOM     41  H5  UNL     1      14.532  22.599  13.291  1.00  0.00     0.219 HD
ENDBRANCH  39  40
BRANCH  39  42
HETATM   42  N5  UNL     1      16.016  22.346  15.140  1.00  0.00    -0.361 N
HETATM   43  C26 UNL     1      16.922  22.282  14.013  1.00  0.00     0.151 C
HETATM   44  C27 UNL     1      17.668  23.575  13.768  1.00  0.00     0.187 C
HETATM   45  O6  UNL     1      17.900  24.283  14.952  1.00  0.00    -0.388 OA
HETATM   46  C28 UNL     1      18.006  23.347  15.977  1.00  0.00     0.187 C
HETATM   47  C29 UNL     1      16.544  22.950  16.326  1.00  0.00     0.151 C
ENDBRANCH  39  42
ENDBRANCH  36  39
ENDBRANCH  32  36
ENDBRANCH  30  32
ENDBRANCH   3  28
TORSDOF 14
ENDMDL