MODEL 3
REMARK VINA RESULT: -8.876552670      3.338     10.173
REMARK  13 active torsions:
REMARK  status: ('A' for Active; 'I' for Inactive)
REMARK    1  A    between atoms: C2_2  and  C3_3
REMARK    2  A    between atoms: C3_3  and  O1_4
REMARK    3  A    between atoms: O1_4  and  C4_5
REMARK    4  A    between atoms: C6_7  and  N1_8
REMARK       I    between atoms: N1_8  and  C7_10
REMARK    5  A    between atoms: C7_10  and  C8_12
REMARK    6  A    between atoms: C8_12  and  N2_14
REMARK    7  A    between atoms: C8_12  and  C15_24
REMARK    8  A    between atoms: N2_14  and  S1_16
REMARK    9  A    between atoms: S1_16  and  C10_19
REMARK   10  A    between atoms: C10_19  and  C12_21
REMARK   11  A    between atoms: C18_29  and  C19_30
REMARK       I    between atoms: C19_30  and  N4_32
REMARK   12  A    between atoms: N4_32  and  S2_34
REMARK   13  A    between atoms: S2_34  and  C20_37
ROOT
HETATM    1  C4  UNL     1      15.098  23.512  17.533  1.00  0.00     0.147 A
HETATM    2  C5  UNL     1      14.053  22.643  17.206  1.00  0.00     0.104 A
HETATM    3  C6  UNL     1      13.992  21.966  16.006  1.00  0.00     0.113 A
HETATM    4  N3  UNL     1      15.013  22.190  15.145  1.00  0.00    -0.324 N
ATOM      5  H3  UNL     1      15.013  21.712  14.243  1.00  0.00     0.169 HD
HETATM    6  C18 UNL     1      16.024  23.021  15.444  1.00  0.00     0.179 A
HETATM    7  N5  UNL     1      16.082  23.672  16.597  1.00  0.00    -0.318 N
ATOM      8  H5  UNL     1      16.867  24.296  16.788  1.00  0.00     0.169 HD
ENDROOT
BRANCH   3   9
HETATM    9  N1  UNL     1      13.052  21.159  15.702  1.00  0.00    -0.311 N
HETATM   10  C7  UNL     1      12.867  19.825  15.978  1.00  0.00     0.252 C
HETATM   11  O2  UNL     1      13.848  19.029  15.747  1.00  0.00    -0.270 OA
ATOM     12  H1  UNL     1      12.300  21.580  15.157  1.00  0.00     0.170 HD
BRANCH  10  13
HETATM   13  C8  UNL     1      11.651  19.151  16.518  1.00  0.00     0.120 C
HETATM   14  C9  UNL     1      12.054  17.993  17.336  1.00  0.00     0.050 C
BRANCH  13  15
HETATM   15  N2  UNL     1      10.812  20.146  17.050  1.00  0.00    -0.300 N
ATOM     16  H2  UNL     1      10.057  20.514  16.471  1.00  0.00     0.173 HD
BRANCH  15  17
HETATM   17  S1  UNL     1      11.007  20.741  18.581  1.00  0.00     0.231 S
HETATM   18  O3  UNL     1      12.227  20.304  19.323  1.00  0.00    -0.206 OA
HETATM   19  O4  UNL     1      11.084  22.261  18.521  1.00  0.00    -0.206 OA
BRANCH  17  20
HETATM   20  C10 UNL     1       9.610  20.335  19.596  1.00  0.00     0.128 C
HETATM   21  C11 UNL     1       9.715  21.089  20.884  1.00  0.00     0.028 C
BRANCH  20  22
HETATM   22  C12 UNL     1       9.575  18.841  19.910  1.00  0.00    -0.003 C
HETATM   23  C13 UNL     1       8.653  18.066  19.031  1.00  0.00     0.011 C
HETATM   24  C14 UNL     1       9.279  18.600  21.352  1.00  0.00     0.011 C
ENDBRANCH  20  22
ENDBRANCH  17  20
ENDBRANCH  15  17
ENDBRANCH  13  15
BRANCH  13  25
HETATM   25  C15 UNL     1      10.869  18.622  15.297  1.00  0.00     0.015 C
HETATM   26  C16 UNL     1      11.010  17.175  15.050  1.00  0.00     0.012 C
HETATM   27  C17 UNL     1       9.392  18.927  15.483  1.00  0.00     0.012 C
ENDBRANCH  13  25
ENDBRANCH  10  13
ENDBRANCH   3   9
BRANCH   1  28
HETATM   28  O1  UNL     1      15.234  24.206  18.670  1.00  0.00    -0.336 OA
BRANCH  28  29
HETATM   29  C3  UNL     1      15.225  23.931  19.999  1.00  0.00     0.177 C
BRANCH  29  30
HETATM   30  C2  UNL     1      16.364  24.561  20.763  1.00  0.00     0.022 C
HETATM   31  C1  UNL     1      17.475  24.948  19.764  1.00  0.00     0.007 C
ENDBRANCH  29  30
ENDBRANCH  28  29
ENDBRANCH   1  28
BRANCH   6  32
HETATM   32  C19 UNL     1      17.112  23.203  14.449  1.00  0.00     0.299 C
HETATM   33  O5  UNL     1      18.139  22.544  14.578  1.00  0.00    -0.263 OA
HETATM   34  N4  UNL     1      16.916  24.117  13.413  1.00  0.00    -0.247 N
ATOM     35  H4  UNL     1      16.035  24.628  13.380  1.00  0.00     0.182 HD
BRANCH  34  36
HETATM   36  S2  UNL     1      18.081  24.425  12.195  1.00  0.00     0.238 S
HETATM   37  O6  UNL     1      18.581  23.094  11.722  1.00  0.00    -0.205 OA
HETATM   38  O7  UNL     1      19.284  25.096  12.854  1.00  0.00    -0.205 OA
BRANCH  36  39
HETATM   39  C20 UNL     1      17.429  25.421  10.928  1.00  0.00     0.146 A
HETATM   40  C21 UNL     1      18.394  26.165  10.031  1.00  0.00    -0.020 A
HETATM   41  C22 UNL     1      18.062  26.163   8.538  1.00  0.00     0.017 C
HETATM   42  C23 UNL     1      19.870  26.037  10.313  1.00  0.00     0.017 C
HETATM   43  C24 UNL     1      17.503  26.900  10.944  1.00  0.00    -0.020 A
HETATM   44  C25 UNL     1      16.329  27.607  10.246  1.00  0.00     0.017 C
HETATM   45  C26 UNL     1      17.968  27.652  12.149  1.00  0.00     0.017 C
ENDBRANCH  36  39
ENDBRANCH  34  36
ENDBRANCH   6  32
TORSDOF 13
ENDMDL