MODEL 3
REMARK VINA RESULT: -7.756569745      1.001      1.261
REMARK  16 active torsions:
REMARK  status: ('A' for Active; 'I' for Inactive)
REMARK    1  A    between atoms: C2_2  and  O1_3
REMARK    2  A    between atoms: O1_3  and  C3_4
REMARK    3  A    between atoms: C3_4  and  C4_6
REMARK    4  A    between atoms: C10_12  and  N1_13
REMARK    5  A    between atoms: C10_12  and  C18_24
REMARK       I    between atoms: N1_13  and  C11_15
REMARK    6  A    between atoms: C11_15  and  C12_17
REMARK    7  A    between atoms: C12_17  and  S1_18
REMARK    8  A    between atoms: S1_18  and  C13_19
REMARK    9  A    between atoms: C13_19  and  C14_20
REMARK   10  A    between atoms: C18_24  and  O4_25
REMARK   11  A    between atoms: C18_24  and  N2_27
REMARK   12  A    between atoms: C20_29  and  N3_30
REMARK       I    between atoms: N3_30  and  C21_32
REMARK   13  A    between atoms: C21_32  and  C22_34
REMARK   14  A    between atoms: C22_34  and  N4_36
REMARK       I    between atoms: N4_36  and  C24_38
REMARK   15  A    between atoms: C24_38  and  O7_40
REMARK   16  A    between atoms: C26_42  and  C27_43
ROOT
HETATM    1  C4  UNL     1       7.536  18.182  19.776  1.00  0.00     0.127 C
HETATM    2  C5  UNL     1       8.264  17.115  20.520  1.00  0.00     0.018 A
HETATM    3  C6  UNL     1       6.917  16.383  20.105  1.00  0.00     0.037 A
HETATM    4  C7  UNL     1       7.721  15.936  21.180  1.00  0.00    -0.036 A
HETATM    5  C8  UNL     1       7.395  16.247  22.663  1.00  0.00     0.015 C
HETATM    6  C9  UNL     1       8.331  14.552  21.059  1.00  0.00     0.015 C
HETATM    7  C10 UNL     1       7.272  17.120  18.784  1.00  0.00     0.115 C
ENDROOT
BRANCH   7   8
HETATM    8  N1  UNL     1       6.034  17.241  17.986  1.00  0.00    -0.342 N
HETATM    9  C11 UNL     1       4.819  16.638  18.170  1.00  0.00     0.228 C
HETATM   10  O3  UNL     1       4.409  15.842  19.041  1.00  0.00    -0.273 OA
ATOM     11  H1  UNL     1       6.094  17.864  17.180  1.00  0.00     0.163 HD
BRANCH   9  12
HETATM   12  C12 UNL     1       3.757  17.006  17.105  1.00  0.00     0.176 C
BRANCH  12  13
HETATM   13  S1  UNL     1       2.732  18.288  17.764  1.00  0.00    -0.156 SA
BRANCH  13  14
HETATM   14  C13 UNL     1       3.330  19.287  19.078  1.00  0.00     0.101 C
BRANCH  14  15
HETATM   15  C14 UNL     1       3.009  20.722  18.928  1.00  0.00    -0.015 C
HETATM   16  C15 UNL     1       2.227  21.392  19.785  1.00  0.00    -0.091 C
HETATM   17  C16 UNL     1       1.973  22.828  19.535  1.00  0.00     0.042 C
HETATM   18  C17 UNL     1       1.622  20.742  20.965  1.00  0.00     0.042 C
ENDBRANCH  14  15
ENDBRANCH  13  14
ENDBRANCH  12  13
ENDBRANCH   9  12
ENDBRANCH   7   8
BRANCH   7  19
HETATM   19  C18 UNL     1       8.199  16.367  17.991  1.00  0.00     0.144 C
BRANCH  19  20
HETATM   20  O4  UNL     1       7.878  15.102  17.937  1.00  0.00    -0.347 OA
ATOM     21  H4  UNL     1       8.431  14.622  17.333  1.00  0.00     0.219 HD
ENDBRANCH  19  20
BRANCH  19  22
HETATM   22  N2  UNL     1       9.351  16.671  17.271  1.00  0.00    -0.354 N
HETATM   23  C19 UNL     1      10.700  17.133  17.669  1.00  0.00     0.152 C
HETATM   24  C20 UNL     1      11.029  17.494  16.228  1.00  0.00     0.125 C
HETATM   25  C26 UNL     1       9.875  16.651  15.921  1.00  0.00     0.114 C
BRANCH  24  26
HETATM   26  N3  UNL     1      10.971  18.905  16.074  1.00  0.00    -0.351 N
HETATM   27  C21 UNL     1      12.153  19.673  16.068  1.00  0.00     0.240 C
HETATM   28  O5  UNL     1      13.257  19.055  16.212  1.00  0.00    -0.271 OA
ATOM     29  H3  UNL     1      10.068  19.366  15.966  1.00  0.00     0.163 HD
BRANCH  27  30
HETATM   30  C22 UNL     1      12.190  21.158  15.907  1.00  0.00     0.174 C
HETATM   31  C23 UNL     1      11.500  21.904  16.988  1.00  0.00     0.042 C
BRANCH  30  32
HETATM   32  N4  UNL     1      13.537  21.528  15.635  1.00  0.00    -0.324 N
HETATM   33  C24 UNL     1      14.131  21.750  14.377  1.00  0.00     0.360 C
HETATM   34  O6  UNL     1      13.459  21.627  13.324  1.00  0.00    -0.239 OA
ATOM     35  H4  UNL     1      14.144  21.648  16.446  1.00  0.00     0.165 HD
BRANCH  33  36
HETATM   36  O7  UNL     1      15.467  22.107  14.236  1.00  0.00    -0.309 OA
HETATM   37  C25 UNL     1      16.496  21.368  14.851  1.00  0.00     0.215 C
ENDBRANCH  33  36
ENDBRANCH  30  32
ENDBRANCH  27  30
ENDBRANCH  24  26
BRANCH  25  38
HETATM   38  C27 UNL     1       9.101  16.955  14.719  1.00  0.00     0.002 C
HETATM   39  C28 UNL     1       7.912  17.844  14.853  1.00  0.00     0.011 C
HETATM   40  C29 UNL     1       8.572  15.598  14.191  1.00  0.00     0.011 C
ENDBRANCH  25  38
ENDBRANCH  19  22
ENDBRANCH   7  19
BRANCH   1  41
HETATM   41  C3  UNL     1       8.237  19.399  19.477  1.00  0.00     0.266 C
HETATM   42  O2  UNL     1       8.597  19.701  18.268  1.00  0.00    -0.265 OA
BRANCH  41  43
HETATM   43  O1  UNL     1       8.577  20.335  20.424  1.00  0.00    -0.321 OA
BRANCH  43  44
HETATM   44  C2  UNL     1       9.752  21.109  20.389  1.00  0.00     0.174 C
HETATM   45  C1  UNL     1      10.937  20.169  20.555  1.00  0.00     0.034 C
ENDBRANCH  43  44
ENDBRANCH  41  43
ENDBRANCH   1  41
TORSDOF 16
ENDMDL