MODEL 2
REMARK VINA RESULT: -8.074377060      2.826      5.230
REMARK  16 active torsions:
REMARK  status: ('A' for Active; 'I' for Inactive)
REMARK    1  A    between atoms: C2_2  and  C3_3
REMARK    2  A    between atoms: C3_3  and  C4_4
REMARK    3  A    between atoms: C4_4  and  C5_5
REMARK    4  A    between atoms: C4_4  and  C7_9
REMARK    5  A    between atoms: C5_5  and  C6_6
REMARK       I    between atoms: C7_9  and  N1_11
REMARK    6  A    between atoms: N1_11  and  C8_13
REMARK    7  A    between atoms: C8_13  and  C9_14
REMARK    8  A    between atoms: C8_13  and  C21_32
REMARK    9  A    between atoms: C9_14  and  C10_15
REMARK   10  A    between atoms: C12_17  and  C13_18
REMARK   11  A    between atoms: C13_18  and  O4_19
REMARK   12  A    between atoms: C13_18  and  N2_21
REMARK   13  A    between atoms: N2_21  and  C14_22
REMARK   14  A    between atoms: N2_21  and  C17_25
REMARK       I    between atoms: C21_32  and  N5_34
REMARK       I    between atoms: N6_37  and  C24_38
REMARK   15  A    between atoms: C24_38  and  O7_40
REMARK   16  A    between atoms: O7_40  and  C25_41
ROOT
HETATM    1  C8  UNL     1       9.473  19.881  18.688  1.00  0.00     0.182 C
ENDROOT
BRANCH   1   2
HETATM    2  N1  UNL     1      10.457  19.342  17.743  1.00  0.00    -0.347 N
HETATM    3  C7  UNL     1      10.159  19.107  16.381  1.00  0.00     0.223 C
HETATM    4  O3  UNL     1       9.019  19.365  15.961  1.00  0.00    -0.273 OA
ATOM      5  H1  UNL     1      11.395  19.129  18.083  1.00  0.00     0.163 HD
BRANCH   3   6
HETATM    6  C4  UNL     1      11.178  18.554  15.453  1.00  0.00     0.088 C
BRANCH   6   7
HETATM    7  C3  UNL     1      11.129  17.066  15.309  1.00  0.00     0.014 C
BRANCH   7   8
HETATM    8  C2  UNL     1      10.353  16.558  14.129  1.00  0.00    -0.004 C
HETATM    9  C1  UNL     1       9.144  15.749  14.609  1.00  0.00     0.005 C
ENDBRANCH   7   8
ENDBRANCH   6   7
BRANCH   6  10
HETATM   10  C5  UNL     1      12.568  18.949  15.925  1.00  0.00     0.127 C
BRANCH  10  11
HETATM   11  C6  UNL     1      13.169  20.092  15.295  1.00  0.00     0.173 C
HETATM   12  O1  UNL     1      12.539  21.040  14.797  1.00  0.00    -0.648 OA
HETATM   13  O2  UNL     1      14.560  20.167  15.225  1.00  0.00    -0.648 OA
ENDBRANCH  10  11
ENDBRANCH   6  10
ENDBRANCH   3   6
ENDBRANCH   1   2
BRANCH   1  14
HETATM   14  C9  UNL     1      10.094  21.083  19.307  1.00  0.00     0.093 C
BRANCH  14  15
HETATM   15  C10 UNL     1      11.547  21.211  18.974  1.00  0.00     0.030 A
HETATM   16  C11 UNL     1      12.112  22.318  18.304  1.00  0.00     0.062 A
HETATM   17  C12 UNL     1      13.457  22.147  18.127  1.00  0.00     0.102 A
HETATM   18  N3  UNL     1      13.701  20.927  18.696  1.00  0.00    -0.292 N
HETATM   19  C20 UNL     1      14.983  20.257  18.776  1.00  0.00     0.178 C
HETATM   20  N4  UNL     1      12.572  20.408  19.179  1.00  0.00    -0.302 N
ATOM     21  H4  UNL     1      12.508  19.504  19.647  1.00  0.00     0.186 HD
BRANCH  17  22
HETATM   22  C13 UNL     1      14.462  22.975  17.512  1.00  0.00     0.168 C
BRANCH  22  23
HETATM   23  O4  UNL     1      14.237  23.162  16.197  1.00  0.00    -0.344 OA
ATOM     24  H4  UNL     1      14.542  24.010  15.895  1.00  0.00     0.219 HD
ENDBRANCH  22  23
BRANCH  22  25
HETATM   25  N2  UNL     1      15.613  23.629  17.960  1.00  0.00    -0.352 N
BRANCH  25  26
HETATM   26  C14 UNL     1      16.934  23.246  17.613  1.00  0.00     0.078 C
HETATM   27  C15 UNL     1      18.022  24.244  17.987  1.00  0.00     0.032 C
HETATM   28  C16 UNL     1      17.112  22.985  16.100  1.00  0.00     0.032 C
ENDBRANCH  25  26
BRANCH  25  29
HETATM   29  C17 UNL     1      15.379  24.771  18.861  1.00  0.00     0.078 C
HETATM   30  C18 UNL     1      15.186  24.398  20.291  1.00  0.00     0.032 C
HETATM   31  C19 UNL     1      14.317  25.712  18.412  1.00  0.00     0.032 C
ENDBRANCH  25  29
ENDBRANCH  22  25
ENDBRANCH  17  22
ENDBRANCH  14  15
ENDBRANCH   1  14
BRANCH   1  32
HETATM   32  C21 UNL     1       9.297  18.876  19.799  1.00  0.00     0.243 C
HETATM   33  O5  UNL     1      10.340  18.321  20.272  1.00  0.00    -0.271 OA
HETATM   34  N5  UNL     1       8.054  18.516  20.344  1.00  0.00    -0.347 N
HETATM   35  C22 UNL     1       6.825  19.079  19.822  1.00  0.00     0.146 C
HETATM   36  C30 UNL     1       7.992  17.580  21.449  1.00  0.00     0.146 C
HETATM   37  C23 UNL     1       5.820  17.946  19.712  1.00  0.00     0.148 C
HETATM   38  N6  UNL     1       5.584  17.425  21.036  1.00  0.00    -0.325 N
HETATM   39  C24 UNL     1       4.329  16.785  21.305  1.00  0.00     0.363 C
HETATM   40  C29 UNL     1       6.606  17.546  22.057  1.00  0.00     0.148 C
HETATM   41  O6  UNL     1       3.472  16.696  20.391  1.00  0.00    -0.238 OA
BRANCH  39  42
HETATM   42  O7  UNL     1       4.016  16.257  22.539  1.00  0.00    -0.294 OA
BRANCH  42  43
HETATM   43  C25 UNL     1       3.280  17.036  23.456  1.00  0.00     0.061 C
HETATM   44  C26 UNL     1       1.967  16.313  23.695  1.00  0.00     0.046 C
HETATM   45  C27 UNL     1       3.019  18.442  22.979  1.00  0.00     0.046 C
HETATM   46  C28 UNL     1       4.010  17.135  24.788  1.00  0.00     0.046 C
ENDBRANCH  42  43
ENDBRANCH  39  42
ENDBRANCH   1  32
TORSDOF 16
ENDMDL