MODEL 2
REMARK VINA RESULT: -8.392240016      2.002      9.358
REMARK  13 active torsions:
REMARK  status: ('A' for Active; 'I' for Inactive)
REMARK    1  A    between atoms: C2_2  and  C3_3
REMARK    2  A    between atoms: C3_3  and  C4_4
REMARK    3  A    between atoms: C4_4  and  C5_5
REMARK    4  A    between atoms: C5_5  and  N1_6
REMARK    5  A    between atoms: C5_5  and  C26_39
REMARK       I    between atoms: N1_6  and  C6_8
REMARK    6  A    between atoms: C6_8  and  C7_10
REMARK    7  A    between atoms: C7_10  and  C8_11
REMARK    8  A    between atoms: C7_10  and  N2_15
REMARK    9  A    between atoms: C8_11  and  C9_12
REMARK   10  A    between atoms: C13_17  and  C14_18
REMARK       I    between atoms: C14_18  and  N3_20
REMARK   11  A    between atoms: N3_20  and  C15_22
REMARK   12  A    between atoms: C19_28  and  C20_29
REMARK   13  A    between atoms: C20_29  and  C21_30
REMARK       I    between atoms: C26_39  and  N7_41
REMARK       I    between atoms: N8_44  and  C29_45
ROOT
HETATM    1  C7  UNL     1       5.036  17.103  18.081  1.00  0.00     0.183 C
ENDROOT
BRANCH   1   2
HETATM    2  C6  UNL     1       6.323  16.801  18.708  1.00  0.00     0.241 C
HETATM    3  N1  UNL     1       6.911  17.602  19.717  1.00  0.00    -0.346 N
ATOM      4  H1  UNL     1       6.390  18.429  20.010  1.00  0.00     0.163 HD
HETATM    5  O1  UNL     1       6.967  15.801  18.358  1.00  0.00    -0.271 OA
BRANCH   3   6
HETATM    6  C5  UNL     1       8.181  17.362  20.377  1.00  0.00     0.176 C
BRANCH   6   7
HETATM    7  C4  UNL     1       7.993  16.532  21.609  1.00  0.00     0.035 C
BRANCH   7   8
HETATM    8  C3  UNL     1       6.553  16.367  22.000  1.00  0.00     0.002 C
BRANCH   8   9
HETATM    9  C2  UNL     1       6.273  16.273  23.450  1.00  0.00    -0.004 C
HETATM   10  C1  UNL     1       7.326  15.578  24.250  1.00  0.00     0.005 C
ENDBRANCH   8   9
ENDBRANCH   7   8
ENDBRANCH   6   7
BRANCH   6  11
HETATM   11  C26 UNL     1       8.802  18.673  20.672  1.00  0.00     0.242 C
HETATM   12  O3  UNL     1       8.112  19.499  21.387  1.00  0.00    -0.271 OA
HETATM   13  N7  UNL     1      10.066  19.097  20.239  1.00  0.00    -0.347 N
HETATM   14  C27 UNL     1      10.915  18.293  19.422  1.00  0.00     0.145 C
HETATM   15  C31 UNL     1      10.596  20.428  20.606  1.00  0.00     0.145 C
HETATM   16  C28 UNL     1      11.800  19.169  18.520  1.00  0.00     0.147 C
HETATM   17  N8  UNL     1      11.165  20.430  18.246  1.00  0.00    -0.333 N
HETATM   18  C29 UNL     1      11.129  20.918  16.901  1.00  0.00     0.330 C
HETATM   19  C30 UNL     1      10.561  21.224  19.299  1.00  0.00     0.147 C
HETATM   20  N9  UNL     1      11.703  20.177  15.841  1.00  0.00    -0.040 NA
HETATM   21  O4  UNL     1      10.581  22.018  16.634  1.00  0.00    -0.251 OA
ENDBRANCH   6  11
ENDBRANCH   3   6
ENDBRANCH   1   2
BRANCH   1  22
HETATM   22  C8  UNL     1       3.932  17.329  19.024  1.00  0.00     0.039 C
BRANCH  22  23
HETATM   23  C9  UNL     1       2.969  18.410  18.872  1.00  0.00    -0.020 C
HETATM   24  C10 UNL     1       3.328  19.835  18.987  1.00  0.00     0.009 C
HETATM   25  C11 UNL     1       2.080  18.260  17.630  1.00  0.00     0.009 C
ENDBRANCH  22  23
ENDBRANCH   1  22
BRANCH   1  26
HETATM   26  N2  UNL     1       4.762  15.994  17.151  1.00  0.00    -0.330 N
HETATM   27  C12 UNL     1       4.024  14.900  17.410  1.00  0.00     0.128 A
HETATM   28  C13 UNL     1       3.989  14.080  16.306  1.00  0.00     0.117 A
HETATM   29  N4  UNL     1       4.719  14.711  15.388  1.00  0.00    -0.340 N
HETATM   30  C19 UNL     1       5.200  15.874  15.876  1.00  0.00     0.089 A
ATOM     31  H4  UNL     1       4.892  14.362  14.445  1.00  0.00     0.167 HD
BRANCH  28  32
HETATM   32  C14 UNL     1       3.292  12.806  16.231  1.00  0.00     0.270 C
HETATM   33  O2  UNL     1       2.328  12.718  15.454  1.00  0.00    -0.266 OA
HETATM   34  N3  UNL     1       3.678  11.693  17.002  1.00  0.00    -0.348 N
ATOM     35  H3  UNL     1       4.472  11.793  17.635  1.00  0.00     0.163 HD
BRANCH  34  36
HETATM   36  C15 UNL     1       3.002  10.412  16.941  1.00  0.00     0.022 C
HETATM   37  C16 UNL     1       1.581  10.496  17.428  1.00  0.00     0.037 C
HETATM   38  C17 UNL     1       3.000   9.836  15.551  1.00  0.00     0.037 C
HETATM   39  C18 UNL     1       3.719   9.410  17.846  1.00  0.00     0.037 C
ENDBRANCH  34  36
ENDBRANCH  28  32
BRANCH  30  40
HETATM   40  C20 UNL     1       6.045  16.785  15.104  1.00  0.00     0.118 C
BRANCH  40  41
HETATM   41  C21 UNL     1       7.440  16.367  14.887  1.00  0.00    -0.013 A
HETATM   42  C22 UNL     1       7.737  15.010  14.847  1.00  0.00     0.098 A
HETATM   43  N5  UNL     1       8.984  14.558  14.647  1.00  0.00    -0.361 N
HETATM   44  C23 UNL     1       9.985  15.427  14.479  1.00  0.00     0.180 A
ATOM     45  H5  UNL     1       9.167  13.554  14.623  1.00  0.00     0.166 HD
HETATM   46  N6  UNL     1       9.724  16.735  14.515  1.00  0.00    -0.356 N
HETATM   47  C24 UNL     1       8.488  17.231  14.713  1.00  0.00     0.014 A
ATOM     48  H6  UNL     1      10.497  17.389  14.386  1.00  0.00     0.166 HD
HETATM   49  C25 UNL     1       8.306  18.728  14.764  1.00  0.00     0.068 C
ENDBRANCH  40  41
ENDBRANCH  30  40
ENDBRANCH   1  26
TORSDOF 13
ENDMDL