MODEL 4
REMARK VINA RESULT: -9.222759710      0.652      1.117
REMARK  16 active torsions:
REMARK  status: ('A' for Active; 'I' for Inactive)
REMARK    1  A    between atoms: C2_2  and  C3_3
REMARK    2  A    between atoms: C3_3  and  C4_4
REMARK    3  A    between atoms: C4_4  and  N1_5
REMARK    4  A    between atoms: C4_4  and  C25_35
REMARK       I    between atoms: N1_5  and  C5_7
REMARK    5  A    between atoms: C5_7  and  C6_9
REMARK    6  A    between atoms: N2_13  and  C10_14
REMARK    7  A    between atoms: C10_14  and  O2_15
REMARK    8  A    between atoms: C10_14  and  C11_17
REMARK    9  A    between atoms: C11_17  and  N3_18
REMARK   10  A    between atoms: C11_17  and  C19_29
REMARK       I    between atoms: N3_18  and  C12_20
REMARK   11  A    between atoms: C12_20  and  O4_22
REMARK   12  A    between atoms: O4_22  and  C13_23
REMARK   13  A    between atoms: C13_23  and  C15_25
REMARK   14  A    between atoms: C25_35  and  C26_37
REMARK       I    between atoms: C26_37  and  N4_39
REMARK   15  A    between atoms: N4_39  and  C27_41
REMARK   16  A    between atoms: C27_41  and  C28_42
ROOT
HETATM    1  C6  UNL     1      15.440  22.411  18.562  1.00  0.00     0.183 C
HETATM    2  C7  UNL     1      15.429  23.382  19.683  1.00  0.00     0.032 A
HETATM    3  C8  UNL     1      14.938  24.650  19.146  1.00  0.00     0.019 A
HETATM    4  C9  UNL     1      14.645  24.375  17.683  1.00  0.00     0.132 C
HETATM    5  N2  UNL     1      15.324  23.194  17.303  1.00  0.00    -0.346 N
HETATM    6  C22 UNL     1      16.267  24.576  19.743  1.00  0.00    -0.036 A
HETATM    7  C23 UNL     1      16.376  25.254  21.120  1.00  0.00     0.016 C
HETATM    8  C24 UNL     1      17.553  24.656  18.975  1.00  0.00     0.016 C
ENDROOT
BRANCH   1   9
HETATM    9  C5  UNL     1      14.339  21.453  18.728  1.00  0.00     0.241 C
HETATM   10  N1  UNL     1      12.964  21.772  18.868  1.00  0.00    -0.347 N
ATOM     11  H1  UNL     1      12.671  22.749  18.851  1.00  0.00     0.163 HD
HETATM   12  O1  UNL     1      14.655  20.227  18.749  1.00  0.00    -0.271 OA
BRANCH  10  13
HETATM   13  C4  UNL     1      11.960  20.722  19.037  1.00  0.00     0.164 C
BRANCH  13  14
HETATM   14  C3  UNL     1      11.005  21.146  20.124  1.00  0.00     0.033 C
BRANCH  14  15
HETATM   15  C2  UNL     1      10.368  19.912  20.772  1.00  0.00    -0.002 C
HETATM   16  C1  UNL     1       9.142  20.296  21.560  1.00  0.00     0.005 C
ENDBRANCH  14  15
ENDBRANCH  13  14
BRANCH  13  17
HETATM   17  C25 UNL     1      11.201  20.486  17.793  1.00  0.00     0.238 C
HETATM   18  O5  UNL     1      10.553  21.433  17.286  1.00  0.00    -0.285 OA
BRANCH  17  19
HETATM   19  C26 UNL     1      11.206  19.184  17.168  1.00  0.00     0.289 C
HETATM   20  O6  UNL     1      11.526  18.149  17.804  1.00  0.00    -0.264 OA
HETATM   21  N4  UNL     1      10.854  18.979  15.798  1.00  0.00    -0.349 N
ATOM     22  H4  UNL     1      10.581  19.783  15.233  1.00  0.00     0.163 HD
BRANCH  21  23
HETATM   23  C27 UNL     1      10.873  17.664  15.190  1.00  0.00     0.181 C
BRANCH  23  24
HETATM   24  C28 UNL     1       9.557  17.048  15.071  1.00  0.00     0.042 A
HETATM   25  C29 UNL     1       8.422  17.807  15.194  1.00  0.00     0.114 A
HETATM   26  N5  UNL     1       7.206  17.221  15.086  1.00  0.00    -0.372 N
HETATM   27  C30 UNL     1       7.073  15.902  14.861  1.00  0.00     0.104 A
ATOM     28  H5  UNL     1       6.368  17.796  15.177  1.00  0.00     0.164 HD
HETATM   29  C31 UNL     1       8.233  15.150  14.742  1.00  0.00     0.105 A
HETATM   30  N6  UNL     1       9.449  15.729  14.848  1.00  0.00    -0.365 N
ATOM     31  H6  UNL     1      10.291  15.160  14.759  1.00  0.00     0.165 HD
ENDBRANCH  23  24
ENDBRANCH  21  23
ENDBRANCH  17  19
ENDBRANCH  13  17
ENDBRANCH  10  13
ENDBRANCH   1   9
BRANCH   5  32
HETATM   32  C10 UNL     1      15.762  22.703  16.089  1.00  0.00     0.162 C
BRANCH  32  33
HETATM   33  O2  UNL     1      17.005  22.237  16.127  1.00  0.00    -0.345 OA
ATOM     34  H2  UNL     1      17.625  22.849  16.505  1.00  0.00     0.219 HD
ENDBRANCH  32  33
BRANCH  32  35
HETATM   35  C11 UNL     1      15.176  22.571  14.762  1.00  0.00     0.068 C
BRANCH  35  36
HETATM   36  N3  UNL     1      15.609  23.578  13.820  1.00  0.00    -0.302 N
HETATM   37  C12 UNL     1      16.876  23.551  13.222  1.00  0.00     0.365 C
HETATM   38  O3  UNL     1      17.732  22.656  13.443  1.00  0.00    -0.238 OA
ATOM     39  H3  UNL     1      14.969  24.335  13.582  1.00  0.00     0.171 HD
BRANCH  37  40
HETATM   40  O4  UNL     1      17.303  24.524  12.319  1.00  0.00    -0.298 OA
BRANCH  40  41
HETATM   41  C13 UNL     1      18.466  25.287  12.478  1.00  0.00     0.137 C
HETATM   42  C14 UNL     1      18.190  26.674  13.013  1.00  0.00     0.041 C
BRANCH  41  43
HETATM   43  C15 UNL     1      19.318  25.323  11.235  1.00  0.00    -0.025 C
HETATM   44  C16 UNL     1      20.734  25.716  11.485  1.00  0.00     0.017 C
HETATM   45  C17 UNL     1      18.736  26.377  10.282  1.00  0.00     0.017 C
HETATM   46  C18 UNL     1      19.244  24.003  10.476  1.00  0.00     0.017 C
ENDBRANCH  41  43
ENDBRANCH  40  41
ENDBRANCH  37  40
ENDBRANCH  35  36
BRANCH  35  47
HETATM   47  C19 UNL     1      14.849  21.250  14.195  1.00  0.00     0.032 C
HETATM   48  C20 UNL     1      14.268  20.273  15.208  1.00  0.00     0.016 C
HETATM   49  C21 UNL     1      13.795  21.341  13.092  1.00  0.00     0.016 C
ENDBRANCH  35  47
ENDBRANCH  32  35
ENDBRANCH   5  32
TORSDOF 16
ENDMDL