MODEL 5
REMARK VINA RESULT: -6.299873411      1.454      2.193
REMARK  14 active torsions:
REMARK  status: ('A' for Active; 'I' for Inactive)
REMARK    1  A    between atoms: C2_2  and  C3_3
REMARK    2  A    between atoms: C3_3  and  C5_5
REMARK    3  A    between atoms: C5_5  and  N1_6
REMARK    4  A    between atoms: C5_5  and  C27_37
REMARK       I    between atoms: N1_6  and  C6_8
REMARK    5  A    between atoms: C6_8  and  C7_10
REMARK       I    between atoms: N2_14  and  C11_15
REMARK    6  A    between atoms: C11_15  and  C12_17
REMARK    7  A    between atoms: C12_17  and  N3_18
REMARK    8  A    between atoms: C12_17  and  C15_23
REMARK       I    between atoms: N3_18  and  C13_20
REMARK    9  A    between atoms: C19_27  and  C20_28
REMARK   10  A    between atoms: C21_31  and  C22_32
REMARK   11  A    between atoms: C22_32  and  C23_33
REMARK   12  A    between atoms: C27_37  and  O6_38
REMARK   13  A    between atoms: C27_37  and  N4_42
REMARK   14  A    between atoms: O6_38  and  C28_39
ROOT
HETATM    1  N4  UNL     1       6.116  14.852  15.193  1.00  0.00    -0.294 N
HETATM    2  C30 UNL     1       5.630  13.704  15.872  1.00  0.00     0.165 C
HETATM    3  C31 UNL     1       6.994  14.769  14.143  1.00  0.00     0.181 C
HETATM    4  N5  UNL     1       7.726  14.681  13.243  1.00  0.00    -0.172 NA
ENDROOT
BRANCH   1   5
HETATM    5  C27 UNL     1       5.550  16.206  15.575  1.00  0.00     0.264 C
BRANCH   5   6
HETATM    6  C5  UNL     1       6.608  17.142  15.977  1.00  0.00     0.138 C
BRANCH   6   7
HETATM    7  C3  UNL     1       7.813  17.212  15.130  1.00  0.00     0.008 C
HETATM    8  C4  UNL     1       7.870  18.589  14.406  1.00  0.00     0.012 C
BRANCH   7   9
HETATM    9  C2  UNL     1       9.157  17.037  15.712  1.00  0.00     0.002 C
HETATM   10  C1  UNL     1      10.250  16.686  14.714  1.00  0.00     0.005 C
ENDBRANCH   7   9
ENDBRANCH   6   7
BRANCH   6  11
HETATM   11  N1  UNL     1       6.995  17.107  17.381  1.00  0.00    -0.350 N
HETATM   12  C6  UNL     1       7.597  16.225  18.229  1.00  0.00     0.241 C
HETATM   13  O1  UNL     1       8.017  15.107  17.914  1.00  0.00    -0.271 OA
ATOM     14  H1  UNL     1       6.751  17.975  17.856  1.00  0.00     0.163 HD
BRANCH  12  15
HETATM   15  C7  UNL     1       7.802  16.583  19.682  1.00  0.00     0.184 C
HETATM   16  C8  UNL     1       9.037  17.291  19.956  1.00  0.00     0.029 C
HETATM   17  C9  UNL     1       8.677  18.171  21.179  1.00  0.00     0.025 C
HETATM   18  C21 UNL     1       9.309  18.628  19.209  1.00  0.00     0.008 C
HETATM   19  C10 UNL     1       7.243  18.486  20.888  1.00  0.00     0.133 C
HETATM   20  C19 UNL     1       9.708  19.144  20.565  1.00  0.00     0.097 C
HETATM   21  N2  UNL     1       6.718  17.316  20.214  1.00  0.00    -0.336 N
HETATM   22  C11 UNL     1       5.313  16.994  20.164  1.00  0.00     0.244 C
HETATM   23  O2  UNL     1       5.001  15.930  19.597  1.00  0.00    -0.271 OA
BRANCH  22  24
HETATM   24  C12 UNL     1       4.283  17.860  20.750  1.00  0.00     0.184 C
BRANCH  24  25
HETATM   25  N3  UNL     1       3.623  17.097  21.838  1.00  0.00    -0.347 N
HETATM   26  C13 UNL     1       3.977  17.285  23.173  1.00  0.00     0.214 C
HETATM   27  C14 UNL     1       3.369  16.566  24.313  1.00  0.00     0.117 C
HETATM   28  O3  UNL     1       4.881  18.125  23.450  1.00  0.00    -0.274 OA
ATOM     29  H3  UNL     1       2.895  16.421  21.605  1.00  0.00     0.163 HD
ENDBRANCH  24  25
BRANCH  24  30
HETATM   30  C15 UNL     1       3.141  18.208  19.822  1.00  0.00    -0.022 C
HETATM   31  C16 UNL     1       3.541  18.632  18.456  1.00  0.00     0.017 C
HETATM   32  C17 UNL     1       2.469  19.433  20.476  1.00  0.00     0.017 C
HETATM   33  C18 UNL     1       2.066  17.150  19.777  1.00  0.00     0.017 C
ENDBRANCH  24  30
ENDBRANCH  22  24
BRANCH  20  34
HETATM   34  C20 UNL     1       9.425  20.502  20.959  1.00  0.00     0.177 C
HETATM   35  O4  UNL     1       9.227  21.354  20.000  1.00  0.00    -0.648 OA
HETATM   36  O5  UNL     1       9.326  21.064  22.205  1.00  0.00    -0.648 OA
ENDBRANCH  20  34
BRANCH  18  37
HETATM   37  C22 UNL     1      10.307  18.387  18.162  1.00  0.00     0.014 C
BRANCH  37  38
HETATM   38  C23 UNL     1      11.093  19.523  17.621  1.00  0.00    -0.051 C
HETATM   39  C24 UNL     1      11.998  20.190  18.625  1.00  0.00     0.014 C
HETATM   40  C25 UNL     1      12.037  18.943  16.553  1.00  0.00     0.014 C
HETATM   41  C26 UNL     1      10.238  20.533  16.878  1.00  0.00     0.014 C
ENDBRANCH  37  38
ENDBRANCH  18  37
ENDBRANCH  12  15
ENDBRANCH   6  11
ENDBRANCH   5   6
BRANCH   5  42
HETATM   42  O6  UNL     1       4.767  15.764  16.699  1.00  0.00    -0.293 OA
BRANCH  42  43
HETATM   43  C28 UNL     1       3.373  15.687  16.569  1.00  0.00     0.256 C
HETATM   44  C29 UNL     1       2.643  16.501  15.574  1.00  0.00     0.126 C
HETATM   45  O7  UNL     1       2.767  14.899  17.327  1.00  0.00    -0.266 OA
ENDBRANCH  42  43
ENDBRANCH   5  42
ENDBRANCH   1   5
TORSDOF 14
ENDMDL