MODEL 2
REMARK VINA RESULT: -8.193860969      0.899      1.281
REMARK  15 active torsions:
REMARK  status: ('A' for Active; 'I' for Inactive)
REMARK    1  A    between atoms: C2_2  and  C3_3
REMARK    2  A    between atoms: C3_3  and  C4_4
REMARK    3  A    between atoms: C4_4  and  C5_5
REMARK    4  A    between atoms: C5_5  and  O1_6
REMARK    5  A    between atoms: O1_6  and  C6_7
REMARK       I    between atoms: C6_7  and  N1_9
REMARK       I    between atoms: N2_12  and  C9_13
REMARK    6  A    between atoms: C9_13  and  C10_15
REMARK    7  A    between atoms: C12_17  and  S1_18
REMARK       I    between atoms: N3_21  and  C15_22
REMARK    8  A    between atoms: C15_22  and  C16_24
REMARK    9  A    between atoms: C16_24  and  C17_25
REMARK   10  A    between atoms: C16_24  and  N7_33
REMARK   11  A    between atoms: C17_25  and  C18_26
REMARK   12  A    between atoms: C18_26  and  C19_27
REMARK   13  A    between atoms: C19_27  and  N4_28
REMARK       I    between atoms: N7_33  and  C21_35
REMARK   14  A    between atoms: C21_35  and  O6_37
REMARK   15  A    between atoms: O6_37  and  C22_38
ROOT
HETATM    1  C10 UNL     1       9.760  18.145  16.280  1.00  0.00     0.180 C
HETATM    2  C11 UNL     1       9.582  17.403  15.013  1.00  0.00     0.052 C
HETATM    3  C12 UNL     1       8.985  16.076  15.541  1.00  0.00     0.067 C
HETATM    4  C14 UNL     1       8.033  16.593  16.608  1.00  0.00     0.142 C
HETATM    5  N3  UNL     1       8.767  17.681  17.195  1.00  0.00    -0.336 N
HETATM    6  C15 UNL     1       8.543  18.281  18.479  1.00  0.00     0.243 C
HETATM    7  O4  UNL     1       9.261  19.301  18.770  1.00  0.00    -0.271 OA
ENDROOT
BRANCH   1   8
HETATM    8  C9  UNL     1      11.144  18.118  16.799  1.00  0.00     0.242 C
HETATM    9  N2  UNL     1      11.931  19.267  16.828  1.00  0.00    -0.347 N
HETATM   10  C8  UNL     1      11.498  20.560  16.380  1.00  0.00     0.146 C
HETATM   11  C26 UNL     1      13.294  19.180  17.344  1.00  0.00     0.146 C
HETATM   12  C7  UNL     1      12.071  21.687  17.217  1.00  0.00     0.148 C
HETATM   13  N1  UNL     1      13.490  21.575  17.312  1.00  0.00    -0.325 N
HETATM   14  C6  UNL     1      14.235  22.693  17.832  1.00  0.00     0.362 C
HETATM   15  C27 UNL     1      14.126  20.354  16.880  1.00  0.00     0.148 C
HETATM   16  O2  UNL     1      15.479  22.515  17.913  1.00  0.00    -0.238 OA
HETATM   17  O3  UNL     1      11.633  17.045  17.225  1.00  0.00    -0.271 OA
BRANCH  14  18
HETATM   18  O1  UNL     1      13.633  23.850  18.204  1.00  0.00    -0.304 OA
BRANCH  18  19
HETATM   19  C5  UNL     1      14.144  25.123  18.205  1.00  0.00     0.180 C
BRANCH  19  20
HETATM   20  C4  UNL     1      15.242  25.507  19.123  1.00  0.00     0.027 C
BRANCH  20  21
HETATM   21  C3  UNL     1      15.362  24.830  20.432  1.00  0.00     0.002 C
BRANCH  21  22
HETATM   22  C2  UNL     1      16.847  24.478  20.658  1.00  0.00    -0.004 C
HETATM   23  C1  UNL     1      17.613  24.880  19.428  1.00  0.00     0.005 C
ENDBRANCH  21  22
ENDBRANCH  20  21
ENDBRANCH  19  20
ENDBRANCH  18  19
ENDBRANCH  14  18
ENDBRANCH   1   8
BRANCH   6  24
HETATM   24  C16 UNL     1       7.592  17.868  19.495  1.00  0.00     0.179 C
BRANCH  24  25
HETATM   25  C17 UNL     1       7.723  18.587  20.830  1.00  0.00     0.037 C
BRANCH  25  26
HETATM   26  C18 UNL     1       8.370  17.724  21.873  1.00  0.00     0.022 C
BRANCH  26  27
HETATM   27  C19 UNL     1       7.732  16.349  21.932  1.00  0.00     0.122 C
BRANCH  27  28
HETATM   28  N4  UNL     1       6.434  16.465  22.556  1.00  0.00    -0.367 N
HETATM   29  C20 UNL     1       6.260  16.081  23.781  1.00  0.00     0.196 C
HETATM   30  N5  UNL     1       7.356  15.547  24.504  1.00  0.00    -0.067 NA
HETATM   31  N6  UNL     1       5.003  16.175  24.429  1.00  0.00    -0.067 NA
ATOM     32  H4  UNL     1       5.650  16.850  22.030  1.00  0.00     0.161 HD
ENDBRANCH  27  28
ENDBRANCH  26  27
ENDBRANCH  25  26
ENDBRANCH  24  25
BRANCH  24  33
HETATM   33  N7  UNL     1       6.192  18.117  19.078  1.00  0.00    -0.324 N
HETATM   34  C21 UNL     1       5.216  17.090  19.168  1.00  0.00     0.362 C
HETATM   35  O5  UNL     1       5.476  15.943  19.599  1.00  0.00    -0.238 OA
ATOM     36  H7  UNL     1       5.927  19.035  18.722  1.00  0.00     0.165 HD
BRANCH  34  37
HETATM   37  O6  UNL     1       3.934  17.371  18.768  1.00  0.00    -0.294 OA
BRANCH  37  38
HETATM   38  C22 UNL     1       3.270  16.917  17.630  1.00  0.00     0.061 C
HETATM   39  C23 UNL     1       2.389  15.695  17.917  1.00  0.00     0.046 C
HETATM   40  C24 UNL     1       2.362  18.081  17.185  1.00  0.00     0.046 C
HETATM   41  C25 UNL     1       4.154  16.586  16.464  1.00  0.00     0.046 C
ENDBRANCH  37  38
ENDBRANCH  34  37
ENDBRANCH  24  33
ENDBRANCH   6  24
BRANCH   3  42
HETATM   42  S1  UNL     1       8.123  15.256  14.188  1.00  0.00    -0.167 SA
HETATM   43  C13 UNL     1       6.628  14.477  14.854  1.00  0.00     0.090 C
ENDBRANCH   3  42
TORSDOF 15
ENDMDL