MODEL 2
REMARK VINA RESULT: -8.540885062      2.904      6.305
REMARK  17 active torsions:
REMARK  status: ('A' for Active; 'I' for Inactive)
REMARK    1  A    between atoms: O1_2  and  C2_3
REMARK    2  A    between atoms: C2_3  and  C3_4
REMARK    3  A    between atoms: C3_4  and  N1_5
REMARK       I    between atoms: N1_5  and  C5_7
REMARK    4  A    between atoms: C5_7  and  C6_9
REMARK    5  A    between atoms: C6_9  and  C7_10
REMARK    6  A    between atoms: C7_10  and  C8_11
REMARK    7  A    between atoms: C8_11  and  O3_12
REMARK    8  A    between atoms: C8_11  and  C9_14
REMARK    9  A    between atoms: C10_15  and  C11_16
REMARK   10  A    between atoms: N2_24  and  C18_25
REMARK   11  A    between atoms: C18_25  and  O4_26
REMARK   12  A    between atoms: C18_25  and  C19_28
REMARK   13  A    between atoms: C19_28  and  N3_29
REMARK   14  A    between atoms: C19_28  and  C26_42
REMARK       I    between atoms: N3_29  and  C20_31
REMARK       I    between atoms: C20_31  and  N4_33
REMARK       I    between atoms: N4_33  and  C21_35
REMARK   15  A    between atoms: C21_35  and  O7_37
REMARK   16  A    between atoms: O7_37  and  C22_38
REMARK   17  A    between atoms: C22_38  and  C23_39
ROOT
HETATM    1  C11 UNL     1       9.122  17.937  20.253  1.00  0.00     0.123 C
HETATM    2  C12 UNL     1       8.195  18.152  21.380  1.00  0.00     0.082 C
HETATM    3  S1  UNL     1       7.802  16.744  22.441  1.00  0.00    -0.152 SA
HETATM    4  C13 UNL     1       6.401  16.831  21.248  1.00  0.00     0.007 C
HETATM    5  C14 UNL     1       6.510  15.664  20.336  1.00  0.00     0.027 C
HETATM    6  C15 UNL     1       5.051  16.754  21.984  1.00  0.00     0.027 C
HETATM    7  C16 UNL     1       6.795  18.181  20.832  1.00  0.00     0.037 C
HETATM    8  C17 UNL     1       7.061  18.504  19.386  1.00  0.00     0.133 C
HETATM    9  N2  UNL     1       8.323  17.985  18.995  1.00  0.00    -0.354 N
ENDROOT
BRANCH   9  10
HETATM   10  C18 UNL     1       8.824  17.614  17.756  1.00  0.00     0.138 C
BRANCH  10  11
HETATM   11  O4  UNL     1       9.290  16.361  17.793  1.00  0.00    -0.348 OA
ATOM     12  H4  UNL     1       9.607  16.148  18.662  1.00  0.00     0.219 HD
ENDBRANCH  10  11
BRANCH  10  13
HETATM   13  C19 UNL     1       8.978  18.233  16.464  1.00  0.00     0.168 C
BRANCH  13  14
HETATM   14  N3  UNL     1      10.437  18.611  16.271  1.00  0.00    -0.330 N
HETATM   15  C20 UNL     1      10.854  19.958  16.290  1.00  0.00     0.325 C
HETATM   16  O5  UNL     1       9.902  20.799  16.501  1.00  0.00    -0.247 OA
HETATM   17  N4  UNL     1      12.148  20.447  16.109  1.00  0.00    -0.255 N
HETATM   18  C21 UNL     1      13.324  19.719  15.846  1.00  0.00     0.368 C
ATOM     19  H4  UNL     1      12.256  21.459  16.174  1.00  0.00     0.175 HD
HETATM   20  O6  UNL     1      13.342  18.483  15.756  1.00  0.00    -0.238 OA
ATOM     21  H3  UNL     1      11.128  17.876  16.125  1.00  0.00     0.165 HD
BRANCH  18  22
HETATM   22  O7  UNL     1      14.535  20.378  15.675  1.00  0.00    -0.303 OA
BRANCH  22  23
HETATM   23  C22 UNL     1      15.043  20.702  14.409  1.00  0.00     0.184 C
BRANCH  23  24
HETATM   24  C23 UNL     1      14.232  21.809  13.785  1.00  0.00     0.002 C
HETATM   25  C24 UNL     1      13.546  21.274  12.532  1.00  0.00     0.011 C
HETATM   26  C25 UNL     1      15.186  22.907  13.340  1.00  0.00     0.011 C
ENDBRANCH  23  24
ENDBRANCH  22  23
ENDBRANCH  18  22
ENDBRANCH  13  14
BRANCH  13  27
HETATM   27  C26 UNL     1       8.605  17.529  15.211  1.00  0.00    -0.023 C
HETATM   28  C27 UNL     1       9.601  16.815  14.411  1.00  0.00     0.017 C
HETATM   29  C28 UNL     1       7.450  16.529  15.492  1.00  0.00     0.017 C
HETATM   30  C29 UNL     1       7.931  18.534  14.226  1.00  0.00     0.017 C
ENDBRANCH  13  27
ENDBRANCH  10  13
ENDBRANCH   9  10
BRANCH   1  31
HETATM   31  C10 UNL     1      10.207  18.948  20.172  1.00  0.00    -0.002 C
HETATM   32  C9  UNL     1      10.040  20.241  19.884  1.00  0.00     0.003 C
BRANCH  32  33
HETATM   33  C8  UNL     1      11.172  21.178  19.825  1.00  0.00     0.141 C
BRANCH  33  34
HETATM   34  C7  UNL     1      12.473  20.626  19.421  1.00  0.00     0.045 C
BRANCH  34  35
HETATM   35  C6  UNL     1      13.687  21.454  19.463  1.00  0.00     0.106 C
BRANCH  35  36
HETATM   36  C5  UNL     1      13.790  22.669  18.687  1.00  0.00     0.219 C
HETATM   37  N1  UNL     1      14.567  23.776  19.143  1.00  0.00    -0.354 N
HETATM   38  C4  UNL     1      14.592  24.981  18.306  1.00  0.00     0.152 C
HETATM   39  O2  UNL     1      13.208  22.805  17.583  1.00  0.00    -0.273 OA
BRANCH  37  40
HETATM   40  C3  UNL     1      15.327  23.811  20.361  1.00  0.00     0.151 C
BRANCH  40  41
HETATM   41  C2  UNL     1      16.264  25.012  20.403  1.00  0.00     0.186 C
BRANCH  41  42
HETATM   42  O1  UNL     1      17.569  24.542  20.323  1.00  0.00    -0.394 OA
HETATM   43  C1  UNL     1      18.070  24.920  19.060  1.00  0.00     0.201 C
ENDBRANCH  41  42
ENDBRANCH  40  41
ENDBRANCH  37  40
ENDBRANCH  35  36
ENDBRANCH  34  35
ENDBRANCH  33  34
BRANCH  33  44
HETATM   44  O3  UNL     1      10.890  22.261  18.957  1.00  0.00    -0.392 OA
ATOM     45  H3  UNL     1      10.003  22.547  19.143  1.00  0.00     0.210 HD
ENDBRANCH  33  44
ENDBRANCH  32  33
ENDBRANCH   1  31
TORSDOF 17
ENDMDL