MODEL 2
REMARK VINA RESULT: -7.931368526      0.972      1.401
REMARK  14 active torsions:
REMARK  status: ('A' for Active; 'I' for Inactive)
REMARK    1  A    between atoms: C2_2  and  C3_3
REMARK    2  A    between atoms: C3_3  and  C4_4
REMARK    3  A    between atoms: C4_4  and  C5_5
REMARK    4  A    between atoms: C5_5  and  C6_6
REMARK    5  A    between atoms: C6_6  and  C7_7
REMARK    6  A    between atoms: C8_8  and  O1_9
REMARK    7  A    between atoms: C14_21  and  C15_22
REMARK    8  A    between atoms: C15_22  and  C16_23
REMARK    9  A    between atoms: C16_23  and  C17_24
REMARK   10  A    between atoms: C17_24  and  N4_25
REMARK   11  A    between atoms: C18_27  and  O2_28
REMARK   12  A    between atoms: C20_34  and  C21_35
REMARK   13  A    between atoms: C21_35  and  C22_36
REMARK   14  A    between atoms: C26_42  and  C27_43
ROOT
HETATM    1  C7  UNL     1      16.791  24.288  16.320  1.00  0.00     0.064 C
HETATM    2  C8  UNL     1      16.520  24.759  17.673  1.00  0.00     0.159 C
HETATM    3  N1  UNL     1      16.465  24.076  18.887  1.00  0.00    -0.364 N
ATOM      4  H1  UNL     1      15.578  24.159  19.385  1.00  0.00     0.162 HD
HETATM    5  C9  UNL     1      17.458  23.273  19.550  1.00  0.00     0.097 C
HETATM    6  C10 UNL     1      17.003  22.973  20.992  1.00  0.00     0.034 C
HETATM    7  C11 UNL     1      18.794  23.925  19.679  1.00  0.00     0.147 C
HETATM    8  N2  UNL     1      19.891  22.983  19.757  1.00  0.00    -0.380 N
HETATM    9  C12 UNL     1      19.602  21.738  20.486  1.00  0.00     0.150 C
HETATM   10  C13 UNL     1      21.172  23.176  19.198  1.00  0.00     0.174 C
HETATM   11  N3  UNL     1      21.936  24.168  19.226  1.00  0.00    -0.373 N
ATOM     12  H3  UNL     1      22.812  24.017  18.726  1.00  0.00     0.161 HD
HETATM   13  C14 UNL     1      21.834  25.451  19.807  1.00  0.00     0.174 C
HETATM   14  C19 UNL     1      23.028  26.270  19.417  1.00  0.00     0.241 C
HETATM   15  O3  UNL     1      24.048  26.155  20.160  1.00  0.00    -0.271 OA
HETATM   16  N5  UNL     1      23.087  27.136  18.305  1.00  0.00    -0.345 N
ATOM     17  H5  UNL     1      23.430  28.080  18.483  1.00  0.00     0.163 HD
HETATM   18  C20 UNL     1      22.716  26.835  16.947  1.00  0.00     0.184 C
HETATM   19  C25 UNL     1      21.324  27.381  16.661  1.00  0.00     0.282 C
HETATM   20  O4  UNL     1      21.314  28.638  16.638  1.00  0.00    -0.263 OA
HETATM   21  O5  UNL     1      20.316  26.585  16.474  1.00  0.00    -0.304 OA
HETATM   22  C26 UNL     1      19.378  26.084  15.643  1.00  0.00     0.227 C
HETATM   23  C30 UNL     1      19.283  24.621  15.835  1.00  0.00     0.254 C
HETATM   24  O6  UNL     1      20.416  24.028  15.752  1.00  0.00    -0.270 OA
HETATM   25  N6  UNL     1      18.161  23.831  16.085  1.00  0.00    -0.320 N
HETATM   26  C31 UNL     1      18.353  22.371  16.097  1.00  0.00     0.159 C
ENDROOT
BRANCH  13  27
HETATM   27  C15 UNL     1      21.790  25.315  21.319  1.00  0.00     0.036 C
BRANCH  27  28
HETATM   28  C16 UNL     1      21.437  26.610  22.003  1.00  0.00     0.022 C
BRANCH  28  29
HETATM   29  C17 UNL     1      22.260  26.721  23.287  1.00  0.00     0.121 C
BRANCH  29  30
HETATM   30  N4  UNL     1      23.483  25.947  23.179  1.00  0.00    -0.381 N
HETATM   31  C18 UNL     1      24.367  25.974  24.122  1.00  0.00     0.218 C
ATOM     32  H4  UNL     1      23.646  25.375  22.350  1.00  0.00     0.160 HD
BRANCH  31  33
HETATM   33  O2  UNL     1      24.213  26.726  25.274  1.00  0.00    -0.357 OA
ATOM     34  H2  UNL     1      24.273  26.352  26.145  1.00  0.00     0.218 HD
ENDBRANCH  31  33
ENDBRANCH  29  30
ENDBRANCH  28  29
ENDBRANCH  27  28
ENDBRANCH  13  27
BRANCH  18  35
HETATM   35  C21 UNL     1      23.584  27.465  15.895  1.00  0.00     0.039 C
BRANCH  35  36
HETATM   36  C22 UNL     1      24.910  27.964  16.324  1.00  0.00    -0.020 C
HETATM   37  C23 UNL     1      25.945  27.161  15.495  1.00  0.00     0.009 C
HETATM   38  C24 UNL     1      25.109  29.406  15.839  1.00  0.00     0.009 C
ENDBRANCH  35  36
ENDBRANCH  18  35
BRANCH  22  39
HETATM   39  C27 UNL     1      19.423  26.453  14.182  1.00  0.00     0.016 C
HETATM   40  C28 UNL     1      20.461  27.425  13.780  1.00  0.00     0.012 C
HETATM   41  C29 UNL     1      18.029  26.827  13.729  1.00  0.00     0.012 C
ENDBRANCH  22  39
BRANCH   2  42
HETATM   42  O1  UNL     1      16.283  26.040  17.815  1.00  0.00    -0.345 OA
ATOM     43  H1  UNL     1      15.511  26.278  18.315  1.00  0.00     0.219 HD
ENDBRANCH   2  42
BRANCH   1  44
HETATM   44  C6  UNL     1      15.810  23.376  15.665  1.00  0.00     0.062 C
BRANCH  44  45
HETATM   45  C5  UNL     1      14.380  23.488  15.971  1.00  0.00     0.006 C
BRANCH  45  46
HETATM   46  C4  UNL     1      13.401  23.746  14.888  1.00  0.00     0.000 C
BRANCH  46  47
HETATM   47  C3  UNL     1      12.747  22.443  14.399  1.00  0.00    -0.000 C
BRANCH  47  48
HETATM   48  C2  UNL     1      13.487  21.995  13.128  1.00  0.00    -0.005 C
HETATM   49  C1  UNL     1      14.215  20.706  13.486  1.00  0.00     0.005 C
ENDBRANCH  47  48
ENDBRANCH  46  47
ENDBRANCH  45  46
ENDBRANCH  44  45
ENDBRANCH   1  44
TORSDOF 14
ENDMDL