MODEL 3
REMARK VINA RESULT: -8.781729038      3.324     11.326
REMARK  14 active torsions:
REMARK  status: ('A' for Active; 'I' for Inactive)
REMARK    1  A    between atoms: C2_2  and  C3_3
REMARK    2  A    between atoms: C2_2  and  C14_20
REMARK    3  A    between atoms: C3_3  and  C4_4
REMARK    4  A    between atoms: C4_4  and  N1_5
REMARK    5  A    between atoms: C13_15  and  N3_16
REMARK    6  A    between atoms: C14_20  and  N4_21
REMARK       I    between atoms: N5_25  and  C18_26
REMARK       I    between atoms: C18_26  and  N6_28
REMARK    7  A    between atoms: N6_28  and  C19_30
REMARK    8  A    between atoms: C19_30  and  C20_31
REMARK    9  A    between atoms: C20_31  and  C21_32
REMARK   10  A    between atoms: C21_32  and  C22_33
REMARK   11  A    between atoms: C22_33  and  C23_34
REMARK   12  A    between atoms: C24_35  and  N7_36
REMARK   13  A    between atoms: C26_38  and  C27_39
REMARK   14  A    between atoms: C27_39  and  O2_42
ROOT
HETATM    1  N4  UNL     1      20.583  23.349  20.405  1.00  0.00    -0.333 N
HETATM    2  C15 UNL     1      20.064  22.648  21.563  1.00  0.00     0.129 C
HETATM    3  C16 UNL     1      19.132  21.562  21.050  1.00  0.00     0.040 C
HETATM    4  C17 UNL     1      17.930  22.157  20.352  1.00  0.00     0.140 C
HETATM    5  N5  UNL     1      18.366  23.110  19.374  1.00  0.00    -0.252 N
HETATM    6  C18 UNL     1      17.410  23.723  18.484  1.00  0.00     0.326 C
HETATM    7  O1  UNL     1      17.804  24.553  17.633  1.00  0.00    -0.247 OA
HETATM    8  N6  UNL     1      16.034  23.364  18.603  1.00  0.00    -0.343 N
ATOM      9  H6  UNL     1      15.747  22.687  19.311  1.00  0.00     0.164 HD
HETATM   10  C31 UNL     1      19.739  23.461  19.270  1.00  0.00     0.328 C
HETATM   11  O5  UNL     1      20.183  23.870  18.162  1.00  0.00    -0.246 OA
ENDROOT
BRANCH   8  12
HETATM   12  C19 UNL     1      15.058  23.940  17.744  1.00  0.00     0.124 C
BRANCH  12  13
HETATM   13  C20 UNL     1      15.195  23.549  16.336  1.00  0.00     0.020 C
BRANCH  13  14
HETATM   14  C21 UNL     1      14.000  23.540  15.449  1.00  0.00     0.005 C
BRANCH  14  15
HETATM   15  C22 UNL     1      13.974  22.629  14.294  1.00  0.00     0.028 C
BRANCH  15  16
HETATM   16  C23 UNL     1      12.714  21.842  14.186  1.00  0.00    -0.009 C
HETATM   17  C24 UNL     1      12.540  20.529  14.766  1.00  0.00     0.092 C
BRANCH  17  18
HETATM   18  N7  UNL     1      12.685  20.196  16.130  1.00  0.00    -0.302 N
HETATM   19  C25 UNL     1      11.608  19.680  16.991  1.00  0.00     0.169 C
HETATM   20  C26 UNL     1      12.112  19.937  18.368  1.00  0.00     0.185 C
HETATM   21  O3  UNL     1      13.396  20.470  18.260  1.00  0.00    -0.293 OA
HETATM   22  C30 UNL     1      13.838  20.253  16.982  1.00  0.00     0.367 C
HETATM   23  O4  UNL     1      15.030  20.129  16.623  1.00  0.00    -0.238 OA
BRANCH  20  24
HETATM   24  C27 UNL     1      12.085  18.706  19.249  1.00  0.00     0.079 C
HETATM   25  C28 UNL     1      13.142  18.921  20.335  1.00  0.00     0.048 C
HETATM   26  C29 UNL     1      12.367  17.439  18.512  1.00  0.00     0.048 C
BRANCH  24  27
HETATM   27  O2  UNL     1      10.866  18.603  19.911  1.00  0.00    -0.388 OA
ATOM     28  H2  UNL     1      10.589  17.696  19.963  1.00  0.00     0.210 HD
ENDBRANCH  24  27
ENDBRANCH  20  24
ENDBRANCH  17  18
ENDBRANCH  15  16
ENDBRANCH  14  15
ENDBRANCH  13  14
ENDBRANCH  12  13
ENDBRANCH   8  12
BRANCH   1  29
HETATM   29  C14 UNL     1      21.897  23.930  20.351  1.00  0.00     0.132 C
BRANCH  29  30
HETATM   30  C2  UNL     1      21.957  25.082  21.326  1.00  0.00     0.001 C
HETATM   31  C1  UNL     1      23.198  25.033  22.184  1.00  0.00     0.011 C
BRANCH  30  32
HETATM   32  C3  UNL     1      21.818  26.420  20.636  1.00  0.00     0.026 C
BRANCH  32  33
HETATM   33  C4  UNL     1      22.977  26.675  19.678  1.00  0.00     0.124 C
BRANCH  33  34
HETATM   34  N1  UNL     1      22.439  27.208  18.476  1.00  0.00    -0.366 N
HETATM   35  C5  UNL     1      21.077  27.544  18.476  1.00  0.00     0.062 C
HETATM   36  C6  UNL     1      20.216  26.861  17.460  1.00  0.00     0.086 C
HETATM   37  C7  UNL     1      20.864  27.014  16.112  1.00  0.00     0.167 C
HETATM   38  C8  UNL     1      20.859  28.445  15.663  1.00  0.00     0.044 C
HETATM   39  N2  UNL     1      20.109  26.366  15.058  1.00  0.00     0.094 N
HETATM   40  C12 UNL     1      22.218  26.395  16.162  1.00  0.00     0.096 C
HETATM   41  C9  UNL     1      21.108  28.339  14.178  1.00  0.00     0.033 C
HETATM   42  C10 UNL     1      20.529  26.991  13.824  1.00  0.00     0.273 C
HETATM   43  C11 UNL     1      20.344  24.958  14.962  1.00  0.00     0.310 C
HETATM   44  C13 UNL     1      23.088  26.910  17.270  1.00  0.00     0.285 C
BRANCH  44  45
HETATM   45  N3  UNL     1      23.848  28.047  16.774  1.00  0.00    -0.058 N
ATOM     46  H33 UNL     1      23.424  28.930  17.057  1.00  0.00     0.276 HD
ATOM     47  H32 UNL     1      24.741  28.137  17.258  1.00  0.00     0.276 HD
ATOM     48  H31 UNL     1      23.976  28.002  15.763  1.00  0.00     0.276 HD
ENDBRANCH  44  45
ENDBRANCH  33  34
ENDBRANCH  32  33
ENDBRANCH  30  32
ENDBRANCH  29  30
ENDBRANCH   1  29
TORSDOF 14
ENDMDL