MODEL 4
REMARK VINA RESULT: -8.742873153      1.887      4.168
REMARK  13 active torsions:
REMARK  status: ('A' for Active; 'I' for Inactive)
REMARK    1  A    between atoms: C2_2  and  C3_3
REMARK    2  A    between atoms: C3_3  and  C4_4
REMARK    3  A    between atoms: C4_4  and  N1_5
REMARK       I    between atoms: N1_5  and  C5_7
REMARK    4  A    between atoms: C5_7  and  C6_9
REMARK    5  A    between atoms: C6_9  and  C7_11
REMARK    6  A    between atoms: C7_11  and  C8_12
REMARK    7  A    between atoms: C7_11  and  N2_16
REMARK    8  A    between atoms: C8_12  and  C9_13
REMARK       I    between atoms: N2_16  and  C12_18
REMARK    9  A    between atoms: C12_18  and  C13_20
REMARK       I    between atoms: N3_23  and  C16_24
REMARK   10  A    between atoms: C16_24  and  C17_26
REMARK   11  A    between atoms: C17_26  and  N4_27
REMARK   12  A    between atoms: C17_26  and  C24_39
REMARK       I    between atoms: N4_27  and  C18_29
REMARK   13  A    between atoms: C18_29  and  C19_31
ROOT
HETATM    1  C13 UNL     1      14.625  21.764  13.449  1.00  0.00     0.098 A
HETATM    2  C14 UNL     1      15.544  21.662  14.525  1.00  0.00     0.032 A
HETATM    3  C15 UNL     1      16.649  22.498  15.061  1.00  0.00     0.141 C
HETATM    4  N3  UNL     1      15.876  23.186  16.112  1.00  0.00    -0.286 N
HETATM    5  C16 UNL     1      16.342  23.608  17.397  1.00  0.00     0.250 C
HETATM    6  O4  UNL     1      15.523  24.226  18.124  1.00  0.00    -0.271 OA
HETATM    7  C28 UNL     1      14.555  23.322  15.578  1.00  0.00     0.232 C
HETATM    8  O6  UNL     1      13.569  23.691  16.229  1.00  0.00    -0.272 OA
HETATM    9  C29 UNL     1      14.666  22.946  14.196  1.00  0.00     0.098 A
ENDROOT
BRANCH   1  10
HETATM   10  C12 UNL     1      13.383  20.940  13.465  1.00  0.00     0.223 C
HETATM   11  N2  UNL     1      12.111  21.484  13.760  1.00  0.00    -0.349 N
ATOM     12  H2  UNL     1      12.038  22.479  13.975  1.00  0.00     0.163 HD
HETATM   13  O3  UNL     1      13.442  19.710  13.208  1.00  0.00    -0.273 OA
BRANCH  11  14
HETATM   14  C7  UNL     1      10.900  20.670  13.769  1.00  0.00     0.164 C
BRANCH  14  15
HETATM   15  C6  UNL     1      10.359  20.634  15.155  1.00  0.00     0.238 C
HETATM   16  O2  UNL     1       9.218  21.101  15.358  1.00  0.00    -0.285 OA
BRANCH  15  17
HETATM   17  C5  UNL     1      11.106  20.076  16.267  1.00  0.00     0.289 C
HETATM   18  N1  UNL     1      12.184  20.833  16.809  1.00  0.00    -0.354 N
ATOM     19  H1  UNL     1      12.427  21.747  16.424  1.00  0.00     0.162 HD
HETATM   20  O1  UNL     1      10.827  18.948  16.762  1.00  0.00    -0.264 OA
BRANCH  18  21
HETATM   21  C4  UNL     1      12.926  20.274  17.921  1.00  0.00     0.123 C
BRANCH  21  22
HETATM   22  C3  UNL     1      14.302  19.797  17.519  1.00  0.00     0.019 C
BRANCH  22  23
HETATM   23  C2  UNL     1      14.429  18.357  17.997  1.00  0.00    -0.003 C
HETATM   24  C1  UNL     1      13.550  18.193  19.204  1.00  0.00     0.005 C
ENDBRANCH  22  23
ENDBRANCH  21  22
ENDBRANCH  18  21
ENDBRANCH  15  17
ENDBRANCH  14  15
BRANCH  14  25
HETATM   25  C8  UNL     1       9.834  21.372  12.930  1.00  0.00     0.037 C
BRANCH  25  26
HETATM   26  C9  UNL     1       9.282  20.454  11.880  1.00  0.00    -0.020 C
HETATM   27  C10 UNL     1      10.484  19.809  11.184  1.00  0.00     0.009 C
HETATM   28  C11 UNL     1       8.543  21.217  10.789  1.00  0.00     0.009 C
ENDBRANCH  25  26
ENDBRANCH  14  25
ENDBRANCH  11  14
ENDBRANCH   1  10
BRANCH   5  29
HETATM   29  C17 UNL     1      17.714  23.310  17.797  1.00  0.00     0.185 C
BRANCH  29  30
HETATM   30  N4  UNL     1      18.530  24.550  17.847  1.00  0.00    -0.342 N
HETATM   31  C18 UNL     1      19.617  24.747  17.026  1.00  0.00     0.261 C
HETATM   32  O5  UNL     1      19.895  23.805  16.203  1.00  0.00    -0.267 OA
ATOM     33  H4  UNL     1      18.277  25.280  18.513  1.00  0.00     0.163 HD
BRANCH  31  34
HETATM   34  C19 UNL     1      20.480  25.903  16.992  1.00  0.00     0.096 A
HETATM   35  S1  UNL     1      21.019  26.733  15.539  1.00  0.00    -0.070 SA
HETATM   36  C20 UNL     1      21.967  27.935  16.261  1.00  0.00     0.048 A
HETATM   37  C21 UNL     1      22.765  29.042  15.634  1.00  0.00     0.076 C
HETATM   38  N5  UNL     1      21.838  27.663  17.533  1.00  0.00    -0.357 N
HETATM   39  C22 UNL     1      21.109  26.664  17.940  1.00  0.00     0.028 A
ATOM     40  H5  UNL     1      22.319  28.245  18.220  1.00  0.00     0.166 HD
HETATM   41  C23 UNL     1      20.984  26.376  19.431  1.00  0.00     0.070 C
ENDBRANCH  31  34
ENDBRANCH  29  30
BRANCH  29  42
HETATM   42  C24 UNL     1      17.847  22.742  19.199  1.00  0.00    -0.022 C
HETATM   43  C25 UNL     1      17.794  23.774  20.286  1.00  0.00     0.017 C
HETATM   44  C26 UNL     1      19.138  21.979  19.377  1.00  0.00     0.017 C
HETATM   45  C27 UNL     1      16.735  21.700  19.405  1.00  0.00     0.017 C
ENDBRANCH  29  42
ENDBRANCH   5  29
TORSDOF 13
ENDMDL