MODEL 4
REMARK VINA RESULT: -8.432728832      2.388      9.296
REMARK  16 active torsions:
REMARK  status: ('A' for Active; 'I' for Inactive)
REMARK    1  A    between atoms: C2_2  and  C3_4
REMARK    2  A    between atoms: C3_4  and  C4_5
REMARK       I    between atoms: N1_8  and  C7_9
REMARK    3  A    between atoms: C7_9  and  C8_11
REMARK    4  A    between atoms: C8_11  and  C9_12
REMARK    5  A    between atoms: C9_12  and  C10_13
REMARK    6  A    between atoms: C10_13  and  N2_14
REMARK    7  A    between atoms: C10_13  and  C16_26
REMARK    8  A    between atoms: N2_14  and  C11_16
REMARK    9  A    between atoms: C11_16  and  C12_18
REMARK   10  A    between atoms: C12_18  and  N3_19
REMARK   11  A    between atoms: C12_18  and  C13_23
REMARK   12  A    between atoms: C16_26  and  C19_29
REMARK   13  A    between atoms: C19_29  and  O3_30
REMARK   14  A    between atoms: C19_29  and  N4_32
REMARK   15  A    between atoms: C24_38  and  C25_39
REMARK       I    between atoms: C25_39  and  N5_41
REMARK   16  A    between atoms: N5_41  and  C26_43
ROOT
HETATM    1  C26 UNL     1      23.290  26.039  18.565  1.00  0.00     0.247 C
HETATM    2  C27 UNL     1      23.178  26.419  19.973  1.00  0.00     0.078 C
HETATM    3  N6  UNL     1      23.092  26.730  21.084  1.00  0.00    -0.196 NA
ENDROOT
BRANCH   1   4
HETATM    4  N5  UNL     1      21.990  25.960  17.953  1.00  0.00    -0.347 N
HETATM    5  C25 UNL     1      21.561  26.940  17.047  1.00  0.00     0.242 C
HETATM    6  O4  UNL     1      22.375  27.895  16.793  1.00  0.00    -0.271 OA
ATOM      7  H5  UNL     1      21.373  25.182  18.182  1.00  0.00     0.163 HD
BRANCH   5   8
HETATM    8  C24 UNL     1      20.238  26.967  16.351  1.00  0.00     0.196 C
HETATM    9  N4  UNL     1      19.552  25.729  16.458  1.00  0.00    -0.341 N
HETATM   10  C20 UNL     1      20.250  24.676  15.677  1.00  0.00     0.200 C
HETATM   11  S2  UNL     1      21.248  25.614  14.475  1.00  0.00    -0.137 SA
HETATM   12  C21 UNL     1      20.465  27.239  14.879  1.00  0.00     0.032 C
HETATM   13  C22 UNL     1      21.346  28.384  14.604  1.00  0.00     0.029 C
HETATM   14  C23 UNL     1      19.231  27.314  14.054  1.00  0.00     0.029 C
BRANCH   9  15
HETATM   15  C19 UNL     1      18.397  25.432  17.169  1.00  0.00     0.125 C
BRANCH  15  16
HETATM   16  C16 UNL     1      17.036  25.077  16.759  1.00  0.00     0.041 C
HETATM   17  C17 UNL     1      16.119  25.667  17.812  1.00  0.00     0.026 C
HETATM   18  C18 UNL     1      16.594  25.605  15.426  1.00  0.00     0.026 C
BRANCH  16  19
HETATM   19  C10 UNL     1      16.843  23.533  16.640  1.00  0.00     0.121 C
BRANCH  19  20
HETATM   20  C9  UNL     1      16.835  23.172  15.225  1.00  0.00     0.005 C
BRANCH  20  21
HETATM   21  C8  UNL     1      16.101  22.045  14.648  1.00  0.00     0.072 C
BRANCH  21  22
HETATM   22  C7  UNL     1      14.745  22.119  14.178  1.00  0.00     0.243 C
HETATM   23  N1  UNL     1      13.586  22.019  15.016  1.00  0.00    -0.349 N
HETATM   24  C6  UNL     1      13.597  21.866  16.445  1.00  0.00     0.126 C
HETATM   25  C28 UNL     1      12.250  22.062  14.439  1.00  0.00     0.126 C
HETATM   26  C5  UNL     1      12.894  20.612  16.887  1.00  0.00     0.025 C
HETATM   27  C4  UNL     1      11.943  20.028  15.929  1.00  0.00    -0.005 C
HETATM   28  C29 UNL     1      11.452  20.876  14.819  1.00  0.00     0.025 C
HETATM   29  O2  UNL     1      14.506  22.274  12.961  1.00  0.00    -0.268 OA
BRANCH  27  30
HETATM   30  C3  UNL     1      10.713  19.561  16.703  1.00  0.00     0.082 C
BRANCH  30  31
HETATM   31  C2  UNL     1      11.023  18.602  17.770  1.00  0.00     0.123 C
HETATM   32  C1  UNL     1      11.584  17.245  17.417  1.00  0.00     0.091 C
HETATM   33  O1  UNL     1      10.875  18.776  18.968  1.00  0.00    -0.298 OA
ENDBRANCH  30  31
ENDBRANCH  27  30
ENDBRANCH  21  22
ENDBRANCH  20  21
ENDBRANCH  19  20
BRANCH  19  34
HETATM   34  N2  UNL     1      17.686  22.798  17.500  1.00  0.00    -0.374 N
ATOM     35  H2  UNL     1      18.689  22.884  17.335  1.00  0.00     0.161 HD
BRANCH  34  36
HETATM   36  C11 UNL     1      17.288  21.943  18.581  1.00  0.00     0.105 C
HETATM   37  S1  UNL     1      16.402  20.571  18.336  1.00  0.00    -0.063 SA
BRANCH  36  38
HETATM   38  C12 UNL     1      17.712  22.219  19.968  1.00  0.00     0.247 C
BRANCH  38  39
HETATM   39  N3  UNL     1      17.522  23.621  20.258  1.00  0.00    -0.069 N
ATOM     40  H33 UNL     1      17.315  23.786  21.243  1.00  0.00     0.275 HD
ATOM     41  H32 UNL     1      18.393  24.147  20.202  1.00  0.00     0.275 HD
ATOM     42  H31 UNL     1      16.801  24.000  19.644  1.00  0.00     0.275 HD
ENDBRANCH  38  39
BRANCH  38  43
HETATM   43  C13 UNL     1      19.162  21.817  20.133  1.00  0.00     0.015 C
HETATM   44  C14 UNL     1      20.141  22.842  19.674  1.00  0.00     0.012 C
HETATM   45  C15 UNL     1      19.442  21.455  21.561  1.00  0.00     0.012 C
ENDBRANCH  38  43
ENDBRANCH  36  38
ENDBRANCH  34  36
ENDBRANCH  19  34
ENDBRANCH  16  19
ENDBRANCH  15  16
BRANCH  15  46
HETATM   46  O3  UNL     1      18.568  25.489  18.459  1.00  0.00    -0.349 OA
ATOM     47  H3  UNL     1      17.841  25.878  18.930  1.00  0.00     0.219 HD
ENDBRANCH  15  46
ENDBRANCH   9  15
ENDBRANCH   5   8
ENDBRANCH   1   4
TORSDOF 16
ENDMDL