MODEL 3
REMARK VINA RESULT: -8.973918969      3.341      5.611
REMARK  14 active torsions:
REMARK  status: ('A' for Active; 'I' for Inactive)
REMARK    1  A    between atoms: C9_10  and  C10_11
REMARK       I    between atoms: C10_11  and  N1_13
REMARK    2  A    between atoms: N1_13  and  C11_14
REMARK    3  A    between atoms: C11_14  and  C12_15
REMARK    4  A    between atoms: C12_15  and  O3_16
REMARK    5  A    between atoms: O3_16  and  C13_17
REMARK    6  A    between atoms: C13_17  and  C14_18
REMARK    7  A    between atoms: C14_18  and  O4_19
REMARK    8  A    between atoms: O4_19  and  C15_20
REMARK    9  A    between atoms: C15_20  and  C16_21
REMARK   10  A    between atoms: C16_21  and  O5_22
REMARK   11  A    between atoms: O5_22  and  N2_23
REMARK   12  A    between atoms: N2_23  and  O6_24
REMARK   13  A    between atoms: N3_26  and  C17_28
REMARK   14  A    between atoms: C23_37  and  C24_38
ROOT
HETATM    1  C1  UNL     1      17.426  25.226  15.118  1.00  0.00     0.023 C
HETATM    2  C2  UNL     1      17.907  24.708  16.235  1.00  0.00    -0.016 C
HETATM    3  C3  UNL     1      17.329  24.970  17.559  1.00  0.00     0.173 C
HETATM    4  O1  UNL     1      16.376  25.722  17.792  1.00  0.00    -0.291 OA
HETATM    5  C4  UNL     1      18.085  24.183  18.592  1.00  0.00     0.084 C
HETATM    6  C5  UNL     1      17.592  24.198  19.933  1.00  0.00    -0.007 C
HETATM    7  C6  UNL     1      17.789  22.990  20.470  1.00  0.00    -0.024 C
HETATM    8  C7  UNL     1      18.450  22.073  19.461  1.00  0.00     0.024 C
HETATM    9  C8  UNL     1      19.862  21.933  19.804  1.00  0.00     0.015 C
HETATM   10  C9  UNL     1      18.053  22.732  18.199  1.00  0.00     0.084 C
HETATM   11  C19 UNL     1      18.798  22.486  16.967  1.00  0.00     0.032 C
HETATM   12  C20 UNL     1      19.093  23.812  16.235  1.00  0.00     0.027 C
HETATM   13  C21 UNL     1      20.134  24.493  17.157  1.00  0.00     0.045 C
HETATM   14  C22 UNL     1      19.457  24.747  18.424  1.00  0.00    -0.058 C
HETATM   15  C23 UNL     1      19.995  25.460  19.377  1.00  0.00     0.005 C
ENDROOT
BRANCH  10  16
HETATM   16  C10 UNL     1      16.601  22.248  17.991  1.00  0.00     0.302 C
HETATM   17  O2  UNL     1      15.843  22.229  18.980  1.00  0.00    -0.256 OA
HETATM   18  N1  UNL     1      16.234  21.866  16.731  1.00  0.00    -0.385 NA
BRANCH  18  19
HETATM   19  C11 UNL     1      15.864  21.484  15.461  1.00  0.00     0.185 C
BRANCH  19  20
HETATM   20  C12 UNL     1      15.187  22.581  14.645  1.00  0.00     0.227 C
BRANCH  20  21
HETATM   21  O3  UNL     1      14.374  23.419  15.335  1.00  0.00    -0.383 OA
BRANCH  21  22
HETATM   22  C13 UNL     1      13.164  23.713  14.774  1.00  0.00     0.194 C
BRANCH  22  23
HETATM   23  C14 UNL     1      12.739  22.723  13.726  1.00  0.00     0.193 C
BRANCH  23  24
HETATM   24  O4  UNL     1      11.695  21.962  14.151  1.00  0.00    -0.387 OA
BRANCH  24  25
HETATM   25  C15 UNL     1      12.004  20.675  14.460  1.00  0.00     0.196 C
BRANCH  25  26
HETATM   26  C16 UNL     1      11.565  20.317  15.861  1.00  0.00     0.232 C
BRANCH  26  27
HETATM   27  O5  UNL     1      12.688  19.778  16.576  1.00  0.00    -0.236 OA
BRANCH  27  28
HETATM   28  N2  UNL     1      13.184  20.450  17.645  1.00  0.00    -0.054 N
HETATM   29  N3  UNL     1      13.590  19.829  18.658  1.00  0.00    -0.243 N
ATOM     30  H3  UNL     1      13.957  20.355  19.450  1.00  0.00     0.193 HD
BRANCH  28  31
HETATM   31  O6  UNL     1      13.260  21.836  17.666  1.00  0.00    -0.248 OA
ATOM     32  H6  UNL     1      13.367  22.319  18.477  1.00  0.00     0.249 HD
ENDBRANCH  28  31
BRANCH  29  33
HETATM   33  C17 UNL     1      13.549  18.412  18.727  1.00  0.00     0.089 C
HETATM   34  C18 UNL     1      12.671  17.705  19.686  1.00  0.00     0.090 C
HETATM   35  N4  UNL     1      14.315  17.751  17.914  1.00  0.00    -0.388 N
ATOM     36  H42 UNL     1      14.920  18.238  17.253  1.00  0.00     0.157 HD
ATOM     37  H41 UNL     1      14.286  16.732  17.964  1.00  0.00     0.157 HD
ENDBRANCH  29  33
ENDBRANCH  27  28
ENDBRANCH  26  27
ENDBRANCH  25  26
ENDBRANCH  24  25
ENDBRANCH  23  24
ENDBRANCH  22  23
ENDBRANCH  21  22
ENDBRANCH  20  21
ENDBRANCH  19  20
ENDBRANCH  18  19
ENDBRANCH  10  16
BRANCH  15  38
HETATM   38  C24 UNL     1      21.332  25.995  19.173  1.00  0.00     0.013 C
HETATM   39  C25 UNL     1      22.416  25.733  19.853  1.00  0.00     0.014 C
HETATM   40  C26 UNL     1      23.721  26.402  19.478  1.00  0.00     0.088 C
HETATM   41  C31 UNL     1      22.510  24.841  20.988  1.00  0.00     0.254 C
HETATM   42  C27 UNL     1      24.760  25.302  19.373  1.00  0.00     0.010 C
HETATM   43  C28 UNL     1      25.487  25.243  18.293  1.00  0.00    -0.018 C
HETATM   44  C30 UNL     1      24.865  24.401  20.507  1.00  0.00     0.254 C
HETATM   45  C29 UNL     1      26.542  24.315  17.919  1.00  0.00     0.036 C
HETATM   46  O7  UNL     1      25.979  23.837  20.750  1.00  0.00    -0.268 OA
HETATM   47  N5  UNL     1      23.735  24.160  21.333  1.00  0.00    -0.290 N
ATOM     48  H5  UNL     1      23.786  23.532  22.135  1.00  0.00     0.172 HD
HETATM   49  O8  UNL     1      21.477  24.660  21.696  1.00  0.00    -0.268 OA
ENDBRANCH  15  38
TORSDOF 14
ENDMDL