MODEL 1
REMARK VINA RESULT: -7.774311104      0.000      0.000
REMARK  15 active torsions:
REMARK  status: ('A' for Active; 'I' for Inactive)
REMARK    1  A    between atoms: C2_2  and  O1_3
REMARK    2  A    between atoms: O1_3  and  C3_4
REMARK    3  A    between atoms: C3_4  and  C4_5
REMARK    4  A    between atoms: C6_7  and  C7_8
REMARK       I    between atoms: C7_8  and  N1_10
REMARK    5  A    between atoms: N2_17  and  C13_18
REMARK    6  A    between atoms: C13_18  and  O3_19
REMARK    7  A    between atoms: C14_21  and  C15_22
REMARK    8  A    between atoms: C14_21  and  N3_27
REMARK    9  A    between atoms: C15_22  and  C16_23
REMARK   10  A    between atoms: C16_23  and  C17_24
REMARK       I    between atoms: N3_27  and  C18_29
REMARK   11  A    between atoms: C18_29  and  C19_31
REMARK   12  A    between atoms: C19_31  and  N4_32
REMARK   13  A    between atoms: C19_31  and  C25_41
REMARK       I    between atoms: N4_32  and  C20_34
REMARK   14  A    between atoms: C20_34  and  O8_36
REMARK   15  A    between atoms: O8_36  and  C21_37
ROOT
HETATM    1  C13 UNL     1      19.830  23.928  18.115  1.00  0.00     0.162 C
HETATM    2  C14 UNL     1      20.490  23.936  19.397  1.00  0.00     0.063 C
ENDROOT
BRANCH   2   3
HETATM    3  C15 UNL     1      19.795  24.413  20.606  1.00  0.00     0.072 C
BRANCH   3   4
HETATM    4  C16 UNL     1      18.785  23.387  21.109  1.00  0.00     0.119 C
BRANCH   4   5
HETATM    5  C17 UNL     1      19.427  22.039  21.231  1.00  0.00     0.172 C
HETATM    6  O4  UNL     1      20.019  21.753  22.274  1.00  0.00    -0.648 OA
HETATM    7  O5  UNL     1      19.354  21.127  20.184  1.00  0.00    -0.648 OA
ENDBRANCH   4   5
ENDBRANCH   3   4
ENDBRANCH   2   3
BRANCH   2   8
HETATM    8  N3  UNL     1      21.859  24.419  19.249  1.00  0.00    -0.325 N
HETATM    9  C18 UNL     1      22.854  24.348  20.247  1.00  0.00     0.245 C
HETATM   10  O6  UNL     1      22.486  23.808  21.340  1.00  0.00    -0.271 OA
ATOM     11  H3  UNL     1      22.117  24.841  18.357  1.00  0.00     0.169 HD
BRANCH   9  12
HETATM   12  C19 UNL     1      24.238  24.828  20.127  1.00  0.00     0.182 C
BRANCH  12  13
HETATM   13  N4  UNL     1      24.509  25.315  18.762  1.00  0.00    -0.323 N
HETATM   14  C20 UNL     1      25.028  26.616  18.547  1.00  0.00     0.362 C
HETATM   15  O7  UNL     1      25.268  27.351  19.530  1.00  0.00    -0.238 OA
ATOM     16  H4  UNL     1      24.320  24.710  17.964  1.00  0.00     0.165 HD
BRANCH  14  17
HETATM   17  O8  UNL     1      25.263  27.066  17.275  1.00  0.00    -0.294 OA
BRANCH  17  18
HETATM   18  C21 UNL     1      26.572  27.108  16.755  1.00  0.00     0.061 C
HETATM   19  C22 UNL     1      26.447  27.196  15.226  1.00  0.00     0.046 C
HETATM   20  C23 UNL     1      27.325  25.823  17.040  1.00  0.00     0.046 C
HETATM   21  C24 UNL     1      27.364  28.307  17.198  1.00  0.00     0.046 C
ENDBRANCH  17  18
ENDBRANCH  14  17
ENDBRANCH  12  13
BRANCH  12  22
HETATM   22  C25 UNL     1      25.230  23.679  20.312  1.00  0.00     0.009 C
HETATM   23  C26 UNL     1      26.509  24.158  20.972  1.00  0.00     0.012 C
HETATM   24  C27 UNL     1      25.576  22.993  19.024  1.00  0.00     0.012 C
ENDBRANCH  12  22
ENDBRANCH   9  12
ENDBRANCH   2   8
BRANCH   1  25
HETATM   25  N2  UNL     1      18.457  23.950  17.739  1.00  0.00    -0.346 N
HETATM   26  C6  UNL     1      17.711  25.172  17.536  1.00  0.00     0.179 C
HETATM   27  C5  UNL     1      16.279  24.795  17.580  1.00  0.00     0.043 C
HETATM   28  C4  UNL     1      16.243  23.306  17.364  1.00  0.00     0.030 C
HETATM   29  C28 UNL     1      17.632  22.815  17.543  1.00  0.00     0.132 C
BRANCH  26  30
HETATM   30  C7  UNL     1      18.121  25.779  16.248  1.00  0.00     0.243 C
HETATM   31  O2  UNL     1      17.440  25.447  15.197  1.00  0.00    -0.271 OA
HETATM   32  N1  UNL     1      19.180  26.679  16.095  1.00  0.00    -0.340 N
HETATM   33  C8  UNL     1      20.033  27.086  17.208  1.00  0.00     0.200 C
HETATM   34  C12 UNL     1      19.541  27.302  14.864  1.00  0.00     0.146 C
HETATM   35  S1  UNL     1      21.557  27.683  16.356  1.00  0.00    -0.138 SA
HETATM   36  C9  UNL     1      21.019  27.243  14.654  1.00  0.00     0.018 C
HETATM   37  C10 UNL     1      21.403  28.341  13.679  1.00  0.00     0.028 C
HETATM   38  C11 UNL     1      21.544  25.900  14.303  1.00  0.00     0.028 C
ENDBRANCH  26  30
BRANCH  28  39
HETATM   39  C3  UNL     1      15.235  22.736  18.346  1.00  0.00     0.173 C
BRANCH  39  40
HETATM   40  O1  UNL     1      15.709  21.602  18.960  1.00  0.00    -0.391 OA
BRANCH  40  41
HETATM   41  C2  UNL     1      14.687  20.652  18.884  1.00  0.00     0.163 C
HETATM   42  C1  UNL     1      15.093  19.625  17.850  1.00  0.00     0.033 C
ENDBRANCH  40  41
ENDBRANCH  39  40
ENDBRANCH  28  39
ENDBRANCH   1  25
BRANCH   1  43
HETATM   43  O3  UNL     1      20.642  23.892  17.096  1.00  0.00    -0.345 OA
ATOM     44  H3  UNL     1      21.444  23.413  17.272  1.00  0.00     0.219 HD
ENDBRANCH   1  43
TORSDOF 15
ENDMDL