MODEL 1
REMARK VINA RESULT: -8.338017586      0.000      0.000
REMARK  17 active torsions:
REMARK  status: ('A' for Active; 'I' for Inactive)
REMARK    1  A    between atoms: C2_2  and  C3_3
REMARK    2  A    between atoms: C4_6  and  N2_7
REMARK    3  A    between atoms: N2_7  and  C5_8
REMARK    4  A    between atoms: C5_8  and  C6_9
REMARK    5  A    between atoms: C5_8  and  C13_20
REMARK    6  A    between atoms: C6_9  and  C7_10
REMARK    7  A    between atoms: C7_10  and  C8_11
REMARK    8  A    between atoms: C8_11  and  N3_12
REMARK       I    between atoms: N3_12  and  C9_14
REMARK    9  A    between atoms: C9_14  and  O2_16
REMARK   10  A    between atoms: O2_16  and  C10_17
REMARK   11  A    between atoms: N5_27  and  C16_28
REMARK   12  A    between atoms: C16_28  and  C17_29
REMARK       I    between atoms: C17_29  and  N6_31
REMARK   13  A    between atoms: C21_35  and  C22_36
REMARK   14  A    between atoms: C22_36  and  C23_37
REMARK   15  A    between atoms: C28_42  and  C29_43
REMARK   16  A    between atoms: C29_43  and  O6_44
REMARK   17  A    between atoms: C29_43  and  N7_46
ROOT
HETATM    1  C3  UNL     1      12.690  18.640  18.302  1.00  0.00     0.020 A
HETATM    2  N1  UNL     1      13.940  19.104  18.483  1.00  0.00    -0.333 N
ATOM      3  H1  UNL     1      14.474  18.728  19.266  1.00  0.00     0.168 HD
HETATM    4  C4  UNL     1      14.541  20.031  17.704  1.00  0.00     0.203 A
HETATM    5  C14 UNL     1      13.764  20.515  16.642  1.00  0.00     0.119 A
HETATM    6  N4  UNL     1      14.112  21.409  15.699  1.00  0.00    -0.346 N
ATOM      7  H4  UNL     1      15.003  21.899  15.617  1.00  0.00     0.167 HD
HETATM    8  C15 UNL     1      13.070  21.525  14.904  1.00  0.00     0.184 A
HETATM    9  N5  UNL     1      12.040  20.693  15.344  1.00  0.00    -0.332 N
HETATM   10  C20 UNL     1      12.472  20.066  16.421  1.00  0.00     0.076 A
HETATM   11  C21 UNL     1      11.907  19.102  17.265  1.00  0.00    -0.002 A
ENDROOT
BRANCH   4  12
HETATM   12  N2  UNL     1      15.647  20.456  17.861  1.00  0.00    -0.412 NA
BRANCH  12  13
HETATM   13  C5  UNL     1      16.899  20.933  18.033  1.00  0.00     0.266 C
BRANCH  13  14
HETATM   14  C6  UNL     1      16.983  21.981  19.158  1.00  0.00     0.052 C
BRANCH  14  15
HETATM   15  C7  UNL     1      18.326  22.486  19.468  1.00  0.00     0.023 C
BRANCH  15  16
HETATM   16  C8  UNL     1      18.421  23.968  19.748  1.00  0.00     0.125 C
BRANCH  16  17
HETATM   17  N3  UNL     1      18.217  24.746  18.548  1.00  0.00    -0.337 N
HETATM   18  C9  UNL     1      19.346  25.212  17.843  1.00  0.00     0.360 C
HETATM   19  O1  UNL     1      20.533  24.976  18.220  1.00  0.00    -0.239 OA
ATOM     20  H3  UNL     1      17.275  24.955  18.217  1.00  0.00     0.164 HD
BRANCH  18  21
HETATM   21  O2  UNL     1      19.209  25.958  16.689  1.00  0.00    -0.299 OA
BRANCH  21  22
HETATM   22  C10 UNL     1      19.360  25.374  15.400  1.00  0.00     0.125 C
HETATM   23  C11 UNL     1      20.713  25.630  14.805  1.00  0.00     0.040 C
HETATM   24  C12 UNL     1      18.289  25.986  14.512  1.00  0.00     0.040 C
ENDBRANCH  21  22
ENDBRANCH  18  21
ENDBRANCH  16  17
ENDBRANCH  15  16
ENDBRANCH  14  15
ENDBRANCH  13  14
BRANCH  13  25
HETATM   25  C13 UNL     1      17.472  21.555  16.796  1.00  0.00     0.210 C
HETATM   26  O3  UNL     1      18.374  20.898  16.215  1.00  0.00    -0.646 OA
HETATM   27  O4  UNL     1      17.093  22.749  16.280  1.00  0.00    -0.646 OA
ENDBRANCH  13  25
ENDBRANCH  12  13
ENDBRANCH   4  12
BRANCH   1  28
HETATM   28  C2  UNL     1      12.262  17.648  19.325  1.00  0.00     0.053 C
HETATM   29  C1  UNL     1      12.278  18.224  20.720  1.00  0.00     0.011 C
ENDBRANCH   1  28
BRANCH  11  30
HETATM   30  C22 UNL     1      10.608  18.550  17.010  1.00  0.00     0.081 C
BRANCH  30  31
HETATM   31  C23 UNL     1      10.447  17.205  16.445  1.00  0.00    -0.052 A
HETATM   32  C24 UNL     1      10.089  16.084  17.120  1.00  0.00     0.014 A
HETATM   33  C25 UNL     1       9.911  14.888  16.496  1.00  0.00    -0.061 A
HETATM   34  C26 UNL     1       9.514  13.642  17.228  1.00  0.00     0.048 C
HETATM   35  C27 UNL     1      10.090  14.740  15.104  1.00  0.00     0.022 A
HETATM   36  C28 UNL     1      10.453  15.853  14.389  1.00  0.00     0.015 A
HETATM   37  C32 UNL     1      10.621  17.049  15.074  1.00  0.00     0.023 A
BRANCH  36  38
HETATM   38  C29 UNL     1      10.672  15.826  12.960  1.00  0.00     0.147 C
BRANCH  38  39
HETATM   39  O6  UNL     1      11.891  16.197  12.606  1.00  0.00    -0.346 OA
ATOM     40  H6  UNL     1      12.509  15.478  12.565  1.00  0.00     0.219 HD
ENDBRANCH  38  39
BRANCH  38  41
HETATM   41  N7  UNL     1       9.837  15.483  11.909  1.00  0.00    -0.370 N
HETATM   42  C30 UNL     1       8.637  16.361  11.732  1.00  0.00     0.151 C
HETATM   43  C31 UNL     1       9.921  14.428  10.958  1.00  0.00     0.151 C
ENDBRANCH  38  41
ENDBRANCH  36  38
ENDBRANCH  30  31
ENDBRANCH  11  30
BRANCH   9  44
HETATM   44  C16 UNL     1      10.775  20.701  14.695  1.00  0.00     0.232 C
BRANCH  44  45
HETATM   45  C17 UNL     1      10.988  20.069  13.328  1.00  0.00     0.237 C
HETATM   46  O5  UNL     1      11.887  19.218  13.178  1.00  0.00    -0.272 OA
HETATM   47  N6  UNL     1      10.185  20.432  12.231  1.00  0.00    -0.359 N
HETATM   48  C18 UNL     1       9.153  21.416  12.398  1.00  0.00     0.152 C
HETATM   49  C19 UNL     1      10.385  19.825  10.946  1.00  0.00     0.152 C
ENDBRANCH  44  45
ENDBRANCH   9  44
TORSDOF 17
ENDMDL