MODEL 4
REMARK VINA RESULT: -8.058506073      2.190      9.467
REMARK  18 active torsions:
REMARK  status: ('A' for Active; 'I' for Inactive)
REMARK    1  A    between atoms: C3_3  and  C4_4
REMARK    2  A    between atoms: C4_4  and  C5_5
REMARK    3  A    between atoms: C5_5  and  C7_7
REMARK    4  A    between atoms: C7_7  and  C8_8
REMARK    5  A    between atoms: C8_8  and  N1_9
REMARK       I    between atoms: N1_9  and  C10_11
REMARK    6  A    between atoms: C10_11  and  C11_13
REMARK    7  A    between atoms: C11_13  and  C12_14
REMARK    8  A    between atoms: C11_13  and  N2_18
REMARK    9  A    between atoms: C12_14  and  C13_15
REMARK   10  A    between atoms: C13_15  and  C14_16
REMARK   11  A    between atoms: N2_18  and  C16_19
REMARK   12  A    between atoms: N2_18  and  C31_49
REMARK   13  A    between atoms: C16_19  and  O2_20
REMARK   14  A    between atoms: C16_19  and  C17_22
REMARK   15  A    between atoms: N5_30  and  C21_31
REMARK   16  A    between atoms: C22_32  and  O3_33
REMARK   17  A    between atoms: C23_35  and  O4_36
REMARK   18  A    between atoms: C29_43  and  N6_44
ROOT
HETATM    1  C1  UNL     1      10.574  17.570  17.022  1.00  0.00     0.112 C
HETATM    2  C2  UNL     1      10.719  18.845  16.311  1.00  0.00    -0.111 C
HETATM    3  C3  UNL     1      10.854  19.885  15.717  1.00  0.00    -0.107 C
ENDROOT
BRANCH   3   4
HETATM    4  C4  UNL     1      11.043  21.154  14.972  1.00  0.00     0.098 C
BRANCH   4   5
HETATM    5  C5  UNL     1      12.427  21.153  14.359  1.00  0.00    -0.006 C
HETATM    6  C6  UNL     1      12.455  20.375  13.063  1.00  0.00     0.011 C
BRANCH   5   7
HETATM    7  C7  UNL     1      12.846  22.580  13.994  1.00  0.00     0.025 C
BRANCH   7   8
HETATM    8  C8  UNL     1      13.551  23.175  15.181  1.00  0.00     0.126 C
BRANCH   8   9
HETATM    9  N1  UNL     1      14.666  22.320  15.613  1.00  0.00    -0.351 N
HETATM   10  C9  UNL     1      15.538  21.878  14.558  1.00  0.00     0.152 C
HETATM   11  C10 UNL     1      14.853  22.008  16.970  1.00  0.00     0.266 C
HETATM   12  O1  UNL     1      14.023  22.578  17.763  1.00  0.00    -0.266 OA
BRANCH  11  13
HETATM   13  C11 UNL     1      15.920  21.095  17.521  1.00  0.00     0.086 C
BRANCH  13  14
HETATM   14  C12 UNL     1      15.317  19.956  18.149  1.00  0.00     0.063 C
BRANCH  14  15
HETATM   15  C13 UNL     1      14.316  19.123  17.420  1.00  0.00     0.006 C
BRANCH  15  16
HETATM   16  C14 UNL     1      14.156  17.834  18.245  1.00  0.00    -0.004 C
HETATM   17  C15 UNL     1      13.412  18.122  19.528  1.00  0.00     0.005 C
ENDBRANCH  15  16
ENDBRANCH  14  15
ENDBRANCH  13  14
BRANCH  13  18
HETATM   18  N2  UNL     1      17.069  21.818  18.031  1.00  0.00    -0.296 N
BRANCH  18  19
HETATM   19  C16 UNL     1      17.984  22.285  17.046  1.00  0.00     0.192 C
BRANCH  19  20
HETATM   20  O2  UNL     1      18.473  21.311  16.328  1.00  0.00    -0.343 OA
ATOM     21  H2  UNL     1      17.793  20.812  15.891  1.00  0.00     0.219 HD
ENDBRANCH  19  20
BRANCH  19  22
HETATM   22  C17 UNL     1      18.496  23.562  16.648  1.00  0.00     0.161 A
HETATM   23  N3  UNL     1      19.475  24.061  17.496  1.00  0.00    -0.323 N
HETATM   24  C18 UNL     1      20.035  25.254  17.400  1.00  0.00     0.141 A
ATOM     25  H3  UNL     1      19.789  23.457  18.255  1.00  0.00     0.169 HD
HETATM   26  C19 UNL     1      19.615  26.071  16.375  1.00  0.00     0.122 A
HETATM   27  N5  UNL     1      20.984  25.920  18.105  1.00  0.00    -0.319 N
HETATM   28  N4  UNL     1      20.323  27.197  16.498  1.00  0.00    -0.346 N
HETATM   29  C29 UNL     1      18.646  25.601  15.518  1.00  0.00     0.133 A
HETATM   30  C20 UNL     1      21.160  27.124  17.544  1.00  0.00     0.185 A
ATOM     31  H4  UNL     1      20.238  28.005  15.881  1.00  0.00     0.167 HD
HETATM   32  N7  UNL     1      18.126  24.371  15.682  1.00  0.00    -0.323 N
ATOM     33  H7  UNL     1      17.412  24.053  15.028  1.00  0.00     0.169 HD
BRANCH  29  34
HETATM   34  N6  UNL     1      18.239  26.342  14.557  1.00  0.00    -0.379 N
HETATM   35  C30 UNL     1      19.079  27.110  13.689  1.00  0.00     0.147 C
ATOM     36  H6  UNL     1      17.233  26.390  14.396  1.00  0.00     0.160 HD
ENDBRANCH  29  34
BRANCH  27  37
HETATM   37  C21 UNL     1      21.635  25.340  19.246  1.00  0.00     0.129 C
HETATM   38  C22 UNL     1      20.878  25.401  20.525  1.00  0.00     0.170 C
HETATM   39  C23 UNL     1      21.544  26.448  21.390  1.00  0.00     0.154 C
HETATM   40  C24 UNL     1      22.897  26.703  20.817  1.00  0.00     0.032 A
HETATM   41  C25 UNL     1      22.935  26.089  19.471  1.00  0.00     0.027 A
HETATM   42  C26 UNL     1      23.872  25.636  20.551  1.00  0.00    -0.035 A
HETATM   43  C27 UNL     1      25.313  26.035  20.294  1.00  0.00     0.016 C
HETATM   44  C28 UNL     1      23.692  24.303  21.197  1.00  0.00     0.016 C
BRANCH  38  45
HETATM   45  O3  UNL     1      19.533  25.639  20.425  1.00  0.00    -0.391 OA
ATOM     46  H3  UNL     1      19.253  26.539  20.540  1.00  0.00     0.210 HD
ENDBRANCH  38  45
BRANCH  39  47
HETATM   47  O4  UNL     1      21.528  26.150  22.736  1.00  0.00    -0.393 OA
ATOM     48  H4  UNL     1      22.138  26.665  23.251  1.00  0.00     0.210 HD
ENDBRANCH  39  47
ENDBRANCH  27  37
ENDBRANCH  19  22
ENDBRANCH  18  19
BRANCH  18  49
HETATM   49  C31 UNL     1      17.432  21.931  19.393  1.00  0.00    -0.011 C
HETATM   50  C32 UNL     1      18.802  21.488  19.787  1.00  0.00     0.063 C
HETATM   51  C33 UNL     1      17.097  23.243  20.096  1.00  0.00     0.063 C
ENDBRANCH  18  49
ENDBRANCH  13  18
ENDBRANCH  11  13
ENDBRANCH   8   9
ENDBRANCH   7   8
ENDBRANCH   5   7
ENDBRANCH   4   5
ENDBRANCH   3   4
TORSDOF 18
ENDMDL