MODEL 2
REMARK VINA RESULT: -8.636326153      3.549     12.858
REMARK  16 active torsions:
REMARK  status: ('A' for Active; 'I' for Inactive)
REMARK    1  A    between atoms: C2_2  and  C3_3
REMARK    2  A    between atoms: C3_3  and  C4_4
REMARK    3  A    between atoms: C4_4  and  O1_5
REMARK    4  A    between atoms: O1_5  and  C5_6
REMARK       I    between atoms: C5_6  and  N1_8
REMARK       I    between atoms: N2_11  and  C8_12
REMARK    5  A    between atoms: C8_12  and  C9_14
REMARK    6  A    between atoms: C9_14  and  C10_15
REMARK    7  A    between atoms: C9_14  and  N3_20
REMARK    8  A    between atoms: C10_15  and  C11_16
REMARK    9  A    between atoms: C11_16  and  C12_17
REMARK   10  A    between atoms: N3_20  and  C13_21
REMARK   11  A    between atoms: C13_21  and  O6_22
REMARK   12  A    between atoms: C13_21  and  C14_24
REMARK   13  A    between atoms: C16_26  and  N4_27
REMARK       I    between atoms: N4_27  and  C17_29
REMARK   14  A    between atoms: C17_29  and  C18_31
REMARK   15  A    between atoms: C18_31  and  C19_32
REMARK   16  A    between atoms: C18_31  and  N5_35
ROOT
HETATM    1  C13 UNL     1      18.729  24.753  17.177  1.00  0.00     0.237 C
ENDROOT
BRANCH   1   2
HETATM    2  N3  UNL     1      19.938  25.293  17.130  1.00  0.00    -0.408 NA
BRANCH   2   3
HETATM    3  C9  UNL     1      21.212  25.862  17.081  1.00  0.00     0.258 C
BRANCH   3   4
HETATM    4  C8  UNL     1      21.245  26.837  18.334  1.00  0.00     0.255 C
HETATM    5  N2  UNL     1      21.770  26.322  19.514  1.00  0.00    -0.346 N
HETATM    6  C7  UNL     1      22.297  25.006  19.711  1.00  0.00     0.146 C
HETATM    7  C29 UNL     1      21.744  27.225  20.686  1.00  0.00     0.146 C
HETATM    8  C6  UNL     1      23.656  25.121  20.419  1.00  0.00     0.148 C
HETATM    9  N1  UNL     1      23.456  25.805  21.651  1.00  0.00    -0.325 N
HETATM   10  C5  UNL     1      24.488  25.872  22.633  1.00  0.00     0.362 C
HETATM   11  C30 UNL     1      22.185  26.466  21.922  1.00  0.00     0.148 C
HETATM   12  O2  UNL     1      25.591  25.321  22.402  1.00  0.00    -0.238 OA
HETATM   13  O3  UNL     1      20.812  27.948  18.164  1.00  0.00    -0.270 OA
BRANCH  10  14
HETATM   14  O1  UNL     1      24.292  26.531  23.819  1.00  0.00    -0.304 OA
BRANCH  14  15
HETATM   15  C4  UNL     1      24.213  25.987  25.096  1.00  0.00     0.180 C
BRANCH  15  16
HETATM   16  C3  UNL     1      23.636  26.992  26.052  1.00  0.00     0.026 C
BRANCH  16  17
HETATM   17  C2  UNL     1      22.207  26.721  26.401  1.00  0.00    -0.002 C
HETATM   18  C1  UNL     1      21.303  27.303  25.358  1.00  0.00     0.005 C
ENDBRANCH  16  17
ENDBRANCH  15  16
ENDBRANCH  14  15
ENDBRANCH  10  14
ENDBRANCH   3   4
BRANCH   3  19
HETATM   19  C10 UNL     1      21.616  26.733  15.965  1.00  0.00     0.060 C
BRANCH  19  20
HETATM   20  C11 UNL     1      20.911  26.652  14.660  1.00  0.00     0.117 C
BRANCH  20  21
HETATM   21  C12 UNL     1      19.785  27.624  14.575  1.00  0.00     0.172 C
HETATM   22  O4  UNL     1      19.968  28.815  14.917  1.00  0.00    -0.648 OA
HETATM   23  O5  UNL     1      18.530  27.260  14.129  1.00  0.00    -0.648 OA
ENDBRANCH  20  21
ENDBRANCH  19  20
ENDBRANCH   3  19
ENDBRANCH   2   3
ENDBRANCH   1   2
BRANCH   1  24
HETATM   24  O6  UNL     1      17.808  25.254  16.317  1.00  0.00    -0.334 OA
ATOM     25  H6  UNL     1      17.206  24.630  15.929  1.00  0.00     0.220 HD
ENDBRANCH   1  24
BRANCH   1  26
HETATM   26  C14 UNL     1      18.131  23.683  17.995  1.00  0.00     0.101 A
HETATM   27  C15 UNL     1      17.360  22.643  17.442  1.00  0.00     0.066 A
HETATM   28  C16 UNL     1      16.861  21.934  18.517  1.00  0.00     0.052 A
HETATM   29  C27 UNL     1      17.320  22.523  19.664  1.00  0.00     0.120 A
HETATM   30  N6  UNL     1      18.093  23.591  19.316  1.00  0.00    -0.355 N
HETATM   31  C28 UNL     1      18.654  24.447  20.358  1.00  0.00     0.156 C
BRANCH  28  32
HETATM   32  N4  UNL     1      15.951  20.847  18.391  1.00  0.00    -0.324 N
HETATM   33  C17 UNL     1      14.552  21.029  18.527  1.00  0.00     0.256 C
HETATM   34  O7  UNL     1      14.204  22.246  18.774  1.00  0.00    -0.271 OA
ATOM     35  H4  UNL     1      16.315  19.915  18.199  1.00  0.00     0.169 HD
BRANCH  33  36
HETATM   36  C18 UNL     1      13.472  20.067  18.435  1.00  0.00     0.317 C
BRANCH  36  37
HETATM   37  C19 UNL     1      13.832  18.781  19.207  1.00  0.00     0.020 C
HETATM   38  C20 UNL     1      14.217  17.702  18.189  1.00  0.00     0.012 C
HETATM   39  C21 UNL     1      12.719  18.305  20.089  1.00  0.00     0.012 C
ENDBRANCH  36  37
BRANCH  36  40
HETATM   40  N5  UNL     1      13.074  19.707  17.078  1.00  0.00     0.102 N
HETATM   41  C22 UNL     1      13.505  20.815  16.206  1.00  0.00     0.273 C
HETATM   42  C23 UNL     1      13.207  20.457  14.746  1.00  0.00     0.030 C
HETATM   43  C24 UNL     1      11.758  20.145  14.573  1.00  0.00     0.003 C
HETATM   44  C25 UNL     1      11.040  20.442  15.857  1.00  0.00     0.030 C
HETATM   45  C26 UNL     1      11.632  19.730  17.050  1.00  0.00     0.273 C
ENDBRANCH  36  40
ENDBRANCH  33  36
ENDBRANCH  28  32
ENDBRANCH   1  26
TORSDOF 16
ENDMDL