MODEL 5
REMARK VINA RESULT: -9.104394418      1.438      3.133
REMARK  13 active torsions:
REMARK  status: ('A' for Active; 'I' for Inactive)
REMARK    1  A    between atoms: C2_2  and  C3_3
REMARK    2  A    between atoms: C3_3  and  C4_4
REMARK    3  A    between atoms: C4_4  and  N1_5
REMARK    4  A    between atoms: C4_4  and  C19_24
REMARK    5  A    between atoms: N1_5  and  C5_7
REMARK    6  A    between atoms: C5_7  and  C6_8
REMARK    7  A    between atoms: C5_7  and  C13_15
REMARK    8  A    between atoms: C6_8  and  C7_9
REMARK    9  A    between atoms: C13_15  and  C14_17
REMARK       I    between atoms: C14_17  and  N2_19
REMARK       I    between atoms: N3_28  and  C22_29
REMARK   10  A    between atoms: C22_29  and  C23_31
REMARK   11  A    between atoms: C23_31  and  N4_32
REMARK   12  A    between atoms: C23_31  and  C28_43
REMARK       I    between atoms: N4_32  and  C24_34
REMARK   13  A    between atoms: C24_34  and  C25_36
REMARK       I    between atoms: C25_36  and  N5_38
REMARK       I    between atoms: N5_38  and  C26_40
ROOT
HETATM    1  C4  UNL     1      17.865  21.878  18.168  1.00  0.00     0.101 C
ENDROOT
BRANCH   1   2
HETATM    2  C3  UNL     1      18.040  21.679  19.670  1.00  0.00     0.026 C
BRANCH   2   3
HETATM    3  C2  UNL     1      19.453  21.686  20.133  1.00  0.00    -0.002 C
HETATM    4  C1  UNL     1      19.545  21.964  21.590  1.00  0.00     0.005 C
ENDBRANCH   2   3
ENDBRANCH   1   2
BRANCH   1   5
HETATM    5  N1  UNL     1      17.137  20.808  17.669  1.00  0.00    -0.404 N
ATOM      6  H1  UNL     1      17.575  19.888  17.721  1.00  0.00     0.154 HD
BRANCH   5   7
HETATM    7  C5  UNL     1      15.864  20.870  17.103  1.00  0.00     0.158 C
BRANCH   7   8
HETATM    8  C6  UNL     1      15.211  22.056  16.600  1.00  0.00     0.042 C
BRANCH   8   9
HETATM    9  C7  UNL     1      14.869  22.364  15.209  1.00  0.00    -0.042 C
HETATM   10  C8  UNL     1      15.965  22.705  14.269  1.00  0.00     0.015 C
HETATM   11  C9  UNL     1      14.381  20.948  14.579  1.00  0.00     0.009 C
HETATM   12  C10 UNL     1      13.907  21.454  13.241  1.00  0.00     0.001 C
HETATM   13  C11 UNL     1      13.285  22.792  13.490  1.00  0.00     0.001 C
HETATM   14  C12 UNL     1      13.597  23.093  14.949  1.00  0.00     0.009 C
ENDBRANCH   8   9
ENDBRANCH   7   8
BRANCH   7  15
HETATM   15  C13 UNL     1      14.963  20.125  18.087  1.00  0.00     0.238 C
HETATM   16  O1  UNL     1      14.826  20.772  19.184  1.00  0.00    -0.285 OA
BRANCH  15  17
HETATM   17  C14 UNL     1      14.319  18.894  17.923  1.00  0.00     0.291 C
HETATM   18  O2  UNL     1      14.833  17.743  18.052  1.00  0.00    -0.264 OA
HETATM   19  N2  UNL     1      12.894  18.877  17.562  1.00  0.00    -0.345 N
HETATM   20  C15 UNL     1      12.125  17.688  17.362  1.00  0.00     0.126 C
HETATM   21  C18 UNL     1      12.087  20.042  17.371  1.00  0.00     0.126 C
HETATM   22  C16 UNL     1      10.896  18.118  16.629  1.00  0.00     0.021 C
HETATM   23  C17 UNL     1      10.688  19.554  17.093  1.00  0.00     0.021 C
ENDBRANCH  15  17
ENDBRANCH   7  15
ENDBRANCH   5   7
ENDBRANCH   1   5
BRANCH   1  24
HETATM   24  C19 UNL     1      17.425  23.232  17.805  1.00  0.00     0.123 C
HETATM   25  C20 UNL     1      16.581  23.935  18.855  1.00  0.00     0.040 C
HETATM   26  C21 UNL     1      15.962  25.136  18.215  1.00  0.00     0.100 C
HETATM   27  S1  UNL     1      17.094  25.478  16.793  1.00  0.00    -0.050 SA
HETATM   28  N3  UNL     1      18.316  24.222  17.336  1.00  0.00    -0.283 N
HETATM   29  C22 UNL     1      19.670  24.527  17.255  1.00  0.00     0.253 C
HETATM   30  O3  UNL     1      20.553  23.800  17.773  1.00  0.00    -0.270 OA
BRANCH  29  31
HETATM   31  C23 UNL     1      20.203  25.750  16.547  1.00  0.00     0.181 C
BRANCH  31  32
HETATM   32  N4  UNL     1      21.635  25.876  16.771  1.00  0.00    -0.339 N
HETATM   33  C24 UNL     1      22.220  26.708  17.724  1.00  0.00     0.310 C
HETATM   34  O4  UNL     1      21.503  27.417  18.461  1.00  0.00    -0.262 OA
ATOM     35  H4  UNL     1      22.256  25.315  16.189  1.00  0.00     0.163 HD
BRANCH  33  36
HETATM   36  C25 UNL     1      23.660  26.762  17.877  1.00  0.00     0.316 C
HETATM   37  O5  UNL     1      24.211  27.314  18.874  1.00  0.00    -0.262 OA
HETATM   38  N5  UNL     1      24.507  26.185  16.889  1.00  0.00    -0.290 N
HETATM   39  C26 UNL     1      25.908  26.203  16.954  1.00  0.00     0.220 C
ATOM     40  H5  UNL     1      24.070  25.731  16.087  1.00  0.00     0.172 HD
HETATM   41  C27 UNL     1      26.691  26.817  18.035  1.00  0.00     0.117 C
HETATM   42  O6  UNL     1      26.562  25.648  16.008  1.00  0.00    -0.274 OA
ENDBRANCH  33  36
ENDBRANCH  31  32
BRANCH  31  43
HETATM   43  C28 UNL     1      20.073  25.499  15.041  1.00  0.00     0.009 C
HETATM   44  C29 UNL     1      19.566  26.758  14.367  1.00  0.00     0.012 C
HETATM   45  C30 UNL     1      21.411  25.181  14.430  1.00  0.00     0.012 C
ENDBRANCH  31  43
ENDBRANCH  29  31
ENDBRANCH   1  24
TORSDOF 13
ENDMDL