MODEL 3
REMARK VINA RESULT: -9.176313969      1.527      1.913
REMARK  15 active torsions:
REMARK  status: ('A' for Active; 'I' for Inactive)
REMARK    1  A    between atoms: C2_2  and  C3_3
REMARK    2  A    between atoms: C3_3  and  C4_4
REMARK    3  A    between atoms: C6_8  and  C7_9
REMARK    4  A    between atoms: N2_12  and  C10_13
REMARK    5  A    between atoms: C10_13  and  O1_14
REMARK    6  A    between atoms: C10_13  and  N3_16
REMARK    7  A    between atoms: C12_18  and  C13_19
REMARK    8  A    between atoms: C13_19  and  C14_20
REMARK    9  A    between atoms: C14_20  and  C15_21
REMARK   10  A    between atoms: C14_20  and  C16_24
REMARK   11  A    between atoms: N5_36  and  C24_38
REMARK   12  A    between atoms: C24_38  and  C25_39
REMARK   13  A    between atoms: C24_38  and  C28_44
REMARK   14  A    between atoms: C25_39  and  C26_40
REMARK   15  A    between atoms: C26_40  and  C27_41
ROOT
HETATM    1  C7  UNL     1      12.562  20.594  16.548  1.00  0.00     0.115 C
HETATM    2  C8  UNL     1      11.439  21.554  16.890  1.00  0.00     0.039 C
HETATM    3  C9  UNL     1      10.954  21.217  18.287  1.00  0.00     0.137 C
HETATM    4  N2  UNL     1      11.545  19.877  18.550  1.00  0.00    -0.282 N
HETATM    5  C22 UNL     1      12.751  19.845  17.832  1.00  0.00     0.235 C
HETATM    6  O4  UNL     1      13.819  19.305  18.166  1.00  0.00    -0.272 OA
ENDROOT
BRANCH   1   7
HETATM    7  C6  UNL     1      13.790  21.299  16.109  1.00  0.00    -0.014 A
HETATM    8  C5  UNL     1      14.595  20.877  15.080  1.00  0.00     0.099 A
HETATM    9  N1  UNL     1      15.696  21.561  14.742  1.00  0.00    -0.355 N
HETATM   10  C4  UNL     1      16.079  22.702  15.390  1.00  0.00     0.086 A
ATOM     11  H1  UNL     1      16.270  21.218  13.972  1.00  0.00     0.166 HD
HETATM   12  N4  UNL     1      15.287  23.090  16.381  1.00  0.00    -0.355 N
HETATM   13  C23 UNL     1      14.181  22.466  16.773  1.00  0.00     0.099 A
ATOM     14  H4  UNL     1      15.548  23.939  16.884  1.00  0.00     0.166 HD
BRANCH  10  15
HETATM   15  C3  UNL     1      17.298  23.426  14.987  1.00  0.00     0.128 C
BRANCH  15  16
HETATM   16  C2  UNL     1      18.217  23.661  16.127  1.00  0.00    -0.014 C
HETATM   17  C1  UNL     1      19.038  22.430  16.499  1.00  0.00     0.063 C
HETATM   18  N5  UNL     1      18.424  24.667  16.773  1.00  0.00    -0.382 N
ATOM     19  H5  UNL     1      19.144  24.462  17.467  1.00  0.00     0.160 HD
BRANCH  18  20
HETATM   20  C24 UNL     1      18.049  25.977  16.915  1.00  0.00     0.183 C
BRANCH  20  21
HETATM   21  C25 UNL     1      17.947  26.473  18.343  1.00  0.00     0.046 C
BRANCH  21  22
HETATM   22  C26 UNL     1      16.858  25.865  19.146  1.00  0.00     0.116 C
BRANCH  22  23
HETATM   23  C27 UNL     1      17.112  24.551  19.724  1.00  0.00     0.172 C
HETATM   24  O5  UNL     1      16.532  23.552  19.171  1.00  0.00    -0.648 OA
HETATM   25  O6  UNL     1      17.906  24.259  20.794  1.00  0.00    -0.648 OA
ENDBRANCH  22  23
ENDBRANCH  21  22
ENDBRANCH  20  21
BRANCH  20  26
HETATM   26  C28 UNL     1      18.782  27.015  16.161  1.00  0.00     0.196 C
HETATM   27  O7  UNL     1      18.286  28.190  16.045  1.00  0.00    -0.646 OA
HETATM   28  O8  UNL     1      20.004  26.846  15.537  1.00  0.00    -0.646 OA
ENDBRANCH  20  26
ENDBRANCH  18  20
ENDBRANCH  15  16
ENDBRANCH  10  15
ENDBRANCH   1   7
BRANCH   4  29
HETATM   29  C10 UNL     1      10.940  18.926  19.374  1.00  0.00     0.234 C
BRANCH  29  30
HETATM   30  O1  UNL     1      11.637  18.493  20.407  1.00  0.00    -0.332 OA
ATOM     31  H1  UNL     1      12.566  18.341  20.270  1.00  0.00     0.221 HD
ENDBRANCH  29  30
BRANCH  29  32
HETATM   32  N3  UNL     1       9.680  18.336  19.289  1.00  0.00    -0.285 N
HETATM   33  C11 UNL     1       8.958  17.981  18.062  1.00  0.00     0.147 C
HETATM   34  C12 UNL     1       8.372  16.649  18.329  1.00  0.00     0.025 C
HETATM   35  C19 UNL     1       7.431  16.884  19.531  1.00  0.00     0.026 C
HETATM   36  C20 UNL     1       7.040  15.603  20.183  1.00  0.00     0.029 C
HETATM   37  C21 UNL     1       6.310  17.801  19.199  1.00  0.00     0.029 C
HETATM   38  S1  UNL     1       8.616  17.828  20.571  1.00  0.00    -0.040 SA
BRANCH  34  39
HETATM   39  C13 UNL     1       7.715  15.910  17.260  1.00  0.00     0.023 C
BRANCH  39  40
HETATM   40  C14 UNL     1       7.057  16.611  16.144  1.00  0.00     0.090 C
BRANCH  40  41
HETATM   41  C15 UNL     1       5.682  16.238  15.816  1.00  0.00     0.177 C
HETATM   42  O2  UNL     1       4.760  17.105  15.920  1.00  0.00    -0.648 OA
HETATM   43  O3  UNL     1       5.341  14.979  15.394  1.00  0.00    -0.648 OA
ENDBRANCH  40  41
BRANCH  40  44
HETATM   44  C16 UNL     1       7.868  16.444  14.868  1.00  0.00    -0.008 C
HETATM   45  C17 UNL     1       8.506  17.728  14.421  1.00  0.00     0.010 C
HETATM   46  C18 UNL     1       8.880  15.350  14.932  1.00  0.00     0.010 C
ENDBRANCH  40  44
ENDBRANCH  39  40
ENDBRANCH  34  39
ENDBRANCH  29  32
ENDBRANCH   4  29
TORSDOF 15
ENDMDL