MODEL 2
REMARK VINA RESULT: -8.895394652      2.652      7.967
REMARK  17 active torsions:
REMARK  status: ('A' for Active; 'I' for Inactive)
REMARK    1  A    between atoms: C2_2  and  C3_3
REMARK    2  A    between atoms: C3_3  and  C4_4
REMARK    3  A    between atoms: C4_4  and  O1_5
REMARK    4  A    between atoms: O1_5  and  C5_6
REMARK       I    between atoms: C5_6  and  N1_8
REMARK    5  A    between atoms: N2_11  and  C8_12
REMARK    6  A    between atoms: C8_12  and  O3_13
REMARK    7  A    between atoms: C8_12  and  C9_15
REMARK    8  A    between atoms: C9_15  and  C10_16
REMARK    9  A    between atoms: C9_15  and  N3_18
REMARK       I    between atoms: N3_18  and  C11_20
REMARK   10  A    between atoms: C11_20  and  C12_22
REMARK   11  A    between atoms: C14_26  and  C15_27
REMARK   12  A    between atoms: C15_27  and  C16_28
REMARK   13  A    between atoms: C16_28  and  C17_29
REMARK   14  A    between atoms: C17_29  and  C18_30
REMARK   15  A    between atoms: C18_30  and  C19_31
REMARK   16  A    between atoms: C20_36  and  N7_37
REMARK       I    between atoms: N7_37  and  C21_39
REMARK   17  A    between atoms: C21_39  and  C22_41
ROOT
HETATM    1  C12 UNL     1       7.673  17.196  19.463  1.00  0.00     0.117 A
HETATM    2  C13 UNL     1       6.775  16.974  20.498  1.00  0.00     0.124 A
HETATM    3  N4  UNL     1       7.024  17.901  21.436  1.00  0.00    -0.353 N
ATOM      4  H4  UNL     1       6.519  17.989  22.317  1.00  0.00     0.166 HD
HETATM    5  C14 UNL     1       8.030  18.694  21.050  1.00  0.00     0.081 A
HETATM    6  N8  UNL     1       8.412  18.255  19.854  1.00  0.00    -0.340 N
ATOM      7  H8  UNL     1       9.166  18.666  19.303  1.00  0.00     0.167 HD
ENDROOT
BRANCH   1   8
HETATM    8  C11 UNL     1       7.791  16.432  18.221  1.00  0.00     0.270 C
HETATM    9  N3  UNL     1       7.100  16.792  17.058  1.00  0.00    -0.338 N
ATOM     10  H3  UNL     1       6.498  17.613  17.098  1.00  0.00     0.164 HD
HETATM   11  O5  UNL     1       8.537  15.429  18.218  1.00  0.00    -0.266 OA
BRANCH   9  12
HETATM   12  C9  UNL     1       7.185  16.066  15.788  1.00  0.00     0.221 C
BRANCH  12  13
HETATM   13  C8  UNL     1       8.541  16.109  15.249  1.00  0.00     0.144 C
BRANCH  13  14
HETATM   14  N2  UNL     1       9.294  17.164  14.745  1.00  0.00    -0.360 N
HETATM   15  C7  UNL     1       9.001  18.544  14.560  1.00  0.00     0.144 C
HETATM   16  C6  UNL     1       9.816  19.307  15.598  1.00  0.00     0.148 C
HETATM   17  N1  UNL     1      11.204  18.853  15.558  1.00  0.00    -0.325 N
HETATM   18  C5  UNL     1      12.234  19.822  15.617  1.00  0.00     0.362 C
HETATM   19  C27 UNL     1      11.543  17.440  15.464  1.00  0.00     0.148 C
HETATM   20  O2  UNL     1      11.945  21.032  15.704  1.00  0.00    -0.238 OA
HETATM   21  C26 UNL     1      10.714  16.831  14.357  1.00  0.00     0.144 C
BRANCH  18  22
HETATM   22  O1  UNL     1      13.542  19.434  15.577  1.00  0.00    -0.304 OA
BRANCH  22  23
HETATM   23  C4  UNL     1      14.627  20.292  15.901  1.00  0.00     0.180 C
BRANCH  23  24
HETATM   24  C3  UNL     1      15.417  20.578  14.649  1.00  0.00     0.026 C
BRANCH  24  25
HETATM   25  C2  UNL     1      14.983  21.931  14.092  1.00  0.00    -0.002 C
HETATM   26  C1  UNL     1      14.078  21.726  12.895  1.00  0.00     0.005 C
ENDBRANCH  24  25
ENDBRANCH  23  24
ENDBRANCH  22  23
ENDBRANCH  18  22
ENDBRANCH  13  14
BRANCH  13  27
HETATM   27  O3  UNL     1       9.195  14.960  15.223  1.00  0.00    -0.348 OA
ATOM     28  H3  UNL     1       9.023  14.461  14.433  1.00  0.00     0.219 HD
ENDBRANCH  13  27
ENDBRANCH  12  13
BRANCH  12  29
HETATM   29  C10 UNL     1       6.534  14.773  15.948  1.00  0.00     0.264 C
HETATM   30  O4  UNL     1       6.544  13.967  15.022  1.00  0.00    -0.304 OA
ENDBRANCH  12  29
ENDBRANCH   9  12
ENDBRANCH   1   8
BRANCH   5  31
HETATM   31  C15 UNL     1       8.636  19.859  21.794  1.00  0.00     0.076 C
BRANCH  31  32
HETATM   32  C16 UNL     1      10.040  20.003  21.185  1.00  0.00     0.008 C
BRANCH  32  33
HETATM   33  C17 UNL     1      10.180  21.319  20.474  1.00  0.00     0.007 C
BRANCH  33  34
HETATM   34  C18 UNL     1      10.717  21.077  19.092  1.00  0.00     0.066 C
BRANCH  34  35
HETATM   35  C19 UNL     1      12.193  21.300  19.115  1.00  0.00     0.069 A
HETATM   36  N5  UNL     1      13.171  20.501  19.502  1.00  0.00    -0.296 N
HETATM   37  N6  UNL     1      14.381  20.869  19.443  1.00  0.00    -0.279 N
ATOM     38  H5  UNL     1      12.947  19.571  19.855  1.00  0.00     0.187 HD
HETATM   39  C20 UNL     1      14.656  22.098  18.975  1.00  0.00     0.167 A
ATOM     40  H6  UNL     1      15.131  20.246  19.744  1.00  0.00     0.189 HD
HETATM   41  S1  UNL     1      13.095  22.691  18.627  1.00  0.00    -0.038 SA
BRANCH  39  42
HETATM   42  N7  UNL     1      15.845  22.639  18.851  1.00  0.00    -0.305 N
HETATM   43  C21 UNL     1      15.917  23.877  18.162  1.00  0.00     0.231 C
HETATM   44  O6  UNL     1      16.039  23.758  16.890  1.00  0.00    -0.272 OA
ATOM     45  H7  UNL     1      16.678  22.190  19.232  1.00  0.00     0.171 HD
BRANCH  43  46
HETATM   46  C22 UNL     1      15.865  25.203  18.786  1.00  0.00     0.030 C
HETATM   47  C23 UNL     1      15.900  25.102  20.314  1.00  0.00     0.025 C
HETATM   48  C24 UNL     1      17.093  25.994  18.346  1.00  0.00     0.025 C
HETATM   49  C25 UNL     1      14.670  26.032  18.436  1.00  0.00     0.025 C
ENDBRANCH  43  46
ENDBRANCH  39  42
ENDBRANCH  34  35
ENDBRANCH  33  34
ENDBRANCH  32  33
ENDBRANCH  31  32
ENDBRANCH   5  31
TORSDOF 17
ENDMDL