MODEL 4
REMARK VINA RESULT: -8.775042950      2.493      8.330
REMARK  18 active torsions:
REMARK  status: ('A' for Active; 'I' for Inactive)
REMARK    1  A    between atoms: C2_2  and  C3_3
REMARK    2  A    between atoms: C3_3  and  C4_4
REMARK    3  A    between atoms: C4_4  and  O1_5
REMARK    4  A    between atoms: O1_5  and  C5_6
REMARK    5  A    between atoms: N2_9  and  C6_10
REMARK    6  A    between atoms: C6_10  and  O2_11
REMARK    7  A    between atoms: C6_10  and  C7_13
REMARK    8  A    between atoms: C7_13  and  N3_14
REMARK    9  A    between atoms: C7_13  and  C18_31
REMARK   10  A    between atoms: N3_14  and  C8_16
REMARK   11  A    between atoms: C8_16  and  O3_17
REMARK   12  A    between atoms: C8_16  and  C9_19
REMARK   13  A    between atoms: C9_19  and  O4_20
REMARK   14  A    between atoms: C9_19  and  C10_22
REMARK   15  A    between atoms: C10_22  and  C11_24
REMARK   16  A    between atoms: C22_35  and  C23_36
REMARK       I    between atoms: C23_36  and  N4_38
REMARK   17  A    between atoms: N5_41  and  C26_42
REMARK   18  A    between atoms: C26_42  and  C27_43
ROOT
HETATM    1  C6  UNL     1      12.172  18.810  18.064  1.00  0.00     0.181 C
ENDROOT
BRANCH   1   2
HETATM    2  N2  UNL     1      12.261  20.157  18.412  1.00  0.00    -0.253 N
HETATM    3  N1  UNL     1      13.256  21.050  18.747  1.00  0.00    -0.278 N
HETATM    4  C5  UNL     1      12.981  22.275  18.522  1.00  0.00     0.135 C
ATOM      5  H1  UNL     1      14.147  20.753  19.146  1.00  0.00     0.189 HD
HETATM    6  C32 UNL     1      11.612  22.302  17.946  1.00  0.00     0.122 C
HETATM    7  C22 UNL     1      11.026  21.012  18.489  1.00  0.00     0.210 C
BRANCH   4   8
HETATM    8  O1  UNL     1      13.812  23.395  18.768  1.00  0.00    -0.338 OA
BRANCH   8   9
HETATM    9  C4  UNL     1      14.927  23.218  19.612  1.00  0.00     0.177 C
BRANCH   9  10
HETATM   10  C3  UNL     1      15.606  24.529  19.944  1.00  0.00     0.026 C
BRANCH  10  11
HETATM   11  C2  UNL     1      15.229  25.524  18.858  1.00  0.00    -0.002 C
HETATM   12  C1  UNL     1      16.535  26.157  18.368  1.00  0.00     0.005 C
ENDBRANCH  10  11
ENDBRANCH   9  10
ENDBRANCH   8   9
ENDBRANCH   4   8
BRANCH   7  13
HETATM   13  C23 UNL     1      10.653  21.244  19.904  1.00  0.00     0.245 C
HETATM   14  O6  UNL     1      11.154  22.130  20.635  1.00  0.00    -0.271 OA
HETATM   15  N4  UNL     1       9.660  20.402  20.458  1.00  0.00    -0.347 N
HETATM   16  C24 UNL     1       9.198  20.542  21.840  1.00  0.00     0.156 C
HETATM   17  C31 UNL     1       9.019  19.320  19.710  1.00  0.00     0.156 C
HETATM   18  C25 UNL     1       8.397  19.305  22.183  1.00  0.00     0.292 C
HETATM   19  N5  UNL     1       7.286  19.078  21.315  1.00  0.00     0.091 N
HETATM   20  C30 UNL     1       7.542  19.436  19.927  1.00  0.00     0.292 C
BRANCH  19  21
HETATM   21  C26 UNL     1       6.812  17.726  21.313  1.00  0.00     0.276 C
BRANCH  21  22
HETATM   22  C27 UNL     1       7.828  16.778  21.922  1.00  0.00     0.006 C
HETATM   23  C28 UNL     1       8.044  15.661  20.916  1.00  0.00     0.011 C
HETATM   24  C29 UNL     1       7.260  16.123  23.169  1.00  0.00     0.011 C
ENDBRANCH  21  22
ENDBRANCH  19  21
ENDBRANCH   7  13
ENDBRANCH   1   2
BRANCH   1  25
HETATM   25  O2  UNL     1      12.277  18.016  19.104  1.00  0.00    -0.344 OA
ATOM     26  H2  UNL     1      11.449  17.899  19.555  1.00  0.00     0.219 HD
ENDBRANCH   1  25
BRANCH   1  27
HETATM   27  C7  UNL     1      11.985  18.173  16.759  1.00  0.00     0.067 C
BRANCH  27  28
HETATM   28  N3  UNL     1      13.074  18.251  15.888  1.00  0.00    -0.361 N
ATOM     29  H3  UNL     1      13.513  17.354  15.676  1.00  0.00     0.162 HD
BRANCH  28  30
HETATM   30  C8  UNL     1      13.650  19.322  15.273  1.00  0.00     0.254 C
BRANCH  30  31
HETATM   31  O3  UNL     1      12.571  20.260  15.017  1.00  0.00    -0.374 OA
ATOM     32  H3  UNL     1      12.941  21.124  15.149  1.00  0.00     0.212 HD
ENDBRANCH  30  31
BRANCH  30  33
HETATM   33  C9  UNL     1      14.701  20.164  15.916  1.00  0.00     0.236 C
BRANCH  33  34
HETATM   34  O4  UNL     1      15.420  19.608  16.935  1.00  0.00    -0.384 OA
ATOM     35  H4  UNL     1      15.580  20.142  17.704  1.00  0.00     0.210 HD
ENDBRANCH  33  34
BRANCH  33  36
HETATM   36  C10 UNL     1      15.701  20.661  14.911  1.00  0.00     0.168 C
HETATM   37  O5  UNL     1      16.497  19.848  14.483  1.00  0.00    -0.294 OA
BRANCH  36  38
HETATM   38  C11 UNL     1      15.747  22.063  14.439  1.00  0.00     0.020 C
HETATM   39  C12 UNL     1      14.604  22.313  13.447  1.00  0.00     0.023 C
HETATM   40  C13 UNL     1      15.559  23.039  15.550  1.00  0.00     0.017 C
HETATM   41  C14 UNL     1      16.614  22.987  16.608  1.00  0.00     0.001 C
HETATM   42  C15 UNL     1      17.964  22.745  16.002  1.00  0.00     0.000 C
HETATM   43  C16 UNL     1      17.969  23.244  14.568  1.00  0.00     0.001 C
HETATM   44  C17 UNL     1      17.042  22.381  13.712  1.00  0.00     0.017 C
ENDBRANCH  36  38
ENDBRANCH  33  36
ENDBRANCH  30  33
ENDBRANCH  28  30
ENDBRANCH  27  28
BRANCH  27  45
HETATM   45  C18 UNL     1      10.627  17.901  16.228  1.00  0.00    -0.005 C
HETATM   46  C19 UNL     1      10.843  17.068  14.927  1.00  0.00     0.021 C
HETATM   47  C20 UNL     1       9.688  19.013  16.017  1.00  0.00     0.021 C
HETATM   48  C21 UNL     1       9.853  16.870  17.106  1.00  0.00     0.021 C
ENDBRANCH  27  45
ENDBRANCH   1  27
TORSDOF 18
ENDMDL