MODEL 2
REMARK VINA RESULT: -8.260042032      0.794      1.728
REMARK  18 active torsions:
REMARK  status: ('A' for Active; 'I' for Inactive)
REMARK    1  A    between atoms: C2_2  and  C3_3
REMARK    2  A    between atoms: C3_3  and  N1_4
REMARK    3  A    between atoms: N1_4  and  C4_5
REMARK    4  A    between atoms: N1_4  and  C14_17
REMARK    5  A    between atoms: C4_5  and  O1_6
REMARK    6  A    between atoms: C4_5  and  C5_8
REMARK    7  A    between atoms: C5_8  and  C6_9
REMARK    8  A    between atoms: C6_9  and  C7_10
REMARK    9  A    between atoms: C7_10  and  C8_11
REMARK   10  A    between atoms: C8_11  and  C9_12
REMARK   11  A    between atoms: C9_12  and  C10_13
REMARK   12  A    between atoms: C10_13  and  C11_14
REMARK   13  A    between atoms: C11_14  and  C12_15
REMARK   14  A    between atoms: C17_22  and  C18_23
REMARK   15  A    between atoms: C20_26  and  O5_28
REMARK   16  A    between atoms: N2_31  and  C23_32
REMARK   17  A    between atoms: C23_32  and  C24_33
REMARK   18  A    between atoms: C28_37  and  N3_38
ROOT
HETATM    1  C14 UNL     1      10.424  19.552  15.908  1.00  0.00     0.207 C
HETATM    2  C15 UNL     1       9.727  19.461  17.191  1.00  0.00     0.090 C
HETATM    3  C16 UNL     1       9.893  20.351  18.303  1.00  0.00     0.282 C
HETATM    4  O2  UNL     1      10.645  21.336  18.284  1.00  0.00    -0.260 OA
HETATM    5  O3  UNL     1       9.148  20.046  19.427  1.00  0.00    -0.302 OA
HETATM    6  C17 UNL     1       9.216  18.961  20.289  1.00  0.00     0.240 C
HETATM    7  C20 UNL     1       7.956  18.103  20.409  1.00  0.00     0.119 C
HETATM    8  C21 UNL     1       8.426  16.881  21.228  1.00  0.00     0.055 C
HETATM    9  C22 UNL     1       7.435  17.661  19.106  1.00  0.00     0.106 C
HETATM   10  N2  UNL     1       6.495  16.601  18.987  1.00  0.00    -0.336 N
HETATM   11  C28 UNL     1       6.368  16.114  17.651  1.00  0.00     0.359 C
HETATM   12  C29 UNL     1       7.695  16.000  16.952  1.00  0.00     0.199 C
HETATM   13  O6  UNL     1       8.495  15.167  17.240  1.00  0.00    -0.291 OA
HETATM   14  C30 UNL     1       8.043  16.969  15.841  1.00  0.00     0.154 C
HETATM   15  C31 UNL     1       7.465  16.240  14.591  1.00  0.00     0.040 C
HETATM   16  N4  UNL     1       9.459  17.123  15.651  1.00  0.00    -0.348 N
ATOM     17  H4  UNL     1       9.984  16.269  15.841  1.00  0.00     0.163 HD
HETATM   18  C32 UNL     1      10.266  18.183  15.265  1.00  0.00     0.245 C
HETATM   19  O7  UNL     1      11.021  18.082  14.227  1.00  0.00    -0.271 OA
ENDROOT
BRANCH   1  20
HETATM   20  N1  UNL     1      11.849  19.763  16.058  1.00  0.00    -0.342 N
BRANCH  20  21
HETATM   21  C3  UNL     1      12.601  18.805  16.931  1.00  0.00     0.152 C
BRANCH  21  22
HETATM   22  C2  UNL     1      13.430  19.515  17.938  1.00  0.00    -0.017 C
HETATM   23  C1  UNL     1      14.741  19.425  18.034  1.00  0.00     0.008 C
ENDBRANCH  21  22
ENDBRANCH  20  21
BRANCH  20  24
HETATM   24  C4  UNL     1      12.619  20.789  15.553  1.00  0.00     0.138 C
BRANCH  24  25
HETATM   25  O1  UNL     1      12.315  21.972  16.070  1.00  0.00    -0.346 OA
ATOM     26  H1  UNL     1      11.490  22.318  15.750  1.00  0.00     0.219 HD
ENDBRANCH  24  25
BRANCH  24  27
HETATM   27  C5  UNL     1      13.665  20.857  14.609  1.00  0.00     0.052 C
BRANCH  27  28
HETATM   28  C6  UNL     1      14.610  21.699  14.316  1.00  0.00    -0.022 C
BRANCH  28  29
HETATM   29  C7  UNL     1      15.792  21.779  15.267  1.00  0.00     0.027 C
BRANCH  29  30
HETATM   30  C8  UNL     1      15.853  23.106  15.970  1.00  0.00     0.004 C
BRANCH  30  31
HETATM   31  C9  UNL     1      16.000  22.789  17.463  1.00  0.00     0.000 C
BRANCH  31  32
HETATM   32  C10 UNL     1      14.870  23.334  18.280  1.00  0.00     0.000 C
BRANCH  32  33
HETATM   33  C11 UNL     1      15.295  23.627  19.678  1.00  0.00    -0.000 C
BRANCH  33  34
HETATM   34  C12 UNL     1      15.730  25.049  19.868  1.00  0.00    -0.005 C
HETATM   35  C13 UNL     1      16.969  25.054  20.758  1.00  0.00     0.005 C
ENDBRANCH  33  34
ENDBRANCH  32  33
ENDBRANCH  31  32
ENDBRANCH  30  31
ENDBRANCH  29  30
ENDBRANCH  28  29
ENDBRANCH  27  28
ENDBRANCH  24  27
ENDBRANCH  20  24
ENDBRANCH   1  20
BRANCH   6  36
HETATM   36  C18 UNL     1       9.382  19.561  21.671  1.00  0.00     0.155 C
HETATM   37  C19 UNL     1       9.524  21.006  21.917  1.00  0.00     0.094 C
HETATM   38  O4  UNL     1       9.401  18.819  22.641  1.00  0.00    -0.295 OA
ENDBRANCH   6  36
BRANCH   7  39
HETATM   39  O5  UNL     1       7.069  18.796  21.222  1.00  0.00    -0.382 OA
ATOM     40  H5  UNL     1       6.317  18.232  21.356  1.00  0.00     0.211 HD
ENDBRANCH   7  39
BRANCH  11  41
HETATM   41  N3  UNL     1       5.501  16.906  16.798  1.00  0.00    -0.051 N
ATOM     42  H33 UNL     1       4.527  16.632  16.931  1.00  0.00     0.277 HD
ATOM     43  H32 UNL     1       5.460  17.869  17.130  1.00  0.00     0.277 HD
ATOM     44  H31 UNL     1       5.743  16.884  15.808  1.00  0.00     0.277 HD
ENDBRANCH  11  41
BRANCH  10  45
HETATM   45  C23 UNL     1       5.510  16.456  19.922  1.00  0.00     0.074 C
BRANCH  45  46
HETATM   46  C24 UNL     1       4.235  17.240  19.849  1.00  0.00    -0.019 C
HETATM   47  C25 UNL     1       3.081  16.481  19.244  1.00  0.00     0.020 C
HETATM   48  C26 UNL     1       4.316  18.640  19.340  1.00  0.00     0.020 C
HETATM   49  C27 UNL     1       3.767  17.419  21.354  1.00  0.00     0.020 C
ENDBRANCH  45  46
ENDBRANCH  10  45
TORSDOF 18
ENDMDL