MODEL 4
REMARK VINA RESULT: -9.075830818      0.739      1.005
REMARK  13 active torsions:
REMARK  status: ('A' for Active; 'I' for Inactive)
REMARK    1  A    between atoms: C2_2  and  C3_3
REMARK    2  A    between atoms: C3_3  and  C4_4
REMARK    3  A    between atoms: C4_4  and  C5_5
REMARK    4  A    between atoms: C5_5  and  C6_6
REMARK       I    between atoms: C6_6  and  N1_8
REMARK       I    between atoms: N1_8  and  C7_10
REMARK    5  A    between atoms: C7_10  and  C8_12
REMARK    6  A    between atoms: C10_16  and  C11_17
REMARK       I    between atoms: C11_17  and  N3_19
REMARK    7  A    between atoms: N3_19  and  C12_21
REMARK    8  A    between atoms: C16_25  and  C17_26
REMARK    9  A    between atoms: C17_26  and  C18_27
REMARK   10  A    between atoms: C18_27  and  C19_28
REMARK   11  A    between atoms: C19_28  and  N4_29
REMARK   12  A    between atoms: C28_42  and  C29_43
REMARK   13  A    between atoms: C29_43  and  C30_44
REMARK       I    between atoms: C30_44  and  N7_46
ROOT
HETATM    1  C8  UNL     1      12.295  20.807  17.690  1.00  0.00     0.119 C
HETATM    2  C9  UNL     1      10.802  20.706  17.566  1.00  0.00     0.097 C
HETATM    3  N2  UNL     1      10.389  19.636  18.449  1.00  0.00    -0.403 N
ATOM      4  H2  UNL     1      10.918  19.375  19.281  1.00  0.00     0.154 HD
HETATM    5  C10 UNL     1       9.178  18.970  18.064  1.00  0.00     0.174 C
HETATM    6  C16 UNL     1       9.864  17.559  17.659  1.00  0.00     0.027 C
HETATM    7  C23 UNL     1      10.820  18.010  16.659  1.00  0.00    -0.014 A
HETATM    8  C24 UNL     1      10.326  19.058  15.698  1.00  0.00     0.025 C
HETATM    9  C25 UNL     1      10.861  18.567  14.405  1.00  0.00    -0.024 C
HETATM   10  C26 UNL     1      11.788  17.638  14.612  1.00  0.00    -0.024 C
HETATM   11  C27 UNL     1      11.982  17.383  16.071  1.00  0.00     0.024 A
HETATM   12  C28 UNL     1      12.188  18.464  17.020  1.00  0.00     0.023 A
HETATM   13  C29 UNL     1      12.392  19.897  16.536  1.00  0.00     0.066 C
HETATM   14  C33 UNL     1      10.997  20.297  16.157  1.00  0.00     0.036 C
ENDROOT
BRANCH   1  15
HETATM   15  C7  UNL     1      12.848  22.123  17.770  1.00  0.00     0.231 C
HETATM   16  N1  UNL     1      14.152  22.558  17.944  1.00  0.00    -0.297 N
HETATM   17  C6  UNL     1      14.433  23.894  18.374  1.00  0.00     0.224 C
ATOM     18  H1  UNL     1      14.924  21.916  17.763  1.00  0.00     0.171 HD
HETATM   19  O1  UNL     1      13.588  24.802  18.324  1.00  0.00    -0.273 OA
HETATM   20  O2  UNL     1      11.978  23.078  17.679  1.00  0.00    -0.273 OA
BRANCH  17  21
HETATM   21  C5  UNL     1      15.834  24.071  18.916  1.00  0.00     0.103 C
BRANCH  21  22
HETATM   22  C4  UNL     1      15.871  24.975  20.087  1.00  0.00     0.009 C
BRANCH  22  23
HETATM   23  C3  UNL     1      17.047  25.849  20.286  1.00  0.00     0.000 C
BRANCH  23  24
HETATM   24  C2  UNL     1      18.080  25.467  19.234  1.00  0.00    -0.005 C
HETATM   25  C1  UNL     1      18.359  26.627  18.340  1.00  0.00     0.005 C
ENDBRANCH  23  24
ENDBRANCH  22  23
ENDBRANCH  21  22
ENDBRANCH  17  21
ENDBRANCH   1  15
BRANCH  13  26
HETATM   26  C30 UNL     1      13.427  20.047  15.528  1.00  0.00     0.229 C
HETATM   27  O4  UNL     1      13.210  20.440  14.343  1.00  0.00    -0.272 OA
HETATM   28  N7  UNL     1      14.811  19.767  15.810  1.00  0.00    -0.360 N
HETATM   29  C31 UNL     1      15.833  19.985  14.766  1.00  0.00     0.152 C
HETATM   30  C32 UNL     1      15.332  19.275  17.045  1.00  0.00     0.152 C
ENDBRANCH  13  26
BRANCH   5  31
HETATM   31  C11 UNL     1       8.504  18.616  19.369  1.00  0.00     0.241 C
HETATM   32  O3  UNL     1       9.196  18.331  20.349  1.00  0.00    -0.271 OA
HETATM   33  N3  UNL     1       7.091  18.623  19.487  1.00  0.00    -0.351 N
ATOM     34  H3  UNL     1       6.517  18.903  18.692  1.00  0.00     0.163 HD
BRANCH  33  35
HETATM   35  C12 UNL     1       6.455  18.229  20.742  1.00  0.00     0.022 C
HETATM   36  C13 UNL     1       6.967  18.940  21.950  1.00  0.00     0.037 C
HETATM   37  C14 UNL     1       6.363  16.756  20.792  1.00  0.00     0.037 C
HETATM   38  C15 UNL     1       4.977  18.722  20.579  1.00  0.00     0.037 C
ENDBRANCH  33  35
ENDBRANCH   5  31
BRANCH   6  39
HETATM   39  C17 UNL     1       8.857  16.568  17.328  1.00  0.00     0.010 C
BRANCH  39  40
HETATM   40  C18 UNL     1       8.744  16.132  15.939  1.00  0.00     0.022 C
BRANCH  40  41
HETATM   41  C19 UNL     1       7.745  16.206  14.931  1.00  0.00     0.150 C
BRANCH  41  42
HETATM   42  N4  UNL     1       6.356  16.225  15.427  1.00  0.00    -0.281 N
HETATM   43  N5  UNL     1       5.616  17.144  15.956  1.00  0.00    -0.241 N
HETATM   44  N6  UNL     1       4.392  16.651  16.209  1.00  0.00    -0.295 N
ATOM     45  H5  UNL     1       5.916  18.099  16.151  1.00  0.00     0.208 HD
HETATM   46  C20 UNL     1       4.342  15.371  15.827  1.00  0.00     0.134 A
ATOM     47  H6  UNL     1       3.622  17.172  16.628  1.00  0.00     0.187 HD
HETATM   48  C21 UNL     1       5.591  15.094  15.329  1.00  0.00     0.043 A
HETATM   49  C22 UNL     1       6.037  13.796  14.799  1.00  0.00     0.071 C
ENDBRANCH  41  42
ENDBRANCH  40  41
ENDBRANCH  39  40
ENDBRANCH   6  39
TORSDOF 13
ENDMDL