MODEL 1
REMARK VINA RESULT: -8.420023815      0.000      0.000
REMARK  15 active torsions:
REMARK  status: ('A' for Active; 'I' for Inactive)
REMARK    1  A    between atoms: C2_2  and  C3_3
REMARK    2  A    between atoms: C3_3  and  C4_4
REMARK    3  A    between atoms: C4_4  and  N1_5
REMARK    4  A    between atoms: C4_4  and  C22_34
REMARK       I    between atoms: N1_5  and  C5_7
REMARK    5  A    between atoms: C5_7  and  C6_9
REMARK       I    between atoms: C6_9  and  N2_11
REMARK    6  A    between atoms: N2_11  and  C7_13
REMARK    7  A    between atoms: C8_14  and  C9_15
REMARK    8  A    between atoms: C11_19  and  C12_20
REMARK    9  A    between atoms: C12_20  and  O6_22
REMARK   10  A    between atoms: O6_22  and  C13_23
REMARK   11  A    between atoms: C22_34  and  C23_36
REMARK       I    between atoms: C23_36  and  N4_38
REMARK   12  A    between atoms: N4_38  and  C24_39
REMARK   13  A    between atoms: N4_38  and  C27_42
REMARK   14  A    between atoms: C24_39  and  C25_40
REMARK   15  A    between atoms: C27_42  and  C28_43
ROOT
HETATM    1  C6  UNL     1       7.746  19.133  20.055  1.00  0.00     0.311 C
HETATM    2  O2  UNL     1       8.482  19.657  20.915  1.00  0.00    -0.262 OA
HETATM    3  N2  UNL     1       8.302  18.756  18.808  1.00  0.00    -0.322 N
ATOM      4  H2  UNL     1       7.670  18.322  18.136  1.00  0.00     0.165 HD
ENDROOT
BRANCH   3   5
HETATM    5  C7  UNL     1       9.662  18.924  18.396  1.00  0.00     0.341 C
HETATM    6  C8  UNL     1       9.903  20.304  17.821  1.00  0.00     0.143 C
HETATM    7  C10 UNL     1      10.333  20.102  16.409  1.00  0.00     0.073 C
HETATM    8  C11 UNL     1      10.614  18.630  16.277  1.00  0.00     0.263 C
HETATM    9  N3  UNL     1      10.164  17.979  17.466  1.00  0.00     0.140 N
HETATM   10  C19 UNL     1       9.922  17.970  15.125  1.00  0.00     0.061 C
HETATM   11  C17 UNL     1       9.308  16.895  17.114  1.00  0.00     0.355 C
HETATM   12  C18 UNL     1       9.676  16.589  15.677  1.00  0.00     0.166 C
HETATM   13  O7  UNL     1       9.745  15.508  15.138  1.00  0.00    -0.295 OA
HETATM   14  C20 UNL     1       8.558  18.533  14.812  1.00  0.00     0.026 C
HETATM   15  C21 UNL     1      10.695  17.924  13.851  1.00  0.00     0.026 C
BRANCH   6  16
HETATM   16  C9  UNL     1      10.937  21.042  18.584  1.00  0.00     0.181 C
HETATM   17  O3  UNL     1      11.311  22.207  18.263  1.00  0.00    -0.648 OA
HETATM   18  O4  UNL     1      11.512  20.438  19.683  1.00  0.00    -0.648 OA
ENDBRANCH   6  16
BRANCH   8  19
HETATM   19  C12 UNL     1      12.080  18.383  16.132  1.00  0.00     0.300 C
HETATM   20  O5  UNL     1      12.633  17.350  16.592  1.00  0.00    -0.262 OA
BRANCH  19  21
HETATM   21  O6  UNL     1      12.874  19.286  15.484  1.00  0.00    -0.309 OA
BRANCH  21  22
HETATM   22  C13 UNL     1      13.937  20.018  16.028  1.00  0.00     0.060 C
HETATM   23  C14 UNL     1      14.119  19.855  17.500  1.00  0.00     0.045 C
HETATM   24  C15 UNL     1      13.646  21.481  15.741  1.00  0.00     0.045 C
HETATM   25  C16 UNL     1      15.254  19.699  15.344  1.00  0.00     0.045 C
ENDBRANCH  21  22
ENDBRANCH  19  21
ENDBRANCH   8  19
ENDBRANCH   3   5
BRANCH   1  26
HETATM   26  C5  UNL     1       6.356  18.927  20.355  1.00  0.00     0.310 C
HETATM   27  N1  UNL     1       5.407  18.820  19.324  1.00  0.00    -0.341 N
ATOM     28  H1  UNL     1       5.730  18.899  18.360  1.00  0.00     0.163 HD
HETATM   29  O1  UNL     1       6.000  18.844  21.550  1.00  0.00    -0.262 OA
BRANCH  27  30
HETATM   30  C4  UNL     1       3.991  18.603  19.559  1.00  0.00     0.165 C
BRANCH  30  31
HETATM   31  C3  UNL     1       3.262  19.473  18.547  1.00  0.00     0.033 C
BRANCH  31  32
HETATM   32  C2  UNL     1       3.291  20.931  18.891  1.00  0.00    -0.002 C
HETATM   33  C1  UNL     1       2.243  21.371  19.856  1.00  0.00     0.005 C
ENDBRANCH  31  32
ENDBRANCH  30  31
BRANCH  30  34
HETATM   34  C22 UNL     1       3.701  17.185  19.120  1.00  0.00     0.239 C
HETATM   35  O8  UNL     1       2.550  16.766  19.360  1.00  0.00    -0.285 OA
BRANCH  34  36
HETATM   36  C23 UNL     1       4.706  16.408  18.474  1.00  0.00     0.291 C
HETATM   37  O9  UNL     1       5.571  15.841  19.239  1.00  0.00    -0.264 OA
HETATM   38  N4  UNL     1       4.814  16.221  17.086  1.00  0.00    -0.345 N
BRANCH  38  39
HETATM   39  C24 UNL     1       5.927  15.364  16.661  1.00  0.00     0.126 C
BRANCH  39  40
HETATM   40  C25 UNL     1       6.239  15.476  15.206  1.00  0.00     0.015 C
HETATM   41  C26 UNL     1       6.507  14.155  14.560  1.00  0.00     0.006 C
ENDBRANCH  39  40
ENDBRANCH  38  39
BRANCH  38  42
HETATM   42  C27 UNL     1       3.904  16.810  16.165  1.00  0.00     0.130 C
BRANCH  42  43
HETATM   43  C28 UNL     1       2.579  16.103  16.017  1.00  0.00    -0.005 C
HETATM   44  C29 UNL     1       2.651  15.251  14.744  1.00  0.00     0.011 C
HETATM   45  C30 UNL     1       1.457  17.122  15.861  1.00  0.00     0.011 C
ENDBRANCH  42  43
ENDBRANCH  38  42
ENDBRANCH  34  36
ENDBRANCH  30  34
ENDBRANCH  27  30
ENDBRANCH   1  26
TORSDOF 15
ENDMDL