MODEL 4
REMARK VINA RESULT: -9.045771642      1.229      1.647
REMARK  12 active torsions:
REMARK  status: ('A' for Active; 'I' for Inactive)
REMARK    1  A    between atoms: S1_3  and  C3_5
REMARK    2  A    between atoms: S1_3  and  N5_38
REMARK    3  A    between atoms: C6_8  and  C7_9
REMARK    4  A    between atoms: C7_9  and  C8_11
REMARK       I    between atoms: C8_11  and  N1_13
REMARK    5  A    between atoms: N1_13  and  C9_15
REMARK    6  A    between atoms: C9_15  and  C11_17
REMARK    7  A    between atoms: C9_15  and  C15_21
REMARK    8  A    between atoms: C11_17  and  C12_18
REMARK    9  A    between atoms: C15_21  and  C16_23
REMARK       I    between atoms: C16_23  and  N2_25
REMARK   10  A    between atoms: N2_25  and  C17_27
REMARK   11  A    between atoms: C17_27  and  C18_28
REMARK   12  A    between atoms: N5_38  and  C24_40
ROOT
HETATM    1  C1  UNL     1      10.300  18.976  15.496  1.00  0.00     0.028 C
HETATM    2  C2  UNL     1      11.042  19.250  16.425  1.00  0.00    -0.000 C
HETATM    3  S1  UNL     1      12.239  19.671  18.070  1.00  0.00     0.129 S
HETATM    4  O1  UNL     1      13.135  18.189  17.635  1.00  0.00    -0.231 OA
ENDROOT
BRANCH   3   5
HETATM    5  C3  UNL     1      10.783  19.649  19.318  1.00  0.00     0.058 A
HETATM    6  C4  UNL     1       9.809  18.634  19.261  1.00  0.00     0.039 A
HETATM    7  C5  UNL     1       8.747  18.509  20.111  1.00  0.00     0.026 A
HETATM    8  C6  UNL     1       7.698  17.587  20.207  1.00  0.00     0.116 A
HETATM    9  C19 UNL     1       8.586  19.418  21.101  1.00  0.00     0.061 A
HETATM   10  N3  UNL     1       6.941  17.969  21.248  1.00  0.00    -0.295 N
HETATM   11  N4  UNL     1       7.479  19.071  21.783  1.00  0.00    -0.299 N
ATOM     12  H3  UNL     1       6.098  17.497  21.576  1.00  0.00     0.187 HD
ATOM     13  H4  UNL     1       7.106  19.575  22.589  1.00  0.00     0.187 HD
HETATM   14  C20 UNL     1       9.480  20.433  21.230  1.00  0.00     0.040 A
HETATM   15  C21 UNL     1      10.543  20.531  20.356  1.00  0.00    -0.039 A
HETATM   16  C22 UNL     1      11.489  21.648  20.600  1.00  0.00     0.050 C
BRANCH   8  17
HETATM   17  C7  UNL     1       7.532  16.471  19.316  1.00  0.00     0.267 C
HETATM   18  O2  UNL     1       8.126  15.352  19.495  1.00  0.00    -0.280 OA
BRANCH  17  19
HETATM   19  C8  UNL     1       6.675  16.474  18.112  1.00  0.00     0.295 C
HETATM   20  O3  UNL     1       7.216  16.855  17.079  1.00  0.00    -0.264 OA
HETATM   21  N1  UNL     1       5.343  16.065  18.171  1.00  0.00    -0.338 N
ATOM     22  H1  UNL     1       5.038  15.786  19.103  1.00  0.00     0.164 HD
BRANCH  21  23
HETATM   23  C9  UNL     1       4.325  15.961  17.180  1.00  0.00     0.100 C
HETATM   24  C10 UNL     1       3.305  14.908  17.738  1.00  0.00     0.047 C
BRANCH  23  25
HETATM   25  C11 UNL     1       4.692  15.420  15.863  1.00  0.00     0.043 C
BRANCH  25  26
HETATM   26  C12 UNL     1       5.361  14.145  15.647  1.00  0.00    -0.020 C
HETATM   27  C13 UNL     1       6.617  14.153  14.818  1.00  0.00     0.009 C
HETATM   28  C14 UNL     1       4.375  13.274  14.823  1.00  0.00     0.009 C
ENDBRANCH  25  26
ENDBRANCH  23  25
BRANCH  23  29
HETATM   29  C15 UNL     1       3.506  17.201  17.084  1.00  0.00     0.244 C
HETATM   30  O4  UNL     1       3.102  17.482  15.904  1.00  0.00    -0.284 OA
BRANCH  29  31
HETATM   31  C16 UNL     1       3.132  18.089  18.129  1.00  0.00     0.290 C
HETATM   32  O5  UNL     1       2.066  17.977  18.762  1.00  0.00    -0.264 OA
HETATM   33  N2  UNL     1       3.979  19.165  18.504  1.00  0.00    -0.348 N
ATOM     34  H2  UNL     1       4.862  19.288  18.008  1.00  0.00     0.163 HD
BRANCH  33  35
HETATM   35  C17 UNL     1       3.645  20.087  19.553  1.00  0.00     0.192 C
BRANCH  35  36
HETATM   36  C18 UNL     1       3.184  21.378  19.014  1.00  0.00     0.250 C
HETATM   37  O6  UNL     1       3.978  22.176  18.546  1.00  0.00    -0.305 OA
ENDBRANCH  35  36
ENDBRANCH  33  35
ENDBRANCH  29  31
ENDBRANCH  23  29
ENDBRANCH  21  23
ENDBRANCH  17  19
ENDBRANCH   8  17
ENDBRANCH   3   5
BRANCH   3  38
HETATM   38  N5  UNL     1      12.618  21.357  17.173  1.00  0.00    -0.297 N
HETATM   39  C23 UNL     1      11.488  22.251  17.093  1.00  0.00     0.167 C
BRANCH  38  40
HETATM   40  C24 UNL     1      13.843  21.747  16.662  1.00  0.00     0.054 A
HETATM   41  C25 UNL     1      14.238  21.536  15.368  1.00  0.00    -0.034 A
HETATM   42  C26 UNL     1      13.320  20.901  14.402  1.00  0.00     0.050 C
HETATM   43  C27 UNL     1      15.516  21.942  14.913  1.00  0.00     0.009 A
HETATM   44  C28 UNL     1      16.398  22.563  15.763  1.00  0.00     0.001 A
HETATM   45  C29 UNL     1      16.025  22.789  17.069  1.00  0.00     0.009 A
HETATM   46  C30 UNL     1      14.758  22.383  17.511  1.00  0.00    -0.034 A
HETATM   47  C31 UNL     1      14.439  22.680  18.908  1.00  0.00     0.050 C
ENDBRANCH  38  40
ENDBRANCH   3  38
TORSDOF 12
ENDMDL