MODEL 3
REMARK VINA RESULT: -8.389874306      2.312      5.056
REMARK  14 active torsions:
REMARK  status: ('A' for Active; 'I' for Inactive)
REMARK       I    between atoms: N1_2  and  C2_4
REMARK       I    between atoms: C2_4  and  N7_39
REMARK    1  A    between atoms: N2_5  and  C3_7
REMARK    2  A    between atoms: C3_7  and  C4_8
REMARK    3  A    between atoms: C4_8  and  C5_9
REMARK    4  A    between atoms: C5_9  and  C6_10
REMARK    5  A    between atoms: C6_10  and  N3_11
REMARK    6  A    between atoms: C6_10  and  C17_28
REMARK       I    between atoms: N3_11  and  C7_13
REMARK    7  A    between atoms: C7_13  and  C8_15
REMARK    8  A    between atoms: C8_15  and  N4_16
REMARK    9  A    between atoms: C8_15  and  C14_25
REMARK       I    between atoms: N4_16  and  C9_18
REMARK   10  A    between atoms: C9_18  and  O3_20
REMARK   11  A    between atoms: O3_20  and  C10_21
REMARK       I    between atoms: C17_28  and  N5_30
REMARK   12  A    between atoms: N5_30  and  C19_32
REMARK   13  A    between atoms: C19_32  and  C20_33
REMARK   14  A    between atoms: N8_42  and  C25_43
ROOT
HETATM    1  C6  UNL     1      10.640  18.470  16.042  1.00  0.00     0.176 C
ENDROOT
BRANCH   1   2
HETATM    2  C5  UNL     1      11.351  18.949  14.759  1.00  0.00     0.036 C
BRANCH   2   3
HETATM    3  C4  UNL     1      12.467  19.895  15.017  1.00  0.00     0.023 C
BRANCH   3   4
HETATM    4  C3  UNL     1      13.700  19.173  15.562  1.00  0.00     0.138 C
BRANCH   4   5
HETATM    5  N2  UNL     1      14.871  19.977  15.430  1.00  0.00    -0.226 N
HETATM    6  C2  UNL     1      15.232  20.971  16.130  1.00  0.00     0.671 C
HETATM    7  N1  UNL     1      16.472  21.599  15.769  1.00  0.00    -0.231 N
HETATM    8  N7  UNL     1      14.552  21.535  17.231  1.00  0.00    -0.215 N
HETATM    9  C1  UNL     1      16.707  22.015  14.405  1.00  0.00     0.165 C
ATOM     10  H1  UNL     1      17.190  21.752  16.477  1.00  0.00     0.177 HD
HETATM   11  C23 UNL     1      13.638  22.636  17.010  1.00  0.00     0.171 C
HETATM   12  C29 UNL     1      14.705  21.089  18.598  1.00  0.00     0.171 C
HETATM   13  C24 UNL     1      13.439  23.401  18.286  1.00  0.00     0.293 C
HETATM   14  N8  UNL     1      14.617  23.498  19.108  1.00  0.00     0.095 N
HETATM   15  C28 UNL     1      15.187  22.238  19.473  1.00  0.00     0.293 C
ATOM     16  H2  UNL     1      15.502  19.718  14.671  1.00  0.00     0.177 HD
BRANCH  14  17
HETATM   17  C25 UNL     1      15.620  24.362  18.566  1.00  0.00     0.215 C
HETATM   18  C26 UNL     1      15.087  25.787  18.499  1.00  0.00     0.042 C
HETATM   19  C27 UNL     1      16.833  24.328  19.475  1.00  0.00     0.042 C
ENDBRANCH  14  17
ENDBRANCH   4   5
ENDBRANCH   3   4
ENDBRANCH   2   3
ENDBRANCH   1   2
BRANCH   1  20
HETATM   20  N3  UNL     1       9.545  17.602  15.819  1.00  0.00    -0.346 N
HETATM   21  C7  UNL     1       8.393  17.654  15.063  1.00  0.00     0.241 C
HETATM   22  O1  UNL     1       8.092  18.677  14.354  1.00  0.00    -0.271 OA
ATOM     23  H3  UNL     1       9.627  16.730  16.342  1.00  0.00     0.163 HD
BRANCH  21  24
HETATM   24  C8  UNL     1       7.378  16.587  14.945  1.00  0.00     0.182 C
BRANCH  24  25
HETATM   25  N4  UNL     1       6.958  16.096  16.256  1.00  0.00    -0.323 N
HETATM   26  C9  UNL     1       5.623  16.398  16.659  1.00  0.00     0.362 C
HETATM   27  O2  UNL     1       4.836  17.058  15.923  1.00  0.00    -0.238 OA
ATOM     28  H4  UNL     1       7.589  15.563  16.854  1.00  0.00     0.165 HD
BRANCH  26  29
HETATM   29  O3  UNL     1       5.083  16.000  17.871  1.00  0.00    -0.294 OA
BRANCH  29  30
HETATM   30  C10 UNL     1       5.355  16.533  19.109  1.00  0.00     0.061 C
HETATM   31  C11 UNL     1       5.520  18.053  19.006  1.00  0.00     0.046 C
HETATM   32  C12 UNL     1       4.108  16.328  19.982  1.00  0.00     0.046 C
HETATM   33  C13 UNL     1       6.523  16.010  19.852  1.00  0.00     0.046 C
ENDBRANCH  29  30
ENDBRANCH  26  29
ENDBRANCH  24  25
BRANCH  24  34
HETATM   34  C14 UNL     1       7.921  15.431  14.143  1.00  0.00     0.009 C
HETATM   35  C15 UNL     1       9.212  14.901  14.687  1.00  0.00     0.012 C
HETATM   36  C16 UNL     1       6.885  14.308  14.039  1.00  0.00     0.012 C
ENDBRANCH  24  34
ENDBRANCH  21  24
ENDBRANCH   1  20
BRANCH   1  37
HETATM   37  C17 UNL     1      10.504  19.573  16.949  1.00  0.00     0.242 C
HETATM   38  O4  UNL     1       9.728  20.538  16.621  1.00  0.00    -0.271 OA
HETATM   39  N5  UNL     1      11.138  19.717  18.190  1.00  0.00    -0.349 N
HETATM   40  C18 UNL     1      12.009  18.702  18.718  1.00  0.00     0.153 C
BRANCH  39  41
HETATM   41  C19 UNL     1      10.942  20.895  19.010  1.00  0.00     0.190 C
BRANCH  41  42
HETATM   42  C20 UNL     1      10.042  20.595  20.163  1.00  0.00     0.068 A
HETATM   43  N6  UNL     1      10.086  21.143  21.362  1.00  0.00    -0.362 N
HETATM   44  C21 UNL     1       9.237  20.782  22.267  1.00  0.00     0.096 A
ATOM     45  H6  UNL     1      10.789  21.851  21.575  1.00  0.00     0.165 HD
HETATM   46  C22 UNL     1       8.310  19.829  21.936  1.00  0.00     0.068 A
HETATM   47  S1  UNL     1       8.736  19.507  20.301  1.00  0.00    -0.086 SA
ENDBRANCH  41  42
ENDBRANCH  39  41
ENDBRANCH   1  37
TORSDOF 14
ENDMDL