MODEL 4
REMARK VINA RESULT: -8.723480198      2.579     11.245
REMARK  16 active torsions:
REMARK  status: ('A' for Active; 'I' for Inactive)
REMARK    1  A    between atoms: C2_2  and  C3_3
REMARK    2  A    between atoms: C3_3  and  C4_4
REMARK    3  A    between atoms: C4_4  and  O1_5
REMARK    4  A    between atoms: O1_5  and  C5_6
REMARK       I    between atoms: C5_6  and  N1_8
REMARK       I    between atoms: N2_11  and  C8_12
REMARK    5  A    between atoms: C8_12  and  C9_14
REMARK    6  A    between atoms: C9_14  and  C10_15
REMARK    7  A    between atoms: C9_14  and  N3_19
REMARK    8  A    between atoms: C10_15  and  C11_16
REMARK       I    between atoms: N3_19  and  C14_21
REMARK    9  A    between atoms: C14_21  and  C15_23
REMARK   10  A    between atoms: C15_23  and  C16_24
REMARK   11  A    between atoms: C15_23  and  N4_33
REMARK   12  A    between atoms: C16_24  and  C17_25
REMARK   13  A    between atoms: C17_25  and  C18_26
REMARK   14  A    between atoms: C18_26  and  O6_28
REMARK   15  A    between atoms: O6_28  and  C19_29
REMARK       I    between atoms: N4_33  and  C23_35
REMARK   16  A    between atoms: C23_35  and  C24_37
ROOT
HETATM    1  N3  UNL     1      11.525  19.730  16.390  1.00  0.00    -0.346 N
ATOM      2  H3  UNL     1      10.707  20.286  16.642  1.00  0.00     0.163 HD
HETATM    3  C14 UNL     1      11.361  18.361  16.206  1.00  0.00     0.241 C
HETATM    4  O4  UNL     1      12.385  17.660  15.892  1.00  0.00    -0.271 OA
ENDROOT
BRANCH   3   5
HETATM    5  C15 UNL     1      10.050  17.616  16.345  1.00  0.00     0.177 C
BRANCH   5   6
HETATM    6  C16 UNL     1      10.071  16.452  15.454  1.00  0.00     0.044 C
BRANCH   6   7
HETATM    7  C17 UNL     1       9.013  16.326  14.425  1.00  0.00     0.113 C
BRANCH   7   8
HETATM    8  C18 UNL     1       8.071  15.217  14.585  1.00  0.00     0.259 C
HETATM    9  O5  UNL     1       8.463  14.038  14.732  1.00  0.00    -0.265 OA
BRANCH   8  10
HETATM   10  O6  UNL     1       6.707  15.436  14.581  1.00  0.00    -0.311 OA
BRANCH  10  11
HETATM   11  C19 UNL     1       5.994  15.412  15.777  1.00  0.00     0.060 C
HETATM   12  C20 UNL     1       5.009  16.558  15.799  1.00  0.00     0.045 C
HETATM   13  C21 UNL     1       5.200  14.090  15.747  1.00  0.00     0.045 C
HETATM   14  C22 UNL     1       6.841  15.434  17.002  1.00  0.00     0.045 C
ENDBRANCH  10  11
ENDBRANCH   8  10
ENDBRANCH   7   8
ENDBRANCH   6   7
ENDBRANCH   5   6
BRANCH   5  15
HETATM   15  N4  UNL     1       9.862  17.408  17.736  1.00  0.00    -0.346 N
HETATM   16  C23 UNL     1       9.280  18.301  18.668  1.00  0.00     0.240 C
HETATM   17  O7  UNL     1       8.882  19.411  18.267  1.00  0.00    -0.271 OA
ATOM     18  H4  UNL     1      10.184  16.514  18.107  1.00  0.00     0.163 HD
BRANCH  16  19
HETATM   19  C24 UNL     1       9.127  17.965  20.103  1.00  0.00     0.169 C
HETATM   20  C25 UNL     1       7.973  18.745  20.719  1.00  0.00     0.034 C
HETATM   21  C26 UNL     1       8.405  19.710  21.774  1.00  0.00     0.004 C
HETATM   22  C27 UNL     1       9.658  20.454  21.424  1.00  0.00     0.019 C
HETATM   23  C28 UNL     1      10.767  19.515  21.013  1.00  0.00     0.114 C
HETATM   24  N5  UNL     1      10.336  18.177  20.824  1.00  0.00    -0.409 N
ATOM     25  H5  UNL     1      10.875  17.393  21.192  1.00  0.00     0.154 HD
ENDBRANCH  16  19
ENDBRANCH   5  15
ENDBRANCH   3   5
BRANCH   1  26
HETATM   26  C9  UNL     1      12.815  20.416  16.242  1.00  0.00     0.177 C
BRANCH  26  27
HETATM   27  C8  UNL     1      12.784  21.719  16.958  1.00  0.00     0.242 C
HETATM   28  N2  UNL     1      13.748  22.169  17.885  1.00  0.00    -0.347 N
HETATM   29  C7  UNL     1      14.844  21.319  18.285  1.00  0.00     0.146 C
HETATM   30  C29 UNL     1      13.634  23.517  18.434  1.00  0.00     0.146 C
HETATM   31  C6  UNL     1      16.138  22.040  18.102  1.00  0.00     0.148 C
HETATM   32  N1  UNL     1      16.066  23.354  18.666  1.00  0.00    -0.325 N
HETATM   33  C5  UNL     1      17.235  24.171  18.639  1.00  0.00     0.362 C
HETATM   34  C30 UNL     1      14.857  23.857  19.257  1.00  0.00     0.148 C
HETATM   35  O2  UNL     1      18.314  23.703  18.141  1.00  0.00    -0.238 OA
HETATM   36  O3  UNL     1      11.784  22.482  16.691  1.00  0.00    -0.271 OA
BRANCH  33  37
HETATM   37  O1  UNL     1      17.276  25.457  19.123  1.00  0.00    -0.304 OA
BRANCH  37  38
HETATM   38  C4  UNL     1      18.169  26.419  18.649  1.00  0.00     0.180 C
BRANCH  38  39
HETATM   39  C3  UNL     1      17.906  26.949  17.284  1.00  0.00     0.026 C
BRANCH  39  40
HETATM   40  C2  UNL     1      18.832  28.094  16.916  1.00  0.00    -0.002 C
HETATM   41  C1  UNL     1      20.028  28.048  17.859  1.00  0.00     0.005 C
ENDBRANCH  39  40
ENDBRANCH  38  39
ENDBRANCH  37  38
ENDBRANCH  33  37
ENDBRANCH  26  27
BRANCH  26  42
HETATM   42  C10 UNL     1      12.899  20.795  14.756  1.00  0.00     0.038 C
BRANCH  42  43
HETATM   43  C11 UNL     1      14.178  21.467  14.388  1.00  0.00    -0.020 C
HETATM   44  C12 UNL     1      14.223  21.840  12.913  1.00  0.00     0.009 C
HETATM   45  C13 UNL     1      15.324  20.519  14.655  1.00  0.00     0.009 C
ENDBRANCH  42  43
ENDBRANCH  26  42
ENDBRANCH   1  26
TORSDOF 16
ENDMDL