MODEL 1
REMARK VINA RESULT: -8.266648812      0.000      0.000
REMARK  17 active torsions:
REMARK  status: ('A' for Active; 'I' for Inactive)
REMARK    1  A    between atoms: C2_2  and  C4_4
REMARK    2  A    between atoms: C4_4  and  C5_5
REMARK    3  A    between atoms: C5_5  and  N1_6
REMARK    4  A    between atoms: C5_5  and  C14_22
REMARK    5  A    between atoms: N1_6  and  C6_8
REMARK    6  A    between atoms: C6_8  and  C7_10
REMARK    7  A    between atoms: C7_10  and  C8_11
REMARK    8  A    between atoms: C7_10  and  N4_19
REMARK    9  A    between atoms: C8_11  and  C9_12
REMARK   10  A    between atoms: C14_22  and  O1_23
REMARK   11  A    between atoms: C14_22  and  N5_25
REMARK   12  A    between atoms: N5_25  and  C15_27
REMARK   13  A    between atoms: C15_27  and  C16_28
REMARK   14  A    between atoms: C15_27  and  C20_32
REMARK   15  A    between atoms: C16_28  and  C17_29
REMARK       I    between atoms: C20_32  and  N6_34
REMARK       I    between atoms: N7_37  and  C23_38
REMARK   16  A    between atoms: C23_38  and  O4_40
REMARK   17  A    between atoms: O4_40  and  C24_41
ROOT
HETATM    1  C14 UNL     1      12.545  18.321  18.267  1.00  0.00     0.135 C
ENDROOT
BRANCH   1   2
HETATM    2  C5  UNL     1      12.334  18.695  16.847  1.00  0.00     0.157 C
BRANCH   2   3
HETATM    3  C4  UNL     1      11.773  17.605  15.989  1.00  0.00     0.037 C
BRANCH   3   4
HETATM    4  C2  UNL     1      10.416  17.840  15.402  1.00  0.00    -0.020 C
HETATM    5  C1  UNL     1       9.868  19.228  15.678  1.00  0.00     0.009 C
HETATM    6  C3  UNL     1      10.604  17.689  13.875  1.00  0.00     0.009 C
ENDBRANCH   3   4
ENDBRANCH   2   3
BRANCH   2   7
HETATM    7  N1  UNL     1      13.642  19.022  16.257  1.00  0.00    -0.370 N
ATOM      8  H1  UNL     1      14.367  18.305  16.262  1.00  0.00     0.161 HD
BRANCH   7   9
HETATM    9  C6  UNL     1      13.946  20.273  15.686  1.00  0.00     0.108 C
HETATM   10  S1  UNL     1      13.082  20.818  14.424  1.00  0.00    -0.063 SA
BRANCH   9  11
HETATM   11  C7  UNL     1      15.046  21.105  16.259  1.00  0.00     0.288 C
BRANCH  11  12
HETATM   12  C8  UNL     1      14.565  22.522  16.379  1.00  0.00     0.101 C
BRANCH  12  13
HETATM   13  C9  UNL     1      15.088  23.228  17.587  1.00  0.00     0.028 A
HETATM   14  C10 UNL     1      15.592  22.662  18.737  1.00  0.00     0.114 A
HETATM   15  N2  UNL     1      15.940  23.647  19.567  1.00  0.00    -0.360 N
HETATM   16  C11 UNL     1      15.672  24.817  18.979  1.00  0.00     0.180 A
ATOM     17  H2  UNL     1      16.343  23.526  20.497  1.00  0.00     0.166 HD
HETATM   18  N3  UNL     1      15.151  24.556  17.766  1.00  0.00    -0.355 N
ATOM     19  H3  UNL     1      14.850  25.258  17.090  1.00  0.00     0.166 HD
ENDBRANCH  12  13
ENDBRANCH  11  12
BRANCH  11  20
HETATM   20  N4  UNL     1      16.274  21.026  15.547  1.00  0.00     0.091 N
HETATM   21  C12 UNL     1      16.412  19.746  14.844  1.00  0.00     0.310 C
HETATM   22  C13 UNL     1      16.541  22.074  14.610  1.00  0.00     0.310 C
ENDBRANCH  11  20
ENDBRANCH   9  11
ENDBRANCH   7   9
ENDBRANCH   2   7
ENDBRANCH   1   2
BRANCH   1  23
HETATM   23  O1  UNL     1      13.625  17.646  18.543  1.00  0.00    -0.348 OA
ATOM     24  H1  UNL     1      13.630  17.158  19.359  1.00  0.00     0.219 HD
ENDBRANCH   1  23
BRANCH   1  25
HETATM   25  N5  UNL     1      11.739  18.596  19.367  1.00  0.00    -0.359 N
ATOM     26  H5  UNL     1      12.149  18.603  20.301  1.00  0.00     0.162 HD
BRANCH  25  27
HETATM   27  C15 UNL     1      10.282  18.882  19.203  1.00  0.00     0.176 C
BRANCH  27  28
HETATM   28  C16 UNL     1      10.087  20.364  19.166  1.00  0.00     0.038 C
BRANCH  28  29
HETATM   29  C17 UNL     1      11.156  21.144  19.903  1.00  0.00    -0.020 C
HETATM   30  C18 UNL     1      11.900  22.097  19.026  1.00  0.00     0.009 C
HETATM   31  C19 UNL     1      10.485  21.843  21.070  1.00  0.00     0.009 C
ENDBRANCH  28  29
ENDBRANCH  27  28
BRANCH  27  32
HETATM   32  C20 UNL     1       9.550  18.293  20.335  1.00  0.00     0.242 C
HETATM   33  O2  UNL     1      10.030  18.371  21.512  1.00  0.00    -0.271 OA
HETATM   34  N6  UNL     1       8.318  17.629  20.168  1.00  0.00    -0.347 N
HETATM   35  C21 UNL     1       7.761  17.488  18.845  1.00  0.00     0.146 C
HETATM   36  C29 UNL     1       7.594  17.074  21.306  1.00  0.00     0.146 C
HETATM   37  C22 UNL     1       7.034  16.131  18.800  1.00  0.00     0.148 C
HETATM   38  N7  UNL     1       5.906  16.304  19.705  1.00  0.00    -0.325 N
HETATM   39  C23 UNL     1       4.599  16.031  19.269  1.00  0.00     0.363 C
HETATM   40  C28 UNL     1       6.163  16.769  21.053  1.00  0.00     0.148 C
HETATM   41  O3  UNL     1       3.608  16.167  20.030  1.00  0.00    -0.238 OA
BRANCH  39  42
HETATM   42  O4  UNL     1       4.369  15.608  17.991  1.00  0.00    -0.294 OA
BRANCH  42  43
HETATM   43  C24 UNL     1       3.841  16.366  16.949  1.00  0.00     0.061 C
HETATM   44  C25 UNL     1       3.479  17.764  17.278  1.00  0.00     0.046 C
HETATM   45  C26 UNL     1       2.610  15.652  16.430  1.00  0.00     0.046 C
HETATM   46  C27 UNL     1       4.841  16.407  15.797  1.00  0.00     0.046 C
ENDBRANCH  42  43
ENDBRANCH  39  42
ENDBRANCH  27  32
ENDBRANCH  25  27
ENDBRANCH   1  25
TORSDOF 17
ENDMDL