MODEL 5
REMARK VINA RESULT: -7.050929947      3.124      7.111
REMARK  2 active torsions:
REMARK  status: ('A' for Active; 'I' for Inactive)
REMARK    1  A    between atoms: N1_1  and  C1_4
REMARK    2  A    between atoms: C1_4  and  C2_5
ROOT
HETATM    1  C2  UNL     1      12.780   0.304  19.755  1.00  0.00     0.087 C
HETATM    2  C3  UNL     1      13.847   0.679  18.802  1.00  0.00     0.004 C
HETATM    3  C4  UNL     1      13.892   2.207  18.763  1.00  0.00     0.016 C
HETATM    4  C5  UNL     1      12.530   2.753  18.384  1.00  0.00     0.055 C
HETATM    5  C6  UNL     1      11.549   2.363  19.448  1.00  0.00     0.021 C
HETATM    6  C7  UNL     1      11.423   0.826  19.512  1.00  0.00    -0.020 C
HETATM    7  C8  UNL     1      10.458   0.444  20.574  1.00  0.00     0.011 C
HETATM    8  C9  UNL     1      10.000  -0.967  20.419  1.00  0.00     0.001 C
HETATM    9  C10 UNL     1       9.284  -1.073  19.071  1.00  0.00     0.000 C
HETATM   10  C11 UNL     1      10.382  -0.933  18.032  1.00  0.00     0.006 C
HETATM   11  C12 UNL     1      10.970   0.435  18.121  1.00  0.00     0.005 C
HETATM   12  C13 UNL     1      12.034   0.710  17.118  1.00  0.00     0.059 C
HETATM   13  C14 UNL     1      13.383   0.146  17.441  1.00  0.00     0.016 C
HETATM   14  C15 UNL     1      12.206   2.230  17.015  1.00  0.00     0.237 C
HETATM   15  O1  UNL     1      13.295   2.527  16.190  1.00  0.00    -0.194 OA
HETATM   16  O2  UNL     1      13.042   3.668  15.549  1.00  0.00    -0.195 OA
HETATM   17  C16 UNL     1      12.125   3.320  14.538  1.00  0.00     0.230 C
HETATM   18  C17 UNL     1      12.909   2.398  13.594  1.00  0.00     0.081 C
HETATM   19  C18 UNL     1      14.279   3.015  13.410  1.00  0.00     0.083 C
HETATM   20  C19 UNL     1      14.065   4.464  13.120  1.00  0.00     0.127 C
HETATM   21  O3  UNL     1      14.971   5.270  13.235  1.00  0.00    -0.298 OA
HETATM   22  C20 UNL     1      12.710   4.877  12.689  1.00  0.00     0.083 C
HETATM   23  C21 UNL     1      11.685   4.527  13.756  1.00  0.00     0.081 C
HETATM   24  O4  UNL     1      11.088   2.648  15.150  1.00  0.00    -0.195 OA
HETATM   25  O5  UNL     1      11.080   2.779  16.459  1.00  0.00    -0.194 OA
ENDROOT
BRANCH   1  26
HETATM   26  C1  UNL     1      13.072  -0.453  20.763  1.00  0.00    -0.072 C
BRANCH  26  27
HETATM   27  N1  UNL     1      13.603  -1.287  21.601  1.00  0.00    -0.369 N
ATOM     28  H12 UNL     1      12.707  -1.452  22.059  1.00  0.00     0.165 HD
ATOM     29  H11 UNL     1      14.222  -1.893  22.141  1.00  0.00     0.165 HD
ENDBRANCH  26  27
ENDBRANCH   1  26
TORSDOF 2
ENDMDL