MODEL 3
REMARK VINA RESULT: -7.591160524      2.127      6.856
REMARK  0 active torsions:
REMARK  status: ('A' for Active; 'I' for Inactive)
ROOT
HETATM    1  C1  UNL     1      10.036   2.161  13.332  1.00  0.00     0.015 C
HETATM    2  C2  UNL     1      10.884   3.378  13.419  1.00  0.00    -0.042 C
HETATM    3  C3  UNL     1      10.670   4.175  12.124  1.00  0.00     0.015 C
HETATM    4  C4  UNL     1      10.600   4.261  14.592  1.00  0.00     0.014 C
HETATM    5  C5  UNL     1      11.809   4.912  15.170  1.00  0.00    -0.007 C
HETATM    6  C6  UNL     1      12.761   5.390  14.084  1.00  0.00     0.024 C
HETATM    7  C7  UNL     1      13.262   4.192  13.353  1.00  0.00     0.098 C
HETATM    8  C8  UNL     1      14.609   3.773  13.799  1.00  0.00     0.064 C
HETATM    9  N1  UNL     1      15.673   3.456  14.133  1.00  0.00    -0.197 NA
HETATM   10  C9  UNL     1      12.354   3.000  13.474  1.00  0.00     0.016 C
HETATM   11  C10 UNL     1      12.691   2.109  14.610  1.00  0.00     0.081 C
HETATM   12  C11 UNL     1      12.561   2.641  15.966  1.00  0.00     0.230 C
HETATM   13  C12 UNL     1      12.576   4.111  16.140  1.00  0.00     0.079 C
HETATM   14  O1  UNL     1      13.646   2.139  16.734  1.00  0.00    -0.195 OA
HETATM   15  O2  UNL     1      13.306   1.063  17.395  1.00  0.00    -0.194 OA
HETATM   16  C13 UNL     1      12.448   1.443  18.427  1.00  0.00     0.237 C
HETATM   17  O3  UNL     1      11.639   2.474  17.933  1.00  0.00    -0.194 OA
HETATM   18  O4  UNL     1      11.422   2.152  16.654  1.00  0.00    -0.195 OA
HETATM   19  C14 UNL     1      13.310   1.908  19.574  1.00  0.00     0.055 C
HETATM   20  C15 UNL     1      14.178   0.719  19.968  1.00  0.00     0.015 C
HETATM   21  C16 UNL     1      13.264  -0.385  20.412  1.00  0.00    -0.013 C
HETATM   22  C17 UNL     1      12.413   0.055  21.581  1.00  0.00     0.009 C
HETATM   23  C18 UNL     1      11.553   1.224  21.163  1.00  0.00    -0.013 C
HETATM   24  C19 UNL     1      12.488   2.344  20.748  1.00  0.00     0.015 C
HETATM   25  C20 UNL     1      10.674   0.866  19.988  1.00  0.00     0.015 C
HETATM   26  C21 UNL     1      11.528   0.322  18.852  1.00  0.00     0.055 C
HETATM   27  C22 UNL     1      12.348  -0.837  19.315  1.00  0.00     0.015 C
ENDROOT
TORSDOF 0
ENDMDL