MODEL 1
REMARK VINA RESULT: -7.989020998      0.000      0.000
REMARK  0 active torsions:
REMARK  status: ('A' for Active; 'I' for Inactive)
ROOT
HETATM    1  C1  UNL     1       7.521  -0.299  11.836  1.00  0.00     0.012 C
HETATM    2  C2  UNL     1       8.749  -0.131  12.707  1.00  0.00     0.005 C
HETATM    3  C3  UNL     1       8.719  -1.080  13.881  1.00  0.00     0.011 C
HETATM    4  C4  UNL     1      10.001  -0.885  14.651  1.00  0.00     0.069 C
HETATM    5  C5  UNL     1      10.294   0.581  14.919  1.00  0.00     0.170 C
HETATM    6  C6  UNL     1      11.505   0.938  14.124  1.00  0.00     0.069 C
HETATM    7  C7  UNL     1      12.242   2.144  14.556  1.00  0.00     0.013 C
HETATM    8  C8  UNL     1      11.625   2.706  15.790  1.00  0.00     0.107 C
HETATM    9  C9  UNL     1      11.384   1.566  16.730  1.00  0.00     0.341 C
HETATM   10  O1  UNL     1      11.044   2.151  17.973  1.00  0.00    -0.168 OA
HETATM   11  O2  UNL     1      11.488   1.386  18.936  1.00  0.00    -0.226 OA
HETATM   12  C10 UNL     1      12.672   1.788  19.484  1.00  0.00     0.207 C
HETATM   13  C11 UNL     1      13.860   1.786  18.564  1.00  0.00     0.122 C
HETATM   14  C12 UNL     1      14.463   3.198  18.438  1.00  0.00     0.052 C
HETATM   15  C13 UNL     1      15.000   0.888  19.005  1.00  0.00     0.044 C
HETATM   16  C14 UNL     1      15.296   0.891  20.479  1.00  0.00     0.009 C
HETATM   17  C15 UNL     1      14.272   1.615  21.206  1.00  0.00     0.006 A
HETATM   18  C16 UNL     1      13.176   1.275  22.034  1.00  0.00    -0.033 A
HETATM   19  C17 UNL     1      13.409   0.153  23.052  1.00  0.00     0.016 C
HETATM   20  C18 UNL     1      12.325   2.376  22.683  1.00  0.00     0.016 C
HETATM   21  C19 UNL     1      12.957   0.958  20.665  1.00  0.00    -0.000 A
HETATM   22  C20 UNL     1      12.913  -0.507  20.375  1.00  0.00     0.019 C
HETATM   23  O3  UNL     1      13.582   1.431  17.257  1.00  0.00    -0.222 OA
HETATM   24  O4  UNL     1      12.526   0.807  16.982  1.00  0.00    -0.168 OA
HETATM   25  O5  UNL     1      10.415   0.713  16.281  1.00  0.00    -0.292 OA
HETATM   26  O6  UNL     1       9.223   1.368  14.539  1.00  0.00    -0.354 OA
HETATM   27  C21 UNL     1       8.839   1.261  13.241  1.00  0.00     0.175 C
ENDROOT
TORSDOF 0
ENDMDL