MODEL 3
REMARK VINA RESULT: -6.638996883      1.512      2.058
REMARK  0 active torsions:
REMARK  status: ('A' for Active; 'I' for Inactive)
ROOT
HETATM    1  C1  UNL     1       8.773  -0.652  20.196  1.00  0.00     0.043 C
HETATM    2  C2  UNL     1      10.205  -0.861  19.859  1.00  0.00    -0.079 C
HETATM    3  C3  UNL     1      10.402  -1.628  18.770  1.00  0.00    -0.064 A
HETATM    4  C4  UNL     1      11.779  -1.977  18.241  1.00  0.00     0.027 A
HETATM    5  C5  UNL     1      12.474  -0.687  17.999  1.00  0.00     0.011 C
HETATM    6  C6  UNL     1      11.856   0.549  18.524  1.00  0.00     0.014 C
HETATM    7  C7  UNL     1      12.028   0.834  19.994  1.00  0.00     0.010 C
HETATM    8  C8  UNL     1      11.250  -0.215  20.725  1.00  0.00     0.047 C
HETATM    9  C9  UNL     1      11.591   2.253  20.285  1.00  0.00    -0.000 C
HETATM   10  C10 UNL     1      10.249   2.406  20.924  1.00  0.00     0.018 C
HETATM   11  C11 UNL     1      11.495   3.100  19.009  1.00  0.00     0.018 C
HETATM   12  C12 UNL     1      12.598   2.877  21.196  1.00  0.00     0.181 C
HETATM   13  C13 UNL     1      13.239   4.038  20.561  1.00  0.00     0.088 C
HETATM   14  N1  UNL     1      13.757   4.973  20.073  1.00  0.00    -0.195 NA
HETATM   15  C14 UNL     1      12.018   3.357  22.446  1.00  0.00     0.088 C
HETATM   16  N2  UNL     1      11.551   3.734  23.431  1.00  0.00    -0.195 NA
HETATM   17  C15 UNL     1      13.603   1.838  21.523  1.00  0.00     0.205 C
HETATM   18  C16 UNL     1      14.933   2.467  21.519  1.00  0.00     0.090 C
HETATM   19  N3  UNL     1      15.967   2.968  21.509  1.00  0.00    -0.195 NA
HETATM   20  C17 UNL     1      13.390   1.163  22.791  1.00  0.00     0.090 C
HETATM   21  N4  UNL     1      13.217   0.617  23.781  1.00  0.00    -0.195 NA
HETATM   22  C18 UNL     1      13.493   0.842  20.351  1.00  0.00     0.182 C
HETATM   23  C19 UNL     1      14.005  -0.405  20.862  1.00  0.00     0.088 C
HETATM   24  N5  UNL     1      14.439  -1.402  21.261  1.00  0.00    -0.195 NA
HETATM   25  C20 UNL     1      14.350   1.419  19.314  1.00  0.00     0.088 C
HETATM   26  N6  UNL     1      15.042   1.852  18.494  1.00  0.00    -0.195 NA
HETATM   27  C21 UNL     1      10.594  -2.463  17.585  1.00  0.00    -0.016 A
HETATM   28  C22 UNL     1      10.258  -1.951  16.208  1.00  0.00     0.020 C
HETATM   29  C23 UNL     1      10.201  -3.913  17.783  1.00  0.00     0.020 C
ENDROOT
TORSDOF 0
ENDMDL