MODEL 3
REMARK VINA RESULT: -7.185454185      1.707      7.235
REMARK  1 active torsions:
REMARK  status: ('A' for Active; 'I' for Inactive)
REMARK    1  A    between atoms: C10_10  and  O1_11
ROOT
HETATM    1  C1  UNL     1      12.920   2.773  17.919  1.00  0.00     0.046 C
HETATM    2  C2  UNL     1      13.643   2.141  16.757  1.00  0.00     0.058 C
HETATM    3  C3  UNL     1      15.114   2.130  17.101  1.00  0.00     0.038 C
HETATM    4  C4  UNL     1      15.759   3.473  17.022  1.00  0.00     0.003 C
HETATM    5  C5  UNL     1      17.055   3.422  16.233  1.00  0.00     0.000 C
HETATM    6  C6  UNL     1      16.989   4.210  14.959  1.00  0.00     0.000 C
HETATM    7  C7  UNL     1      16.593   3.359  13.772  1.00  0.00     0.000 C
HETATM    8  C8  UNL     1      15.591   4.068  12.882  1.00  0.00     0.002 C
HETATM    9  C9  UNL     1      14.301   3.262  12.807  1.00  0.00     0.032 C
HETATM   10  C10 UNL     1      13.177   4.116  13.279  1.00  0.00     0.120 C
HETATM   11  C11 UNL     1      11.979   3.356  13.766  1.00  0.00     0.069 C
HETATM   12  C12 UNL     1      12.131   2.773  15.134  1.00  0.00     0.193 C
HETATM   13  O2  UNL     1      13.416   2.719  15.554  1.00  0.00    -0.369 OA
HETATM   14  C13 UNL     1      11.384   1.467  15.162  1.00  0.00     0.255 C
HETATM   15  C14 UNL     1      11.782   0.564  16.286  1.00  0.00     0.080 C
HETATM   16  C15 UNL     1      13.207   0.681  16.685  1.00  0.00     0.043 C
HETATM   17  O3  UNL     1      11.546   0.747  13.970  1.00  0.00    -0.192 OA
HETATM   18  O4  UNL     1      10.631  -0.196  13.907  1.00  0.00    -0.195 OA
HETATM   19  C16 UNL     1       9.380   0.371  13.685  1.00  0.00     0.229 C
HETATM   20  C17 UNL     1       9.140   0.374  12.202  1.00  0.00     0.074 C
HETATM   21  C18 UNL     1       7.753   0.780  11.816  1.00  0.00     0.006 C
HETATM   22  C19 UNL     1       6.688   0.209  12.714  1.00  0.00     0.000 C
HETATM   23  C20 UNL     1       6.998   0.418  14.179  1.00  0.00     0.006 C
HETATM   24  C21 UNL     1       8.294  -0.335  14.455  1.00  0.00     0.074 C
HETATM   25  O5  UNL     1       9.433   1.691  14.127  1.00  0.00    -0.195 OA
HETATM   26  O6  UNL     1      10.014   1.708  15.286  1.00  0.00    -0.192 OA
ENDROOT
BRANCH  10  27
HETATM   27  O1  UNL     1      13.583   5.095  14.195  1.00  0.00    -0.395 OA
ATOM     28  H1  UNL     1      13.043   5.877  14.165  1.00  0.00     0.210 HD
ENDBRANCH  10  27
TORSDOF 1
ENDMDL