MODEL 5
REMARK VINA RESULT: -6.895369155      3.615      7.206
REMARK  1 active torsions:
REMARK  status: ('A' for Active; 'I' for Inactive)
REMARK    1  A    between atoms: N1_9  and  C9_10
ROOT
HETATM    1  C1  UNL     1       8.781  -1.105  13.748  1.00  0.00     0.000 C
HETATM    2  C2  UNL     1       9.306  -0.945  15.155  1.00  0.00     0.000 C
HETATM    3  C3  UNL     1      10.295  -2.089  15.418  1.00  0.00     0.000 C
HETATM    4  C4  UNL     1      10.414  -2.325  16.898  1.00  0.00     0.000 C
HETATM    5  C5  UNL     1      11.793  -2.779  17.312  1.00  0.00     0.000 C
HETATM    6  C6  UNL     1      12.787  -1.652  17.212  1.00  0.00     0.002 C
HETATM    7  C7  UNL     1      12.228  -0.476  18.026  1.00  0.00     0.020 C
HETATM    8  C8  UNL     1      13.390   0.342  18.454  1.00  0.00     0.125 C
HETATM    9  N1  UNL     1      13.178   1.751  18.460  1.00  0.00    -0.360 N
HETATM   10  C12 UNL     1      12.046   2.454  17.955  1.00  0.00     0.135 C
HETATM   11  C13 UNL     1      12.221   2.855  16.491  1.00  0.00     0.093 C
HETATM   12  S2  UNL     1      10.813   3.920  16.062  1.00  0.00    -0.167 SA
HETATM   13  C14 UNL     1      10.956   4.536  14.367  1.00  0.00     0.074 C
HETATM   14  C15 UNL     1       9.609   4.406  13.690  1.00  0.00     0.010 C
HETATM   15  C16 UNL     1       9.693   3.560  12.440  1.00  0.00     0.001 C
HETATM   16  C17 UNL     1       8.638   2.461  12.428  1.00  0.00     0.000 C
HETATM   17  C18 UNL     1       9.304   1.133  12.775  1.00  0.00     0.000 C
HETATM   18  C19 UNL     1       8.221   0.187  13.197  1.00  0.00     0.000 C
ENDROOT
BRANCH   9  19
HETATM   19  C9  UNL     1      14.239   2.540  19.046  1.00  0.00     0.154 C
HETATM   20  N2  UNL     1      14.226   2.869  20.280  1.00  0.00    -0.369 N
HETATM   21  C10 UNL     1      15.180   3.633  21.002  1.00  0.00     0.138 C
ATOM     22  H2  UNL     1      13.424   2.540  20.818  1.00  0.00     0.161 HD
HETATM   23  C11 UNL     1      16.541   3.727  20.369  1.00  0.00     0.142 C
HETATM   24  N3  UNL     1      16.447   4.315  19.021  1.00  0.00    -0.170 NA
HETATM   25  S1  UNL     1      15.618   3.088  18.060  1.00  0.00     0.011 SA
ENDBRANCH   9  19
TORSDOF 1
ENDMDL