MODEL 1
REMARK VINA RESULT: -7.441155489      0.000      0.000
REMARK  3 active torsions:
REMARK  status: ('A' for Active; 'I' for Inactive)
REMARK    1  A    between atoms: C2_2  and  O2_4
REMARK    2  A    between atoms: O2_4  and  C3_5
REMARK    3  A    between atoms: C21_26  and  O6_27
ROOT
HETATM    1  C3  UNL     1      10.483  -1.032  16.833  1.00  0.00     0.160 C
HETATM    2  C4  UNL     1      11.580   0.018  17.039  1.00  0.00     0.035 C
HETATM    3  C5  UNL     1      11.656   0.321  18.503  1.00  0.00     0.002 C
HETATM    4  C6  UNL     1      12.300   1.631  18.824  1.00  0.00     0.000 C
HETATM    5  C7  UNL     1      13.299   2.092  17.820  1.00  0.00     0.000 C
HETATM    6  C8  UNL     1      13.298   3.604  17.650  1.00  0.00     0.000 C
HETATM    7  C9  UNL     1      12.007   4.122  17.103  1.00  0.00     0.002 C
HETATM    8  C10 UNL     1      12.149   5.360  16.265  1.00  0.00     0.032 C
HETATM    9  C11 UNL     1      13.205   5.199  15.184  1.00  0.00     0.127 C
HETATM   10  C12 UNL     1      12.997   6.276  14.173  1.00  0.00     0.040 C
HETATM   11  O3  UNL     1      13.158   3.897  14.708  1.00  0.00    -0.316 OA
HETATM   12  C13 UNL     1      13.044   3.432  13.434  1.00  0.00     0.259 C
HETATM   13  O4  UNL     1      13.903   2.665  12.885  1.00  0.00    -0.265 OA
HETATM   14  C14 UNL     1      11.870   3.818  12.617  1.00  0.00     0.111 C
HETATM   15  C15 UNL     1      10.563   3.654  13.396  1.00  0.00     0.010 C
HETATM   16  C16 UNL     1       9.439   3.300  12.451  1.00  0.00     0.008 C
HETATM   17  C17 UNL     1       9.057   1.863  12.468  1.00  0.00     0.078 C
HETATM   18  C18 UNL     1       9.357   1.151  13.717  1.00  0.00     0.127 C
HETATM   19  O5  UNL     1       8.775   1.482  14.740  1.00  0.00    -0.298 OA
HETATM   20  C19 UNL     1      10.360   0.030  13.751  1.00  0.00     0.081 C
HETATM   21  C20 UNL     1       9.733  -1.133  14.454  1.00  0.00     0.041 C
HETATM   22  C21 UNL     1      10.681  -1.722  15.484  1.00  0.00     0.148 C
ENDROOT
BRANCH   1  23
HETATM   23  O2  UNL     1      10.653  -2.006  17.828  1.00  0.00    -0.314 OA
BRANCH  23  24
HETATM   24  C2  UNL     1       9.690  -2.386  18.731  1.00  0.00     0.255 C
HETATM   25  C1  UNL     1       9.186  -1.427  19.746  1.00  0.00     0.126 C
HETATM   26  O1  UNL     1       9.247  -3.553  18.682  1.00  0.00    -0.266 OA
ENDBRANCH  23  24
ENDBRANCH   1  23
BRANCH  22  27
HETATM   27  O6  UNL     1      10.371  -3.072  15.632  1.00  0.00    -0.393 OA
ATOM     28  H6  UNL     1      10.911  -3.570  15.030  1.00  0.00     0.210 HD
ENDBRANCH  22  27
TORSDOF 3
ENDMDL