MODEL 1
REMARK VINA RESULT: -10.078163598      0.000      0.000
REMARK  0 active torsions:
REMARK  status: ('A' for Active; 'I' for Inactive)
ROOT
HETATM    1  C1  UNL     1       7.018   0.044  11.820  1.00  0.00     0.000 C
HETATM    2  C2  UNL     1       6.955   1.212  12.751  1.00  0.00     0.006 C
HETATM    3  C3  UNL     1       7.723   1.021  14.024  1.00  0.00     0.074 C
HETATM    4  C4  UNL     1       9.152   0.602  13.795  1.00  0.00     0.230 C
HETATM    5  C5  UNL     1       9.352  -0.098  12.491  1.00  0.00     0.074 C
HETATM    6  C6  UNL     1       8.109  -0.926  12.195  1.00  0.00     0.006 C
HETATM    7  O1  UNL     1       9.505  -0.235  14.878  1.00  0.00    -0.193 OA
HETATM    8  O2  UNL     1       9.688   0.570  15.894  1.00  0.00    -0.166 OA
HETATM    9  C7  UNL     1      10.900   0.396  16.530  1.00  0.00     0.366 C
HETATM   10  C8  UNL     1      11.494  -0.914  16.052  1.00  0.00     0.104 C
HETATM   11  C9  UNL     1      10.802  -2.086  16.740  1.00  0.00     0.009 C
HETATM   12  C10 UNL     1      11.136  -2.108  18.232  1.00  0.00     0.028 C
HETATM   13  C11 UNL     1      11.588  -0.688  18.570  1.00  0.00     0.239 C
HETATM   14  N1  UNL     1      10.588   0.193  17.956  1.00  0.00    -0.015 N
ATOM     15  H11 UNL     1       9.638  -0.152  18.094  1.00  0.00     0.283 HD
ATOM     16  H12 UNL     1      10.500   1.077  18.457  1.00  0.00     0.283 HD
HETATM   17  O3  UNL     1      11.756   1.451  16.455  1.00  0.00    -0.290 OA
HETATM   18  C12 UNL     1      11.628   2.220  15.299  1.00  0.00     0.209 C
HETATM   19  O4  UNL     1      11.198   1.422  14.264  1.00  0.00    -0.197 OA
HETATM   20  O5  UNL     1       9.995   1.698  13.866  1.00  0.00    -0.195 OA
HETATM   21  C13 UNL     1      13.010   2.797  15.046  1.00  0.00     0.052 C
HETATM   22  C14 UNL     1      13.491   3.375  16.349  1.00  0.00     0.014 C
HETATM   23  C15 UNL     1      12.548   4.475  16.775  1.00  0.00    -0.013 C
HETATM   24  C16 UNL     1      12.546   5.598  15.734  1.00  0.00     0.009 C
HETATM   25  C17 UNL     1      12.065   5.018  14.444  1.00  0.00    -0.013 C
HETATM   26  C18 UNL     1      12.997   3.880  14.009  1.00  0.00     0.014 C
HETATM   27  C19 UNL     1      10.695   4.432  14.558  1.00  0.00     0.014 C
HETATM   28  C20 UNL     1      10.695   3.348  15.601  1.00  0.00     0.052 C
HETATM   29  C21 UNL     1      11.137   4.005  16.912  1.00  0.00     0.014 C
ENDROOT
TORSDOF 0
ENDMDL