MODEL 5
REMARK VINA RESULT: -6.931002663      2.477      3.561
REMARK  1 active torsions:
REMARK  status: ('A' for Active; 'I' for Inactive)
REMARK    1  A    between atoms: C19_24  and  O3_25
ROOT
HETATM    1  C1  UNL     1      12.619   4.208  18.561  1.00  0.00     0.011 C
HETATM    2  C2  UNL     1      13.509   3.043  18.723  1.00  0.00    -0.008 C
HETATM    3  C3  UNL     1      13.620   2.224  17.470  1.00  0.00     0.033 C
HETATM    4  C4  UNL     1      12.366   1.722  16.898  1.00  0.00     0.113 C
HETATM    5  N1  UNL     1      12.646   0.454  16.234  1.00  0.00    -0.391 N
ATOM      6  H1  UNL     1      13.543   0.003  16.409  1.00  0.00     0.159 HD
HETATM    7  C5  UNL     1      11.812  -0.127  15.433  1.00  0.00     0.119 C
HETATM    8  C6  UNL     1      10.462   0.288  15.002  1.00  0.00     0.198 C
HETATM    9  C7  UNL     1      10.590   0.972  13.667  1.00  0.00     0.070 C
HETATM   10  C8  UNL     1       9.370   1.764  13.326  1.00  0.00     0.005 C
HETATM   11  C9  UNL     1       8.506   0.968  12.375  1.00  0.00     0.002 C
HETATM   12  C10 UNL     1       8.491  -0.488  12.806  1.00  0.00     0.019 C
HETATM   13  C11 UNL     1       8.336  -0.601  14.297  1.00  0.00     0.119 C
HETATM   14  N2  UNL     1       9.554  -0.810  14.998  1.00  0.00    -0.380 N
HETATM   15  C12 UNL     1      10.140  -2.097  14.860  1.00  0.00     0.146 C
HETATM   16  O1  UNL     1       9.994   1.206  15.973  1.00  0.00    -0.202 OA
HETATM   17  O2  UNL     1      10.298   0.683  17.131  1.00  0.00    -0.231 OA
HETATM   18  C13 UNL     1      11.235   1.487  17.834  1.00  0.00     0.183 C
HETATM   19  C14 UNL     1      11.597   0.713  19.054  1.00  0.00     0.047 C
HETATM   20  C15 UNL     1      12.137   1.493  20.200  1.00  0.00    -0.034 C
HETATM   21  C16 UNL     1      10.973   2.284  20.779  1.00  0.00     0.016 C
HETATM   22  C17 UNL     1      12.426   0.446  21.296  1.00  0.00     0.012 C
HETATM   23  C18 UNL     1      13.372  -0.599  20.833  1.00  0.00     0.032 C
HETATM   24  C19 UNL     1      14.522  -0.010  20.102  1.00  0.00     0.118 C
HETATM   25  C20 UNL     1      14.651   1.463  20.163  1.00  0.00     0.042 C
HETATM   26  C21 UNL     1      13.371   2.252  19.995  1.00  0.00    -0.031 C
HETATM   27  C22 UNL     1      13.431   3.331  21.101  1.00  0.00     0.016 C
ENDROOT
BRANCH  24  28
HETATM   28  O3  UNL     1      15.699  -0.550  20.689  1.00  0.00    -0.396 OA
ATOM     29  H3  UNL     1      15.488  -0.748  21.594  1.00  0.00     0.210 HD
ENDBRANCH  24  28
TORSDOF 1
ENDMDL