MODEL 2
REMARK VINA RESULT: -7.298505016      4.498      6.225
REMARK  2 active torsions:
REMARK  status: ('A' for Active; 'I' for Inactive)
REMARK    1  A    between atoms: C21_23  and  O3_24
REMARK    2  A    between atoms: C23_27  and  O4_28
ROOT
HETATM    1  C1  UNL     1       9.420   1.172  11.985  1.00  0.00     0.011 C
HETATM    2  C2  UNL     1       9.585   1.490  13.426  1.00  0.00    -0.010 C
HETATM    3  C3  UNL     1      10.315   0.458  14.223  1.00  0.00     0.005 C
HETATM    4  C4  UNL     1      11.694   1.042  14.580  1.00  0.00     0.006 C
HETATM    5  C5  UNL     1      11.781   2.160  13.613  1.00  0.00     0.003 C
HETATM    6  C6  UNL     1      10.431   2.756  13.653  1.00  0.00    -0.036 C
HETATM    7  C7  UNL     1       9.984   3.282  14.979  1.00  0.00     0.016 C
HETATM    8  C8  UNL     1      10.253   3.761  12.557  1.00  0.00     0.010 C
HETATM    9  C9  UNL     1      11.378   4.787  12.740  1.00  0.00     0.006 C
HETATM   10  C10 UNL     1      12.712   4.122  12.635  1.00  0.00    -0.006 C
HETATM   11  C11 UNL     1      13.832   5.082  12.516  1.00  0.00     0.011 C
HETATM   12  C12 UNL     1      14.975   4.409  11.801  1.00  0.00     0.075 C
HETATM   13  C13 UNL     1      15.959   3.963  12.848  1.00  0.00     0.230 C
HETATM   14  C14 UNL     1      15.473   2.837  13.699  1.00  0.00     0.075 C
HETATM   15  C15 UNL     1      14.149   2.290  13.364  1.00  0.00     0.015 C
HETATM   16  C16 UNL     1      12.943   3.085  13.746  1.00  0.00    -0.036 C
HETATM   17  C17 UNL     1      13.052   3.749  15.076  1.00  0.00     0.016 C
HETATM   18  O1  UNL     1      17.151   3.650  12.154  1.00  0.00    -0.195 OA
HETATM   19  O2  UNL     1      18.200   4.190  12.735  1.00  0.00    -0.192 OA
HETATM   20  C18 UNL     1      18.156   5.580  12.603  1.00  0.00     0.255 C
HETATM   21  C19 UNL     1      18.603   6.013  11.223  1.00  0.00     0.079 C
HETATM   22  C20 UNL     1      18.445   7.533  11.179  1.00  0.00     0.037 C
HETATM   23  C21 UNL     1      19.499   8.106  12.080  1.00  0.00     0.120 C
HETATM   24  C22 UNL     1      20.069   7.114  13.051  1.00  0.00     0.069 C
HETATM   25  C23 UNL     1      18.944   6.301  13.647  1.00  0.00     0.188 C
HETATM   26  O5  UNL     1      16.809   5.965  12.729  1.00  0.00    -0.192 OA
HETATM   27  O6  UNL     1      16.282   5.108  13.606  1.00  0.00    -0.195 OA
ENDROOT
BRANCH  25  28
HETATM   28  O4  UNL     1      19.424   5.414  14.614  1.00  0.00    -0.390 OA
ATOM     29  H4  UNL     1      19.080   5.628  15.473  1.00  0.00     0.210 HD
ENDBRANCH  25  28
BRANCH  23  30
HETATM   30  O3  UNL     1      20.514   8.686  11.294  1.00  0.00    -0.395 OA
ATOM     31  H3  UNL     1      21.325   8.212  11.435  1.00  0.00     0.210 HD
ENDBRANCH  23  30
TORSDOF 2
ENDMDL