MODEL 3
REMARK VINA RESULT: -7.041615820      2.487      2.795
REMARK  1 active torsions:
REMARK  status: ('A' for Active; 'I' for Inactive)
REMARK    1  A    between atoms: C14_19  and  O2_20
ROOT
HETATM    1  C1  UNL     1       9.310   3.269  12.757  1.00  0.00     0.012 C
HETATM    2  C2  UNL     1      10.779   3.288  13.022  1.00  0.00     0.010 C
HETATM    3  C3  UNL     1      11.126   4.600  13.679  1.00  0.00     0.172 C
HETATM    4  O1  UNL     1      10.776   4.662  14.997  1.00  0.00    -0.385 OA
HETATM    5  C4  UNL     1      11.202   3.626  15.783  1.00  0.00     0.126 C
HETATM    6  C5  UNL     1      12.683   3.545  15.877  1.00  0.00     0.035 C
HETATM    7  C6  UNL     1      13.230   2.254  16.356  1.00  0.00     0.045 C
HETATM    8  C7  UNL     1      12.177   1.353  17.012  1.00  0.00     0.109 C
HETATM    9  C8  UNL     1      12.869   0.117  17.475  1.00  0.00     0.118 C
HETATM   10  S1  UNL     1      12.440  -0.266  19.226  1.00  0.00    -0.123 SA
HETATM   11  C9  UNL     1      12.556   1.366  20.065  1.00  0.00     0.170 C
HETATM   12  C10 UNL     1      11.197   1.786  20.584  1.00  0.00     0.286 C
HETATM   13  N1  UNL     1      11.020   1.424  21.976  1.00  0.00    -0.061 N
ATOM     14  H11 UNL     1      11.062   0.412  22.102  1.00  0.00     0.278 HD
ATOM     15  H12 UNL     1      10.059   1.586  22.279  1.00  0.00     0.278 HD
HETATM   16  C11 UNL     1      11.957   2.095  22.840  1.00  0.00     0.144 C
HETATM   17  C12 UNL     1      12.208   1.229  24.070  1.00  0.00     0.048 C
HETATM   18  C13 UNL     1      11.327   3.388  23.372  1.00  0.00     0.048 C
HETATM   19  C14 UNL     1      13.252   2.445  22.137  1.00  0.00     0.157 C
HETATM   20  C15 UNL     1      13.618   1.386  21.102  1.00  0.00     0.088 C
HETATM   21  O3  UNL     1      12.833   2.242  18.984  1.00  0.00    -0.216 OA
HETATM   22  O4  UNL     1      11.808   2.069  18.178  1.00  0.00    -0.227 OA
HETATM   23  C16 UNL     1      10.967   1.162  16.186  1.00  0.00     0.035 C
HETATM   24  C17 UNL     1      10.893  -0.159  15.450  1.00  0.00    -0.011 C
HETATM   25  C18 UNL     1      10.168  -1.217  16.276  1.00  0.00     0.010 C
HETATM   26  C19 UNL     1       9.991   0.075  14.227  1.00  0.00     0.005 C
HETATM   27  C20 UNL     1      10.725   0.864  13.200  1.00  0.00     0.006 C
HETATM   28  C21 UNL     1      11.250   2.121  13.873  1.00  0.00    -0.002 C
HETATM   29  C22 UNL     1      10.690   2.310  15.243  1.00  0.00     0.026 C
ENDROOT
BRANCH  19  30
HETATM   30  O2  UNL     1      14.266   2.601  23.070  1.00  0.00    -0.393 OA
ATOM     31  H2  UNL     1      14.605   3.487  23.031  1.00  0.00     0.210 HD
ENDBRANCH  19  30
TORSDOF 1
ENDMDL