MODEL 5
REMARK VINA RESULT: -7.060653144      1.822      2.481
REMARK  2 active torsions:
REMARK  status: ('A' for Active; 'I' for Inactive)
REMARK    1  A    between atoms: C6_6  and  O1_7
REMARK    2  A    between atoms: C21_25  and  N1_26
ROOT
HETATM    1  C1  UNL     1      14.994   2.606  14.771  1.00  0.00     0.016 C
HETATM    2  C2  UNL     1      13.546   3.071  14.964  1.00  0.00    -0.032 C
HETATM    3  C3  UNL     1      13.467   4.472  14.450  1.00  0.00     0.011 C
HETATM    4  C4  UNL     1      12.054   4.984  14.361  1.00  0.00     0.008 C
HETATM    5  C5  UNL     1      11.321   4.137  13.367  1.00  0.00     0.019 C
HETATM    6  C6  UNL     1       9.838   4.455  13.312  1.00  0.00     0.122 C
HETATM    7  C7  UNL     1       9.118   3.276  13.946  1.00  0.00     0.032 C
HETATM    8  C8  UNL     1      10.240   2.537  14.692  1.00  0.00     0.008 C
HETATM    9  C9  UNL     1      11.365   2.700  13.732  1.00  0.00    -0.003 C
HETATM   10  C10 UNL     1      12.686   2.155  14.141  1.00  0.00     0.002 C
HETATM   11  C11 UNL     1      12.505   0.789  14.719  1.00  0.00     0.033 C
HETATM   12  C12 UNL     1      12.546   0.695  16.184  1.00  0.00    -0.018 C
HETATM   13  C13 UNL     1      12.877   1.719  16.938  1.00  0.00    -0.012 C
HETATM   14  C14 UNL     1      13.236   3.052  16.411  1.00  0.00     0.028 C
HETATM   15  C15 UNL     1      14.362   3.484  17.319  1.00  0.00     0.016 C
HETATM   16  C16 UNL     1      14.336   2.592  18.524  1.00  0.00     0.080 C
HETATM   17  C17 UNL     1      13.012   1.889  18.428  1.00  0.00     0.253 C
HETATM   18  O2  UNL     1      12.970   0.686  19.089  1.00  0.00    -0.190 OA
HETATM   19  O3  UNL     1      11.873   0.549  19.802  1.00  0.00    -0.194 OA
HETATM   20  C18 UNL     1      11.906   1.511  20.821  1.00  0.00     0.230 C
HETATM   21  C19 UNL     1      12.983   1.085  21.789  1.00  0.00     0.076 C
HETATM   22  C20 UNL     1      12.900   1.804  23.106  1.00  0.00     0.038 C
HETATM   23  C21 UNL     1      11.502   1.635  23.691  1.00  0.00     0.183 C
HETATM   24  C22 UNL     1      10.561   2.353  22.726  1.00  0.00     0.038 C
HETATM   25  C23 UNL     1      10.543   1.550  21.456  1.00  0.00     0.076 C
HETATM   26  O4  UNL     1      12.159   2.735  20.239  1.00  0.00    -0.194 OA
HETATM   27  O5  UNL     1      12.030   2.729  18.929  1.00  0.00    -0.190 OA
ENDROOT
BRANCH  23  28
HETATM   28  N1  UNL     1      11.161   0.221  23.633  1.00  0.00    -0.075 N
ATOM     29  H13 UNL     1      11.294  -0.180  22.704  1.00  0.00     0.274 HD
ATOM     30  H12 UNL     1      11.828  -0.367  24.132  1.00  0.00     0.274 HD
ATOM     31  H11 UNL     1      10.206   0.115  23.975  1.00  0.00     0.274 HD
ENDBRANCH  23  28
BRANCH   6  32
HETATM   32  O1  UNL     1       9.455   4.499  11.972  1.00  0.00    -0.395 OA
ATOM     33  H1  UNL     1       8.591   4.112  11.900  1.00  0.00     0.210 HD
ENDBRANCH   6  32
TORSDOF 2
ENDMDL