MODEL 1
REMARK VINA RESULT: -8.188722640      0.000      0.000
REMARK  3 active torsions:
REMARK  status: ('A' for Active; 'I' for Inactive)
REMARK    1  A    between atoms: C8_8  and  O1_9
REMARK    2  A    between atoms: C13_15  and  C14_16
REMARK    3  A    between atoms: C18_20  and  O2_21
ROOT
HETATM    1  C1  UNL     1      11.746   0.006  16.673  1.00  0.00     0.015 C
HETATM    2  C2  UNL     1      12.461   1.348  16.539  1.00  0.00    -0.047 C
HETATM    3  C3  UNL     1      13.888   1.153  16.954  1.00  0.00     0.015 C
HETATM    4  C4  UNL     1      11.821   2.331  17.461  1.00  0.00     0.010 C
HETATM    5  C5  UNL     1      11.034   3.264  16.579  1.00  0.00     0.019 C
HETATM    6  C6  UNL     1      11.709   3.237  15.222  1.00  0.00     0.054 C
HETATM    7  C7  UNL     1      12.323   1.905  15.122  1.00  0.00     0.027 C
HETATM    8  C8  UNL     1      12.849   4.264  15.374  1.00  0.00     0.209 C
HETATM    9  C9  UNL     1      12.476   5.353  14.361  1.00  0.00     0.116 C
HETATM   10  C10 UNL     1      11.942   4.467  13.322  1.00  0.00     0.133 C
HETATM   11  C11 UNL     1      11.211   4.990  12.193  1.00  0.00     0.045 C
HETATM   12  C12 UNL     1      10.443   3.721  11.783  1.00  0.00     0.011 C
HETATM   13  C13 UNL     1      10.353   2.881  13.047  1.00  0.00     0.032 C
HETATM   14  C18 UNL     1      10.844   3.708  14.111  1.00  0.00     0.109 C
HETATM   15  O3  UNL     1      12.848   3.508  12.934  1.00  0.00    -0.223 OA
HETATM   16  O4  UNL     1      13.825   3.954  12.216  1.00  0.00    -0.197 OA
HETATM   17  C19 UNL     1      14.982   4.131  12.941  1.00  0.00     0.229 C
HETATM   18  C20 UNL     1      15.785   5.224  12.232  1.00  0.00     0.074 C
HETATM   19  C21 UNL     1      17.215   4.864  12.470  1.00  0.00     0.006 C
HETATM   20  C22 UNL     1      17.185   3.343  12.301  1.00  0.00     0.006 C
HETATM   21  C23 UNL     1      15.853   2.909  12.861  1.00  0.00     0.074 C
HETATM   22  O5  UNL     1      14.774   4.576  14.235  1.00  0.00    -0.195 OA
HETATM   23  O6  UNL     1      14.070   3.767  14.959  1.00  0.00    -0.197 OA
ENDROOT
BRANCH   8  24
HETATM   24  O1  UNL     1      12.997   4.763  16.631  1.00  0.00    -0.362 OA
ATOM     25  H1  UNL     1      13.139   5.701  16.670  1.00  0.00     0.213 HD
ENDBRANCH   8  24
BRANCH  14  26
HETATM   26  O2  UNL     1       9.920   4.599  14.628  1.00  0.00    -0.385 OA
ATOM     27  H2  UNL     1       9.794   4.398  15.548  1.00  0.00     0.210 HD
ENDBRANCH  14  26
BRANCH  13  28
HETATM   28  C14 UNL     1       9.029   2.235  13.070  1.00  0.00    -0.045 C
HETATM   29  C15 UNL     1       8.972   1.185  14.207  1.00  0.00     0.015 C
HETATM   30  C16 UNL     1       8.667   1.384  11.867  1.00  0.00     0.015 C
HETATM   31  C17 UNL     1       7.844   3.114  13.289  1.00  0.00     0.015 C
ENDBRANCH  13  28
TORSDOF 3
ENDMDL