MODEL 5
REMARK VINA RESULT: -7.085191348      1.535      1.917
REMARK  2 active torsions:
REMARK  status: ('A' for Active; 'I' for Inactive)
REMARK    1  A    between atoms: C15_17  and  O3_19
REMARK    2  A    between atoms: C19_23  and  O4_24
ROOT
HETATM    1  C1  UNL     1      13.971  -0.146  21.692  1.00  0.00     0.015 C
HETATM    2  C2  UNL     1      14.300   0.623  20.399  1.00  0.00     0.037 C
HETATM    3  C3  UNL     1      15.486   1.464  20.689  1.00  0.00     0.014 C
HETATM    4  C4  UNL     1      16.429   1.694  19.571  1.00  0.00     0.072 C
HETATM    5  C5  UNL     1      16.094   0.994  18.290  1.00  0.00     0.196 C
HETATM    6  C6  UNL     1      17.393   0.806  17.493  1.00  0.00     0.082 C
HETATM    7  O1  UNL     1      15.271   1.757  17.529  1.00  0.00    -0.198 OA
HETATM    8  O2  UNL     1      14.094   2.016  17.998  1.00  0.00    -0.197 OA
HETATM    9  C7  UNL     1      13.224   1.021  17.674  1.00  0.00     0.204 C
HETATM   10  C8  UNL     1      11.756   1.381  17.904  1.00  0.00     0.073 C
HETATM   11  C9  UNL     1      11.129   0.252  17.070  1.00  0.00     0.015 C
HETATM   12  C10 UNL     1      11.976   0.044  15.887  1.00  0.00    -0.028 C
HETATM   13  C11 UNL     1      12.403  -1.426  15.760  1.00  0.00     0.016 C
HETATM   14  C12 UNL     1      11.386   0.420  14.555  1.00  0.00     0.033 C
HETATM   15  C13 UNL     1      10.480  -0.587  13.953  1.00  0.00     0.012 C
HETATM   16  C14 UNL     1       9.018  -0.329  13.987  1.00  0.00     0.042 C
HETATM   17  C15 UNL     1       8.523   0.500  12.809  1.00  0.00     0.072 C
HETATM   18  C16 UNL     1       7.199   1.096  13.206  1.00  0.00     0.050 C
HETATM   19  C17 UNL     1       9.516   1.513  12.386  1.00  0.00     0.009 C
HETATM   20  C18 UNL     1      10.493   2.063  13.058  1.00  0.00     0.010 C
HETATM   21  C19 UNL     1      10.919   1.848  14.464  1.00  0.00     0.080 C
HETATM   22  C20 UNL     1      12.011   2.785  14.869  1.00  0.00     0.043 C
HETATM   23  C21 UNL     1      13.231   2.188  15.436  1.00  0.00     0.014 C
HETATM   24  C22 UNL     1      13.176   0.912  16.137  1.00  0.00     0.060 C
HETATM   25  O5  UNL     1      13.423  -0.173  18.282  1.00  0.00    -0.322 OA
HETATM   26  C23 UNL     1      14.402  -0.282  19.224  1.00  0.00     0.271 C
HETATM   27  O6  UNL     1      15.637  -0.260  18.590  1.00  0.00    -0.322 OA
ENDROOT
BRANCH  21  28
HETATM   28  O4  UNL     1       9.800   2.128  15.239  1.00  0.00    -0.385 OA
ATOM     29  H4  UNL     1       9.225   1.384  15.371  1.00  0.00     0.211 HD
ENDBRANCH  21  28
BRANCH  17  30
HETATM   30  O3  UNL     1       8.292  -0.325  11.708  1.00  0.00    -0.386 OA
ATOM     31  H3  UNL     1       7.424  -0.707  11.764  1.00  0.00     0.211 HD
ENDBRANCH  17  30
TORSDOF 2
ENDMDL