MODEL 3
REMARK VINA RESULT: -7.359926141      1.986      2.929
REMARK  2 active torsions:
REMARK  status: ('A' for Active; 'I' for Inactive)
REMARK    1  A    between atoms: C5_5  and  O1_6
REMARK    2  A    between atoms: C13_17  and  O4_18
ROOT
HETATM    1  C1  UNL     1      10.173   0.501  21.090  1.00  0.00     0.015 C
HETATM    2  C2  UNL     1      11.608   0.127  20.897  1.00  0.00     0.047 C
HETATM    3  C3  UNL     1      12.300   0.218  22.237  1.00  0.00     0.014 C
HETATM    4  C4  UNL     1      12.487   1.631  22.647  1.00  0.00     0.061 C
HETATM    5  C5  UNL     1      12.051   2.659  21.684  1.00  0.00     0.260 C
HETATM    6  O2  UNL     1      12.199   2.403  20.368  1.00  0.00    -0.322 OA
HETATM    7  C6  UNL     1      12.268   1.105  19.974  1.00  0.00     0.203 C
HETATM    8  C7  UNL     1      13.752   0.752  19.804  1.00  0.00     0.072 C
HETATM    9  C8  UNL     1      14.341   1.788  18.901  1.00  0.00     0.013 C
HETATM   10  C9  UNL     1      13.913   1.686  17.477  1.00  0.00     0.022 C
HETATM   11  C10 UNL     1      14.026   0.266  17.002  1.00  0.00     0.013 C
HETATM   12  C11 UNL     1      12.595   2.323  17.186  1.00  0.00     0.130 C
HETATM   13  C12 UNL     1      12.793   3.839  17.318  1.00  0.00     0.213 C
HETATM   14  O3  UNL     1      12.838   4.338  16.051  1.00  0.00    -0.351 OA
HETATM   15  C13 UNL     1      12.224   3.486  15.183  1.00  0.00     0.172 C
HETATM   16  C14 UNL     1      10.696   3.441  15.263  1.00  0.00     0.054 C
HETATM   17  C15 UNL     1      10.050   3.871  14.011  1.00  0.00     0.011 C
HETATM   18  C16 UNL     1       9.003   2.994  13.451  1.00  0.00     0.005 C
HETATM   19  C17 UNL     1       8.929   1.620  14.004  1.00  0.00    -0.010 C
HETATM   20  C18 UNL     1       8.203   0.669  13.107  1.00  0.00     0.011 C
HETATM   21  C19 UNL     1      10.298   1.108  14.420  1.00  0.00    -0.040 C
HETATM   22  C20 UNL     1      11.156   0.993  13.214  1.00  0.00     0.015 C
HETATM   23  C21 UNL     1      10.121  -0.303  14.994  1.00  0.00     0.015 C
HETATM   24  C22 UNL     1      10.788   1.980  15.504  1.00  0.00     0.015 C
HETATM   25  C23 UNL     1      12.253   2.102  15.726  1.00  0.00     0.094 C
HETATM   26  O5  UNL     1      11.577   1.982  18.027  1.00  0.00    -0.223 OA
HETATM   27  O6  UNL     1      11.714   0.892  18.689  1.00  0.00    -0.199 OA
ENDROOT
BRANCH  15  28
HETATM   28  O4  UNL     1      12.700   3.664  13.889  1.00  0.00    -0.364 OA
ATOM     29  H4  UNL     1      13.363   3.017  13.679  1.00  0.00     0.213 HD
ENDBRANCH  15  28
BRANCH   5  30
HETATM   30  O1  UNL     1      12.777   3.841  21.975  1.00  0.00    -0.371 OA
ATOM     31  H1  UNL     1      12.239   4.366  22.555  1.00  0.00     0.212 HD
ENDBRANCH   5  30
TORSDOF 2
ENDMDL