MODEL 1
REMARK VINA RESULT: -8.077940644      0.000      0.000
REMARK  1 active torsions:
REMARK  status: ('A' for Active; 'I' for Inactive)
REMARK    1  A    between atoms: C15_19  and  O5_20
ROOT
HETATM    1  C1  UNL     1      15.189  -1.025  21.206  1.00  0.00     0.012 C
HETATM    2  C2  UNL     1      13.783  -0.475  21.348  1.00  0.00     0.006 C
HETATM    3  C3  UNL     1      13.211  -0.257  20.015  1.00  0.00     0.178 C
HETATM    4  O1  UNL     1      12.417   0.852  19.861  1.00  0.00    -0.332 OA
HETATM    5  C4  UNL     1      13.219   1.868  19.292  1.00  0.00     0.283 C
HETATM    6  C5  UNL     1      14.325   2.108  20.282  1.00  0.00     0.106 C
HETATM    7  C6  UNL     1      13.889   2.027  21.709  1.00  0.00    -0.011 C
HETATM    8  C7  UNL     1      12.600   2.828  21.946  1.00  0.00     0.010 C
HETATM    9  C8  UNL     1      13.796   0.677  22.285  1.00  0.00     0.011 C
HETATM   10  O2  UNL     1      13.733   1.460  18.060  1.00  0.00    -0.321 OA
HETATM   11  C9  UNL     1      12.916   2.045  17.090  1.00  0.00     0.197 C
HETATM   12  C10 UNL     1      13.667   2.173  15.816  1.00  0.00     0.230 C
HETATM   13  O3  UNL     1      13.540   0.993  15.056  1.00  0.00    -0.229 OA
HETATM   14  O4  UNL     1      13.046   1.616  14.022  1.00  0.00    -0.225 OA
HETATM   15  C11 UNL     1      12.969   2.846  14.712  1.00  0.00     0.135 C
HETATM   16  C12 UNL     1      13.717   3.889  13.945  1.00  0.00     0.025 C
HETATM   17  C13 UNL     1      14.835   3.235  13.124  1.00  0.00     0.013 C
HETATM   18  C14 UNL     1      12.846   4.637  12.994  1.00  0.00     0.039 C
HETATM   19  C15 UNL     1      11.678   3.840  12.525  1.00  0.00     0.127 C
HETATM   20  C16 UNL     1      10.810   3.320  13.619  1.00  0.00    -0.015 C
HETATM   21  C17 UNL     1      10.333   1.925  13.192  1.00  0.00     0.018 C
HETATM   22  C18 UNL     1       9.569   4.171  13.731  1.00  0.00     0.018 C
HETATM   23  C19 UNL     1      11.539   3.194  14.950  1.00  0.00     0.037 C
HETATM   24  C20 UNL     1      11.349   4.383  15.833  1.00  0.00     0.011 C
HETATM   25  C21 UNL     1      11.316   3.961  17.277  1.00  0.00     0.041 C
HETATM   26  C22 UNL     1      12.596   3.367  17.750  1.00  0.00     0.092 C
HETATM   27  C23 UNL     1      13.763   4.285  17.724  1.00  0.00     0.049 C
HETATM   28  O6  UNL     1      12.407   2.954  19.080  1.00  0.00    -0.319 OA
ENDROOT
BRANCH  19  29
HETATM   29  O5  UNL     1      10.919   4.634  11.662  1.00  0.00    -0.395 OA
ATOM     30  H5  UNL     1      10.554   4.077  10.985  1.00  0.00     0.210 HD
ENDBRANCH  19  29
TORSDOF 1
ENDMDL