MODEL 3
REMARK VINA RESULT: -7.510046273      2.299      4.120
REMARK  2 active torsions:
REMARK  status: ('A' for Active; 'I' for Inactive)
REMARK    1  A    between atoms: N1_19  and  O4_21
REMARK    2  A    between atoms: C20_27  and  O5_28
ROOT
HETATM    1  C1  UNL     1      15.890  -0.338  18.071  1.00  0.00     0.050 C
HETATM    2  C2  UNL     1      14.709   0.449  18.675  1.00  0.00     0.097 C
HETATM    3  C3  UNL     1      15.098   0.705  20.085  1.00  0.00     0.041 C
HETATM    4  C4  UNL     1      15.446   2.146  20.145  1.00  0.00     0.004 C
HETATM    5  C5  UNL     1      15.039   2.796  18.871  1.00  0.00     0.008 C
HETATM    6  C6  UNL     1      14.455   1.731  17.953  1.00  0.00     0.028 C
HETATM    7  C7  UNL     1      13.071   2.125  17.651  1.00  0.00     0.006 C
HETATM    8  C8  UNL     1      12.112   1.706  18.783  1.00  0.00     0.016 C
HETATM    9  C9  UNL     1      11.294   0.678  18.217  1.00  0.00     0.050 C
HETATM   10  C10 UNL     1      11.038  -0.640  18.765  1.00  0.00     0.175 C
HETATM   11  O1  UNL     1      11.168  -1.545  17.679  1.00  0.00    -0.388 OA
HETATM   12  C11 UNL     1      11.166  -0.734  16.501  1.00  0.00     0.210 C
HETATM   13  C12 UNL     1      12.050   0.298  16.929  1.00  0.00     0.132 C
HETATM   14  O2  UNL     1      13.259  -0.371  17.262  1.00  0.00    -0.225 OA
HETATM   15  O3  UNL     1      13.597  -0.344  18.485  1.00  0.00    -0.229 OA
HETATM   16  C13 UNL     1      12.435   1.558  16.377  1.00  0.00     0.014 C
HETATM   17  C14 UNL     1      13.477   1.252  15.303  1.00  0.00     0.069 C
HETATM   18  C15 UNL     1      13.774   2.528  14.710  1.00  0.00     0.019 C
HETATM   19  N1  UNL     1      14.888   3.002  14.336  1.00  0.00    -0.277 N
ATOM     20  H1  UNL     1      14.885   3.940  13.935  1.00  0.00     0.193 HD
HETATM   21  C16 UNL     1      12.459   3.197  14.616  1.00  0.00     0.005 C
HETATM   22  C17 UNL     1      12.656   4.642  14.862  1.00  0.00     0.022 C
HETATM   23  C18 UNL     1      12.000   2.961  13.196  1.00  0.00     0.018 C
HETATM   24  C19 UNL     1      10.629   3.526  13.062  1.00  0.00     0.033 C
HETATM   25  C20 UNL     1       9.737   2.704  13.911  1.00  0.00     0.119 C
HETATM   26  C21 UNL     1      10.430   1.816  14.906  1.00  0.00     0.042 C
HETATM   27  C22 UNL     1      11.571   2.491  15.647  1.00  0.00    -0.018 C
HETATM   28  C23 UNL     1      10.918   3.609  16.406  1.00  0.00     0.017 C
ENDROOT
BRANCH  19  29
HETATM   29  O4  UNL     1      16.099   2.360  14.424  1.00  0.00    -0.290 OA
ATOM     30  H4  UNL     1      16.445   1.745  13.787  1.00  0.00     0.244 HD
ENDBRANCH  19  29
BRANCH  25  31
HETATM   31  O5  UNL     1       9.032   1.831  13.045  1.00  0.00    -0.396 OA
ATOM     32  H5  UNL     1       9.419   0.969  13.145  1.00  0.00     0.210 HD
ENDBRANCH  25  31
TORSDOF 2
ENDMDL