MODEL 2
REMARK VINA RESULT: -7.040361766      2.127      4.639
REMARK  1 active torsions:
REMARK  status: ('A' for Active; 'I' for Inactive)
REMARK    1  A    between atoms: C9_14  and  O2_16
ROOT
HETATM    1  C1  UNL     1      13.236   5.226  14.598  1.00  0.00     0.016 C
HETATM    2  C2  UNL     1      13.325   3.847  15.161  1.00  0.00     0.057 C
HETATM    3  C3  UNL     1      14.066   2.991  14.116  1.00  0.00     0.128 C
HETATM    4  C4  UNL     1      14.021   3.604  12.758  1.00  0.00     0.046 C
HETATM    5  C5  UNL     1      15.499   2.776  14.493  1.00  0.00     0.046 C
HETATM    6  N1  UNL     1      13.369   1.706  14.063  1.00  0.00    -0.029 N
ATOM      7  H11 UNL     1      13.983   0.893  14.015  1.00  0.00     0.281 HD
ATOM      8  H12 UNL     1      12.883   1.524  13.186  1.00  0.00     0.281 HD
HETATM    9  C6  UNL     1      12.526   1.744  15.210  1.00  0.00     0.285 C
HETATM   10  O1  UNL     1      13.399   1.674  16.330  1.00  0.00    -0.259 OA
HETATM   11  N2  UNL     1      12.984   0.726  17.120  1.00  0.00    -0.193 NA
HETATM   12  C7  UNL     1      12.427  -0.284  16.195  1.00  0.00     0.133 C
HETATM   13  C8  UNL     1      11.604   0.608  15.359  1.00  0.00     0.105 C
HETATM   14  C9  UNL     1      11.096   0.254  14.023  1.00  0.00     0.085 C
HETATM   15  C10 UNL     1      10.056  -0.849  14.191  1.00  0.00     0.049 C
HETATM   16  C11 UNL     1      10.336   1.522  13.563  1.00  0.00     0.209 C
HETATM   17  O3  UNL     1       9.696   2.216  14.496  1.00  0.00    -0.358 OA
HETATM   18  C12 UNL     1      10.216   3.469  14.927  1.00  0.00     0.268 C
HETATM   19  O4  UNL     1      11.329   3.587  14.106  1.00  0.00    -0.344 OA
HETATM   20  C13 UNL     1      12.028   3.103  15.187  1.00  0.00     0.138 C
HETATM   21  C14 UNL     1      10.985   3.282  16.167  1.00  0.00     0.081 C
HETATM   22  C15 UNL     1      11.449   4.122  17.224  1.00  0.00     0.013 C
HETATM   23  C16 UNL     1      11.415   3.462  18.577  1.00  0.00     0.011 C
HETATM   24  C17 UNL     1      12.266   2.322  18.913  1.00  0.00    -0.026 C
HETATM   25  C18 UNL     1      11.752   2.029  20.361  1.00  0.00     0.011 C
HETATM   26  C19 UNL     1      12.620   1.123  21.125  1.00  0.00     0.001 C
HETATM   27  C20 UNL     1      14.089   1.396  21.091  1.00  0.00     0.000 C
HETATM   28  C21 UNL     1      14.566   1.732  19.722  1.00  0.00     0.001 C
HETATM   29  C22 UNL     1      13.672   2.808  19.175  1.00  0.00     0.011 C
HETATM   30  C23 UNL     1      12.171   1.031  18.231  1.00  0.00     0.130 C
ENDROOT
BRANCH  14  31
HETATM   31  O2  UNL     1      12.018  -0.132  13.088  1.00  0.00    -0.387 OA
ATOM     32  H2  UNL     1      11.698  -0.630  12.345  1.00  0.00     0.210 HD
ENDBRANCH  14  31
TORSDOF 1
ENDMDL