MODEL 1
REMARK VINA RESULT: -7.754302795      0.000      0.000
REMARK  2 active torsions:
REMARK  status: ('A' for Active; 'I' for Inactive)
REMARK    1  A    between atoms: C7_8  and  O2_9
REMARK    2  A    between atoms: N1_19  and  O4_21
ROOT
HETATM    1  C1  UNL     1       8.716  -1.096  12.869  1.00  0.00     0.048 C
HETATM    2  C2  UNL     1       8.632   0.383  12.550  1.00  0.00     0.079 C
HETATM    3  C3  UNL     1       8.286   0.545  11.093  1.00  0.00     0.048 C
HETATM    4  C4  UNL     1       7.705   1.120  13.461  1.00  0.00     0.209 C
HETATM    5  O1  UNL     1       8.587   1.691  14.404  1.00  0.00    -0.351 OA
HETATM    6  C5  UNL     1       9.649   2.047  13.614  1.00  0.00     0.177 C
HETATM    7  C6  UNL     1       9.434   3.384  12.917  1.00  0.00     0.103 C
HETATM    8  C7  UNL     1      10.139   4.425  13.756  1.00  0.00     0.153 C
HETATM    9  C8  UNL     1      10.609   3.667  14.995  1.00  0.00     0.164 C
HETATM   10  O3  UNL     1      11.664   4.310  15.518  1.00  0.00    -0.377 OA
HETATM   11  C9  UNL     1      12.252   3.812  16.640  1.00  0.00     0.127 C
HETATM   12  C10 UNL     1      11.357   3.747  17.851  1.00  0.00     0.033 C
HETATM   13  C11 UNL     1      11.761   2.735  18.865  1.00  0.00     0.018 C
HETATM   14  C12 UNL     1      13.211   2.445  18.959  1.00  0.00     0.004 C
HETATM   15  C13 UNL     1      13.900   3.384  19.959  1.00  0.00     0.022 C
HETATM   16  C14 UNL     1      13.380   1.079  19.514  1.00  0.00     0.019 C
HETATM   17  N1  UNL     1      12.717   0.618  20.513  1.00  0.00    -0.277 N
ATOM     18  H1  UNL     1      12.029   1.229  20.956  1.00  0.00     0.193 HD
HETATM   19  C15 UNL     1      14.408   0.324  18.763  1.00  0.00     0.056 C
HETATM   20  C16 UNL     1      14.812   1.206  17.622  1.00  0.00     0.016 C
HETATM   21  C17 UNL     1      13.977   2.464  17.694  1.00  0.00    -0.025 C
HETATM   22  C18 UNL     1      14.953   3.640  17.638  1.00  0.00     0.016 C
HETATM   23  C19 UNL     1      13.092   2.590  16.446  1.00  0.00     0.024 C
HETATM   24  C20 UNL     1      12.440   1.337  16.116  1.00  0.00     0.009 C
HETATM   25  C21 UNL     1      11.091   1.357  15.522  1.00  0.00     0.018 C
HETATM   26  C22 UNL     1      10.917   2.316  14.385  1.00  0.00     0.041 C
HETATM   27  C23 UNL     1      12.053   2.336  13.423  1.00  0.00     0.024 C
HETATM   28  O5  UNL     1       9.880   1.017  12.737  1.00  0.00    -0.342 OA
ENDROOT
BRANCH   8  29
HETATM   29  O2  UNL     1      11.188   5.034  13.105  1.00  0.00    -0.393 OA
ATOM     30  H2  UNL     1      11.801   5.461  13.692  1.00  0.00     0.210 HD
ENDBRANCH   8  29
BRANCH  17  31
HETATM   31  O4  UNL     1      12.876  -0.637  21.018  1.00  0.00    -0.290 OA
ATOM     32  H4  UNL     1      13.721  -1.046  21.165  1.00  0.00     0.244 HD
ENDBRANCH  17  31
TORSDOF 2
ENDMDL