MODEL 3
REMARK VINA RESULT: -7.027733938      1.524      2.324
REMARK  3 active torsions:
REMARK  status: ('A' for Active; 'I' for Inactive)
REMARK    1  A    between atoms: C4_5  and  O2_6
REMARK    2  A    between atoms: C12_15  and  O3_16
REMARK    3  A    between atoms: C21_28  and  O6_29
ROOT
HETATM    1  C1  UNL     1     -11.427  -4.078  -4.642  1.00  0.00     0.048 C
HETATM    2  C2  UNL     1     -10.885  -3.855  -6.067  1.00  0.00     0.084 C
HETATM    3  C3  UNL     1      -9.919  -5.040  -6.231  1.00  0.00     0.048 C
HETATM    4  O1  UNL     1     -11.879  -3.818  -6.944  1.00  0.00    -0.342 OA
HETATM    5  C4  UNL     1     -11.771  -3.798  -8.249  1.00  0.00     0.174 C
HETATM    6  C5  UNL     1     -10.532  -3.403  -8.948  1.00  0.00     0.070 C
HETATM    7  C6  UNL     1     -10.199  -1.960  -8.870  1.00  0.00     0.011 C
HETATM    8  C7  UNL     1     -11.186  -1.240  -7.967  1.00  0.00     0.008 C
HETATM    9  C8  UNL     1     -10.742  -1.339  -6.575  1.00  0.00    -0.011 C
HETATM   10  C9  UNL     1      -9.507  -0.393  -6.447  1.00  0.00     0.018 C
HETATM   11  C10 UNL     1     -11.715  -0.697  -5.604  1.00  0.00     0.014 C
HETATM   12  C11 UNL     1     -13.140  -0.868  -5.920  1.00  0.00     0.033 C
HETATM   13  C12 UNL     1     -13.531  -0.871  -7.357  1.00  0.00     0.127 C
HETATM   14  C13 UNL     1     -12.627  -1.514  -8.341  1.00  0.00     0.002 C
HETATM   15  C14 UNL     1     -12.856  -0.579  -9.568  1.00  0.00     0.019 C
HETATM   16  C15 UNL     1     -12.908  -2.900  -8.812  1.00  0.00     0.064 C
HETATM   17  C16 UNL     1     -12.764  -3.063 -10.327  1.00  0.00     0.045 C
HETATM   18  C17 UNL     1     -13.989  -2.764 -11.132  1.00  0.00     0.172 C
HETATM   19  O4  UNL     1     -15.182  -2.842 -10.495  1.00  0.00    -0.358 OA
HETATM   20  C18 UNL     1     -15.250  -3.632  -9.408  1.00  0.00     0.296 A
HETATM   21  O5  UNL     1     -14.429  -4.711  -9.392  1.00  0.00    -0.342 OA
HETATM   22  C19 UNL     1     -14.164  -3.577  -8.408  1.00  0.00     0.123 A
HETATM   23  C20 UNL     1     -14.386  -4.321  -7.126  1.00  0.00     0.052 C
HETATM   24  C21 UNL     1     -10.138  -2.599  -6.063  1.00  0.00     0.160 C
ENDROOT
BRANCH   5  25
HETATM   25  O2  UNL     1     -12.102  -5.092  -8.735  1.00  0.00    -0.364 OA
ATOM     26  H2  UNL     1     -11.293  -5.537  -8.957  1.00  0.00     0.213 HD
ENDBRANCH   5  25
BRANCH  13  27
HETATM   27  O3  UNL     1     -14.861  -1.286  -7.435  1.00  0.00    -0.395 OA
ATOM     28  H3  UNL     1     -15.020  -1.586  -8.322  1.00  0.00     0.210 HD
ENDBRANCH  13  27
BRANCH  24  29
HETATM   29  O6  UNL     1      -9.699  -2.300  -4.744  1.00  0.00    -0.392 OA
ATOM     30  H6  UNL     1     -10.441  -2.286  -4.151  1.00  0.00     0.210 HD
ENDBRANCH  24  29
TORSDOF 3
ENDMDL