MODEL 4
REMARK VINA RESULT: -7.399458736      2.254      6.127
REMARK  4 active torsions:
REMARK  status: ('A' for Active; 'I' for Inactive)
REMARK    1  A    between atoms: O1_2  and  C2_3
REMARK    2  A    between atoms: C2_3  and  C3_5
REMARK    3  A    between atoms: C6_9  and  O4_10
REMARK    4  A    between atoms: C12_17  and  O5_18
ROOT
HETATM    1  C3  UNL     1     -10.117  -1.384  -6.586  1.00  0.00     0.043 C
HETATM    2  C4  UNL     1     -11.067  -0.278  -6.456  1.00  0.00     0.057 C
HETATM    3  C5  UNL     1     -10.418  -2.632  -6.813  1.00  0.00     0.066 C
HETATM    4  O3  UNL     1      -9.394  -3.631  -6.906  1.00  0.00    -0.323 OA
HETATM    5  C6  UNL     1      -9.825  -4.702  -7.669  1.00  0.00     0.270 C
HETATM    6  C7  UNL     1     -11.289  -4.463  -8.000  1.00  0.00     0.089 C
HETATM    7  C8  UNL     1     -11.631  -3.425  -7.028  1.00  0.00     0.055 C
HETATM    8  C9  UNL     1     -12.840  -2.632  -7.212  1.00  0.00     0.018 C
HETATM    9  C10 UNL     1     -14.104  -3.542  -7.226  1.00  0.00     0.011 C
HETATM   10  C11 UNL     1     -15.227  -2.855  -6.482  1.00  0.00     0.012 C
HETATM   11  C12 UNL     1     -14.567  -3.678  -8.662  1.00  0.00     0.124 C
HETATM   12  C13 UNL     1     -13.838  -4.800  -9.335  1.00  0.00     0.073 C
HETATM   13  C14 UNL     1     -12.660  -4.384 -10.135  1.00  0.00     0.094 C
HETATM   14  C15 UNL     1     -13.082  -3.171 -10.972  1.00  0.00     0.049 C
HETATM   15  O6  UNL     1     -12.480  -5.380 -11.130  1.00  0.00    -0.342 OA
HETATM   16  C16 UNL     1     -11.286  -5.973 -10.886  1.00  0.00     0.159 C
HETATM   17  C17 UNL     1     -10.455  -6.032 -12.175  1.00  0.00     0.078 C
HETATM   18  C18 UNL     1     -11.567  -7.414 -10.440  1.00  0.00     0.078 C
HETATM   19  O7  UNL     1     -10.579  -5.293  -9.966  1.00  0.00    -0.342 OA
HETATM   20  C19 UNL     1     -11.375  -4.230  -9.451  1.00  0.00     0.101 C
HETATM   21  C20 UNL     1     -10.593  -2.987  -9.900  1.00  0.00     0.050 C
ENDROOT
BRANCH   1  22
HETATM   22  C2  UNL     1      -8.673  -1.019  -6.426  1.00  0.00     0.291 C
HETATM   23  O2  UNL     1      -8.248  -0.614  -5.311  1.00  0.00    -0.260 OA
BRANCH  22  24
HETATM   24  O1  UNL     1      -7.785  -1.112  -7.477  1.00  0.00    -0.323 OA
HETATM   25  C1  UNL     1      -6.429  -1.398  -7.200  1.00  0.00     0.213 C
ENDBRANCH  22  24
ENDBRANCH   1  22
BRANCH   5  26
HETATM   26  O4  UNL     1      -9.638  -5.872  -6.943  1.00  0.00    -0.370 OA
ATOM     27  H4  UNL     1      -8.729  -5.922  -6.672  1.00  0.00     0.212 HD
ENDBRANCH   5  26
BRANCH  11  28
HETATM   28  O5  UNL     1     -15.948  -3.915  -8.655  1.00  0.00    -0.395 OA
ATOM     29  H5  UNL     1     -16.217  -4.125  -9.542  1.00  0.00     0.210 HD
ENDBRANCH  11  28
TORSDOF 4
ENDMDL