MODEL 2
REMARK VINA RESULT: -7.297852394      1.925      4.570
REMARK  3 active torsions:
REMARK  status: ('A' for Active; 'I' for Inactive)
REMARK    1  A    between atoms: C7_8  and  O2_9
REMARK    2  A    between atoms: C13_17  and  O4_19
REMARK    3  A    between atoms: C20_27  and  O6_28
ROOT
HETATM    1  C1  UNL     1     -12.277  -4.697  -9.094  1.00  0.00     0.018 C
HETATM    2  C2  UNL     1     -13.520  -3.993  -8.790  1.00  0.00    -0.017 C
HETATM    3  C3  UNL     1     -13.783  -4.129  -7.281  1.00  0.00     0.018 C
HETATM    4  C4  UNL     1     -14.667  -4.795  -9.429  1.00  0.00     0.178 C
HETATM    5  O1  UNL     1     -15.395  -3.876 -10.091  1.00  0.00    -0.377 OA
HETATM    6  C5  UNL     1     -14.505  -2.865 -10.563  1.00  0.00     0.090 C
HETATM    7  C6  UNL     1     -13.755  -3.603 -11.669  1.00  0.00     0.049 C
HETATM    8  C7  UNL     1     -15.359  -1.814 -11.158  1.00  0.00     0.155 C
HETATM    9  C8  UNL     1     -15.820  -0.667 -10.374  1.00  0.00     0.075 C
HETATM   10  C9  UNL     1     -15.214   0.657 -10.511  1.00  0.00     0.086 C
HETATM   11  C10 UNL     1     -16.249   1.755 -10.875  1.00  0.00     0.049 C
HETATM   12  O3  UNL     1     -14.642   1.215  -9.339  1.00  0.00    -0.372 OA
HETATM   13  C11 UNL     1     -13.736   0.355  -8.863  1.00  0.00     0.132 C
HETATM   14  C12 UNL     1     -12.894   0.840  -7.674  1.00  0.00     0.070 C
HETATM   15  C13 UNL     1     -12.031  -0.284  -7.258  1.00  0.00     0.065 C
HETATM   16  C14 UNL     1     -12.441  -0.599  -5.802  1.00  0.00     0.046 C
HETATM   17  C15 UNL     1     -11.887  -1.534  -8.014  1.00  0.00     0.079 C
HETATM   18  C16 UNL     1     -10.617  -1.635  -8.882  1.00  0.00     0.179 C
HETATM   19  O5  UNL     1     -11.399  -2.165  -9.867  1.00  0.00    -0.378 OA
HETATM   20  C17 UNL     1     -12.611  -1.682  -9.342  1.00  0.00     0.082 C
HETATM   21  C18 UNL     1     -12.781  -0.284  -9.800  1.00  0.00     0.053 C
HETATM   22  C19 UNL     1     -12.883   0.071 -11.236  1.00  0.00     0.045 C
HETATM   23  C20 UNL     1     -14.142   0.853 -11.548  1.00  0.00     0.153 C
HETATM   24  C21 UNL     1     -13.739  -2.611  -9.329  1.00  0.00     0.068 C
ENDROOT
BRANCH  15  25
HETATM   25  O4  UNL     1     -10.721   0.252  -7.110  1.00  0.00    -0.390 OA
ATOM     26  H4  UNL     1     -10.121  -0.472  -7.245  1.00  0.00     0.210 HD
ENDBRANCH  15  25
BRANCH  23  27
HETATM   27  O6  UNL     1     -14.560   0.777 -12.859  1.00  0.00    -0.393 OA
ATOM     28  H6  UNL     1     -14.258   0.017 -13.343  1.00  0.00     0.210 HD
ENDBRANCH  23  27
BRANCH   8  29
HETATM   29  O2  UNL     1     -16.492  -2.496 -11.715  1.00  0.00    -0.392 OA
ATOM     30  H2  UNL     1     -16.970  -1.843 -12.212  1.00  0.00     0.210 HD
ENDBRANCH   8  29
TORSDOF 3
ENDMDL