MODEL 5
REMARK VINA RESULT: -7.407827361      1.779      4.877
REMARK  4 active torsions:
REMARK  status: ('A' for Active; 'I' for Inactive)
REMARK    1  A    between atoms: C2_2  and  C4_4
REMARK    2  A    between atoms: C8_9  and  O2_10
REMARK    3  A    between atoms: C10_14  and  O4_15
REMARK    4  A    between atoms: C16_22  and  O5_23
ROOT
HETATM    1  C4  UNL     1     -14.253  -2.760  -7.146  1.00  0.00     0.133 C
HETATM    2  O1  UNL     1     -15.661  -2.826  -7.484  1.00  0.00    -0.379 OA
HETATM    3  C5  UNL     1     -15.919  -1.830  -8.365  1.00  0.00     0.132 A
HETATM    4  C6  UNL     1     -16.387  -2.129  -9.797  1.00  0.00     0.032 A
HETATM    5  C7  UNL     1     -15.672  -3.201 -10.479  1.00  0.00     0.034 A
HETATM    6  C8  UNL     1     -15.463  -3.706 -11.821  1.00  0.00     0.153 C
HETATM    7  C9  UNL     1     -14.042  -4.312 -11.885  1.00  0.00     0.162 C
HETATM    8  O3  UNL     1     -13.067  -3.563 -11.382  1.00  0.00    -0.343 OA
HETATM    9  C10 UNL     1     -12.355  -3.769 -10.293  1.00  0.00     0.198 C
HETATM   10  C11 UNL     1     -12.398  -5.138  -9.676  1.00  0.00     0.073 C
HETATM   11  C12 UNL     1     -13.498  -6.020 -10.118  1.00  0.00     0.017 C
HETATM   12  C13 UNL     1     -13.995  -5.768 -11.529  1.00  0.00    -0.019 C
HETATM   13  C14 UNL     1     -12.953  -6.455 -12.436  1.00  0.00     0.017 C
HETATM   14  C15 UNL     1     -15.253  -6.535 -11.706  1.00  0.00     0.017 C
HETATM   15  C16 UNL     1     -12.529  -2.695  -9.171  1.00  0.00     0.138 C
HETATM   16  C17 UNL     1     -12.278  -1.419  -9.929  1.00  0.00     0.013 C
HETATM   17  C18 UNL     1     -13.061  -0.695 -10.722  1.00  0.00    -0.027 C
HETATM   18  C19 UNL     1     -14.509  -0.926 -11.134  1.00  0.00     0.038 C
HETATM   19  C20 UNL     1     -15.053  -1.949 -10.285  1.00  0.00    -0.018 A
HETATM   20  C21 UNL     1     -14.593  -1.561  -8.927  1.00  0.00     0.035 A
HETATM   21  C22 UNL     1     -13.763  -2.784  -8.500  1.00  0.00     0.066 C
ENDROOT
BRANCH   1  22
HETATM   22  C2  UNL     1     -14.140  -1.557  -6.310  1.00  0.00     0.007 C
HETATM   23  C1  UNL     1     -12.799  -1.245  -5.752  1.00  0.00     0.012 C
HETATM   24  C3  UNL     1     -15.074  -1.763  -5.103  1.00  0.00     0.012 C
ENDBRANCH   1  22
BRANCH  15  25
HETATM   25  O5  UNL     1     -11.390  -2.891  -8.355  1.00  0.00    -0.380 OA
ATOM     26  H5  UNL     1     -11.307  -2.063  -7.895  1.00  0.00     0.211 HD
ENDBRANCH  15  25
BRANCH   9  27
HETATM   27  O4  UNL     1     -10.996  -3.553 -10.651  1.00  0.00    -0.363 OA
ATOM     28  H4  UNL     1     -10.611  -3.035  -9.953  1.00  0.00     0.213 HD
ENDBRANCH   9  27
BRANCH   6  29
HETATM   29  O2  UNL     1     -15.744  -2.888 -12.899  1.00  0.00    -0.393 OA
ATOM     30  H2  UNL     1     -16.213  -3.248 -13.643  1.00  0.00     0.210 HD
ENDBRANCH   6  29
TORSDOF 4
ENDMDL