MODEL 4
REMARK VINA RESULT: -7.785248990      1.936      6.710
REMARK  3 active torsions:
REMARK  status: ('A' for Active; 'I' for Inactive)
REMARK    1  A    between atoms: C11_12  and  O2_14
REMARK    2  A    between atoms: C16_19  and  O3_20
REMARK    3  A    between atoms: C21_28  and  O6_29
ROOT
HETATM    1  C1  UNL     1     -10.487  -6.611 -13.004  1.00  0.00     0.013 C
HETATM    2  C2  UNL     1     -11.278  -6.748 -11.720  1.00  0.00     0.016 C
HETATM    3  C3  UNL     1     -12.604  -7.381 -12.088  1.00  0.00     0.010 C
HETATM    4  C4  UNL     1     -13.533  -7.127 -10.937  1.00  0.00     0.038 C
HETATM    5  C5  UNL     1     -13.893  -5.653 -10.943  1.00  0.00     0.064 C
HETATM    6  C6  UNL     1     -14.937  -5.519 -12.063  1.00  0.00     0.046 C
HETATM    7  O1  UNL     1     -14.462  -5.354  -9.708  1.00  0.00    -0.379 OA
HETATM    8  C7  UNL     1     -15.006  -4.088  -9.816  1.00  0.00     0.183 C
HETATM    9  C8  UNL     1     -13.913  -2.997  -9.704  1.00  0.00     0.040 C
HETATM   10  C9  UNL     1     -12.662  -3.535 -10.298  1.00  0.00     0.027 C
HETATM   11  C10 UNL     1     -12.724  -4.754 -11.132  1.00  0.00     0.055 C
HETATM   12  C11 UNL     1     -11.387  -5.492 -10.951  1.00  0.00     0.064 C
HETATM   13  C12 UNL     1     -11.062  -5.744  -9.518  1.00  0.00     0.046 C
HETATM   14  C13 UNL     1     -14.467  -1.844 -10.466  1.00  0.00     0.173 C
HETATM   15  C14 UNL     1     -13.610  -0.800 -10.983  1.00  0.00     0.038 C
HETATM   16  C15 UNL     1     -12.584  -0.106 -10.217  1.00  0.00     0.034 C
HETATM   17  C16 UNL     1     -13.063   0.897  -9.186  1.00  0.00     0.118 C
HETATM   18  C17 UNL     1     -12.753   0.473  -7.792  1.00  0.00     0.035 C
HETATM   19  C18 UNL     1     -13.550  -0.480  -7.065  1.00  0.00     0.046 C
HETATM   20  C19 UNL     1     -14.449  -1.454  -7.760  1.00  0.00     0.119 C
HETATM   21  C20 UNL     1     -15.578  -1.760  -6.734  1.00  0.00     0.052 C
HETATM   22  O4  UNL     1     -15.148  -0.766  -8.721  1.00  0.00    -0.227 OA
HETATM   23  O5  UNL     1     -15.589  -1.393  -9.725  1.00  0.00    -0.234 OA
HETATM   24  C21 UNL     1     -13.814  -2.729  -8.197  1.00  0.00     0.168 C
ENDROOT
BRANCH  24  25
HETATM   25  O6  UNL     1     -12.519  -2.935  -7.710  1.00  0.00    -0.391 OA
ATOM     26  H6  UNL     1     -12.303  -2.336  -7.005  1.00  0.00     0.210 HD
ENDBRANCH  24  25
BRANCH  12  27
HETATM   27  O2  UNL     1     -10.405  -4.601 -11.445  1.00  0.00    -0.389 OA
ATOM     28  H2  UNL     1      -9.583  -5.076 -11.487  1.00  0.00     0.210 HD
ENDBRANCH  12  27
BRANCH  17  29
HETATM   29  O3  UNL     1     -12.244   2.054  -9.389  1.00  0.00    -0.396 OA
ATOM     30  H3  UNL     1     -12.152   2.443  -8.527  1.00  0.00     0.210 HD
ENDBRANCH  17  29
TORSDOF 3
ENDMDL