MODEL 4
REMARK VINA RESULT: -7.084267092      1.862      4.643
REMARK  4 active torsions:
REMARK  status: ('A' for Active; 'I' for Inactive)
REMARK    1  A    between atoms: C2_2  and  C4_5
REMARK    2  A    between atoms: C11_13  and  O2_14
REMARK    3  A    between atoms: C15_19  and  O3_20
REMARK    4  A    between atoms: C21_27  and  O4_28
ROOT
HETATM    1  C1  UNL     1     -10.439  -2.059  -4.413  1.00  0.00     0.026 C
HETATM    2  C2  UNL     1     -10.214  -1.766  -5.918  1.00  0.00     0.102 C
HETATM    3  C3  UNL     1     -10.480  -0.295  -5.992  1.00  0.00     0.064 C
HETATM    4  N1  UNL     1     -10.692   0.850  -6.070  1.00  0.00    -0.197 NA
ENDROOT
BRANCH   2   5
HETATM    5  C4  UNL     1     -11.289  -2.441  -6.628  1.00  0.00     0.009 C
HETATM    6  C5  UNL     1     -12.520  -1.800  -5.939  1.00  0.00     0.022 C
HETATM    7  C6  UNL     1     -11.430  -3.901  -6.507  1.00  0.00     0.089 C
HETATM    8  C7  UNL     1     -10.216  -4.745  -6.697  1.00  0.00     0.371 A
HETATM    9  C21 UNL     1     -12.515  -4.267  -7.526  1.00  0.00     0.146 C
HETATM   10  O1  UNL     1     -10.342  -5.499  -7.907  1.00  0.00    -0.317 OA
HETATM   11  N2  UNL     1      -9.066  -4.152  -7.239  1.00  0.00     0.146 N
HETATM   12  C8  UNL     1      -9.170  -4.932  -8.370  1.00  0.00     0.394 A
HETATM   13  C9  UNL     1      -9.488  -4.322  -9.700  1.00  0.00    -0.018 C
HETATM   14  C10 UNL     1      -9.886  -3.120  -9.959  1.00  0.00     0.044 C
HETATM   15  C20 UNL     1      -9.558  -5.525 -10.667  1.00  0.00     0.051 C
HETATM   16  C11 UNL     1     -10.162  -2.049  -8.927  1.00  0.00     0.070 C
HETATM   17  C12 UNL     1     -11.378  -2.284  -8.138  1.00  0.00    -0.019 C
HETATM   18  C13 UNL     1     -12.374  -3.266  -8.664  1.00  0.00     0.058 C
HETATM   19  C14 UNL     1     -13.776  -2.536  -8.578  1.00  0.00     0.030 C
HETATM   20  C15 UNL     1     -12.448  -3.805  -9.994  1.00  0.00     0.055 C
HETATM   21  C16 UNL     1     -11.845  -4.526 -11.027  1.00  0.00     0.015 C
HETATM   22  C17 UNL     1     -10.995  -5.717 -11.084  1.00  0.00    -0.024 C
HETATM   23  C18 UNL     1     -10.860  -6.073 -12.589  1.00  0.00     0.019 C
HETATM   24  C19 UNL     1     -11.694  -6.888 -10.473  1.00  0.00     0.019 C
HETATM   25  C22 UNL     1      -7.790  -4.529  -6.570  1.00  0.00     0.317 C
BRANCH  16  26
HETATM   26  O2  UNL     1      -9.058  -1.514  -8.366  1.00  0.00    -0.360 OA
ATOM     27  H2  UNL     1      -8.293  -1.510  -8.929  1.00  0.00     0.217 HD
ENDBRANCH  16  26
BRANCH  20  28
HETATM   28  O3  UNL     1     -13.083  -2.724 -10.764  1.00  0.00    -0.364 OA
ATOM     29  H3  UNL     1     -14.004  -2.960 -10.754  1.00  0.00     0.217 HD
ENDBRANCH  20  28
BRANCH   9  30
HETATM   30  O4  UNL     1     -13.776  -4.381  -6.981  1.00  0.00    -0.394 OA
ATOM     31  H4  UNL     1     -13.810  -4.202  -6.048  1.00  0.00     0.210 HD
ENDBRANCH   9  30
ENDBRANCH   2   5
TORSDOF 4
ENDMDL