MODEL 5
REMARK VINA RESULT: -7.579046925      1.739      5.245
REMARK  3 active torsions:
REMARK  status: ('A' for Active; 'I' for Inactive)
REMARK    1  A    between atoms: C3_3  and  O1_4
REMARK    2  A    between atoms: C12_17  and  O5_18
REMARK    3  A    between atoms: C13_20  and  O6_21
ROOT
HETATM    1  C1  UNL     1     -15.507  -2.888 -12.232  1.00  0.00     0.016 C
HETATM    2  C2  UNL     1     -14.374  -3.764 -11.868  1.00  0.00     0.046 C
HETATM    3  C3  UNL     1     -14.793  -5.100 -12.521  1.00  0.00     0.124 C
HETATM    4  C4  UNL     1     -13.933  -6.056 -11.815  1.00  0.00     0.035 C
HETATM    5  C5  UNL     1     -14.065  -5.508 -10.381  1.00  0.00     0.042 C
HETATM    6  C6  UNL     1     -13.838  -3.979 -10.552  1.00  0.00     0.075 C
HETATM    7  O2  UNL     1     -12.450  -3.917 -10.600  1.00  0.00    -0.373 OA
HETATM    8  C7  UNL     1     -11.705  -3.151  -9.840  1.00  0.00     0.136 C
HETATM    9  C8  UNL     1     -11.186  -3.940  -8.645  1.00  0.00     0.065 C
HETATM   10  C9  UNL     1     -11.778  -3.529  -7.351  1.00  0.00     0.138 C
HETATM   11  O3  UNL     1     -10.858  -2.901  -6.497  1.00  0.00    -0.361 OA
HETATM   12  C10 UNL     1      -9.952  -2.099  -7.073  1.00  0.00     0.339 C
HETATM   13  O4  UNL     1     -10.198  -1.527  -8.260  1.00  0.00    -0.358 OA
HETATM   14  C11 UNL     1     -11.449  -1.013  -8.498  1.00  0.00     0.166 C
HETATM   15  C12 UNL     1     -12.148  -0.523  -7.252  1.00  0.00     0.177 C
HETATM   16  C13 UNL     1     -12.904  -1.518  -6.483  1.00  0.00     0.161 C
HETATM   17  C14 UNL     1     -13.037  -2.761  -7.350  1.00  0.00     0.020 C
HETATM   18  C15 UNL     1     -14.224  -3.577  -6.903  1.00  0.00     0.016 C
HETATM   19  C16 UNL     1     -14.419  -4.388  -8.165  1.00  0.00     0.013 C
HETATM   20  C17 UNL     1     -14.341  -3.366  -9.322  1.00  0.00    -0.007 C
HETATM   21  C18 UNL     1     -15.788  -2.871  -9.353  1.00  0.00     0.019 C
HETATM   22  C19 UNL     1     -13.545  -2.272  -8.690  1.00  0.00     0.023 C
HETATM   23  C20 UNL     1     -12.310  -1.823  -9.417  1.00  0.00     0.016 C
HETATM   24  C21 UNL     1     -12.554  -0.999 -10.649  1.00  0.00     0.021 C
ENDROOT
BRANCH   3  25
HETATM   25  O1  UNL     1     -16.140  -5.341 -12.302  1.00  0.00    -0.395 OA
ATOM     26  H1  UNL     1     -16.534  -5.735 -13.072  1.00  0.00     0.210 HD
ENDBRANCH   3  25
BRANCH  16  27
HETATM   27  O6  UNL     1     -14.221  -1.086  -6.247  1.00  0.00    -0.392 OA
ATOM     28  H6  UNL     1     -14.849  -1.773  -6.436  1.00  0.00     0.210 HD
ENDBRANCH  16  27
BRANCH  15  29
HETATM   29  O5  UNL     1     -12.956   0.587  -7.539  1.00  0.00    -0.390 OA
ATOM     30  H5  UNL     1     -12.522   1.393  -7.290  1.00  0.00     0.210 HD
ENDBRANCH  15  29
TORSDOF 3
ENDMDL