MODEL 5
REMARK VINA RESULT: -7.755177907      2.200      4.255
REMARK  3 active torsions:
REMARK  status: ('A' for Active; 'I' for Inactive)
REMARK    1  A    between atoms: C7_7  and  O1_8
REMARK    2  A    between atoms: C11_13  and  O2_14
REMARK    3  A    between atoms: C18_24  and  O5_25
ROOT
HETATM    1  C1  UNL     1     -13.765  -2.238  -4.673  1.00  0.00     0.039 C
HETATM    2  C2  UNL     1     -13.175  -2.932  -5.910  1.00  0.00     0.118 C
HETATM    3  C3  UNL     1     -14.071  -3.980  -6.451  1.00  0.00     0.032 C
HETATM    4  C4  UNL     1     -14.009  -4.274  -7.888  1.00  0.00     0.008 C
HETATM    5  C5  UNL     1     -13.166  -3.496  -8.825  1.00  0.00     0.004 C
HETATM    6  C6  UNL     1     -11.671  -3.467  -8.706  1.00  0.00     0.073 C
HETATM    7  C7  UNL     1     -11.197  -4.522  -9.634  1.00  0.00     0.172 C
HETATM    8  C8  UNL     1     -11.381  -3.958 -10.998  1.00  0.00     0.074 C
HETATM    9  C9  UNL     1     -12.794  -4.339 -11.269  1.00  0.00     0.005 C
HETATM   10  C10 UNL     1     -12.710  -5.800 -11.527  1.00  0.00     0.071 C
HETATM   11  C11 UNL     1     -11.342  -6.412 -11.507  1.00  0.00     0.065 C
HETATM   12  C12 UNL     1     -10.287  -6.248 -10.587  1.00  0.00     0.170 C
HETATM   13  O3  UNL     1     -10.039  -5.137  -9.741  1.00  0.00    -0.323 OA
HETATM   14  C13 UNL     1     -13.652  -3.743 -10.243  1.00  0.00    -0.039 C
HETATM   15  C14 UNL     1     -14.978  -4.482 -10.323  1.00  0.00     0.015 C
HETATM   16  C15 UNL     1     -14.032  -2.335 -10.789  1.00  0.00     0.015 C
HETATM   17  C16 UNL     1     -10.899  -3.441  -7.552  1.00  0.00     0.088 A
HETATM   18  C17 UNL     1     -10.165  -4.463  -6.818  1.00  0.00     0.178 A
HETATM   19  O4  UNL     1      -8.922  -4.110  -7.288  1.00  0.00    -0.345 OA
HETATM   20  C18 UNL     1      -9.440  -2.938  -7.757  1.00  0.00     0.176 C
HETATM   21  C19 UNL     1      -9.394  -1.758  -6.807  1.00  0.00     0.072 C
HETATM   22  C20 UNL     1     -10.080  -2.268  -5.591  1.00  0.00     0.047 C
HETATM   23  C21 UNL     1     -11.031  -3.312  -6.204  1.00  0.00     0.104 A
HETATM   24  O6  UNL     1     -12.045  -3.623  -5.408  1.00  0.00    -0.371 OA
ENDROOT
BRANCH   7  25
HETATM   25  O1  UNL     1     -11.986  -5.580  -9.197  1.00  0.00    -0.365 OA
ATOM     26  H1  UNL     1     -12.173  -5.279  -8.316  1.00  0.00     0.213 HD
ENDBRANCH   7  25
BRANCH  20  27
HETATM   27  O5  UNL     1      -9.141  -2.517  -9.021  1.00  0.00    -0.364 OA
ATOM     28  H5  UNL     1      -9.886  -2.428  -9.604  1.00  0.00     0.213 HD
ENDBRANCH  20  27
BRANCH  11  29
HETATM   29  O2  UNL     1     -10.838  -6.390 -12.852  1.00  0.00    -0.363 OA
ATOM     30  H2  UNL     1     -11.553  -6.633 -13.429  1.00  0.00     0.217 HD
ENDBRANCH  11  29
TORSDOF 3
ENDMDL