MODEL 4
REMARK VINA RESULT: -7.326775750      1.863      5.532
REMARK  5 active torsions:
REMARK  status: ('A' for Active; 'I' for Inactive)
REMARK    1  A    between atoms: C6_6  and  O1_7
REMARK    2  A    between atoms: C7_10  and  O3_11
REMARK    3  A    between atoms: C8_13  and  C9_14
REMARK    4  A    between atoms: C14_20  and  O5_21
REMARK    5  A    between atoms: C14_20  and  C15_23
ROOT
HETATM    1  C1  UNL     1     -14.198   2.868 -11.256  1.00  0.00     0.039 C
HETATM    2  C2  UNL     1     -14.357   1.370 -11.370  1.00  0.00     0.118 C
HETATM    3  C3  UNL     1     -15.696   0.912 -10.896  1.00  0.00     0.032 C
HETATM    4  C4  UNL     1     -15.563  -0.229  -9.880  1.00  0.00     0.020 C
HETATM    5  C5  UNL     1     -14.469  -1.239 -10.268  1.00  0.00     0.049 C
HETATM    6  C6  UNL     1     -15.251  -2.135 -11.275  1.00  0.00     0.271 C
HETATM    7  O2  UNL     1     -16.344  -2.544 -10.471  1.00  0.00    -0.331 OA
HETATM    8  C7  UNL     1     -15.899  -2.772  -9.207  1.00  0.00     0.267 C
HETATM    9  C8  UNL     1     -14.445  -2.262  -9.224  1.00  0.00     0.086 C
HETATM   10  C15 UNL     1     -13.269  -0.628 -10.833  1.00  0.00     0.171 C
HETATM   11  O6  UNL     1     -13.463   0.768 -10.537  1.00  0.00    -0.377 OA
ENDROOT
BRANCH   6  12
HETATM   12  O1  UNL     1     -15.621  -1.459 -12.397  1.00  0.00    -0.370 OA
ATOM     13  H1  UNL     1     -15.917  -2.037 -13.090  1.00  0.00     0.212 HD
ENDBRANCH   6  12
BRANCH   9  14
HETATM   14  C9  UNL     1     -13.894  -1.968  -7.891  1.00  0.00     0.136 C
HETATM   15  O4  UNL     1     -12.601  -1.632  -7.888  1.00  0.00    -0.374 OA
HETATM   16  C10 UNL     1     -11.621  -2.561  -7.688  1.00  0.00     0.062 C
HETATM   17  C11 UNL     1     -11.173  -2.382  -6.223  1.00  0.00     0.046 C
HETATM   18  C12 UNL     1     -10.426  -2.161  -8.490  1.00  0.00     0.041 C
HETATM   19  C19 UNL     1     -12.070  -4.004  -7.919  1.00  0.00     0.031 C
HETATM   20  C13 UNL     1     -10.221  -2.743  -9.812  1.00  0.00     0.044 C
HETATM   21  C14 UNL     1     -11.561  -3.345 -10.312  1.00  0.00     0.092 C
HETATM   22  C16 UNL     1     -11.801  -4.423  -9.319  1.00  0.00    -0.008 C
HETATM   23  C17 UNL     1     -10.440  -5.183  -9.221  1.00  0.00     0.018 C
HETATM   24  C18 UNL     1     -12.626  -5.582  -9.846  1.00  0.00     0.018 C
HETATM   25  C20 UNL     1     -13.441  -4.288  -7.410  1.00  0.00     0.015 C
HETATM   26  C21 UNL     1     -14.288  -3.131  -7.007  1.00  0.00     0.012 C
HETATM   27  C22 UNL     1     -14.415  -2.835  -5.568  1.00  0.00     0.012 C
BRANCH  21  28
HETATM   28  O5  UNL     1     -11.058  -4.137 -11.408  1.00  0.00    -0.386 OA
ATOM     29  H5  UNL     1     -11.247  -3.540 -12.122  1.00  0.00     0.210 HD
ENDBRANCH  21  28
ENDBRANCH   9  14
BRANCH   8  30
HETATM   30  O3  UNL     1     -16.625  -2.314  -8.150  1.00  0.00    -0.371 OA
ATOM     31  H3  UNL     1     -17.419  -2.770  -7.897  1.00  0.00     0.212 HD
ENDBRANCH   8  30
TORSDOF 5
ENDMDL