MODEL 5
REMARK VINA RESULT: -7.085056522      2.298      3.477
REMARK  3 active torsions:
REMARK  status: ('A' for Active; 'I' for Inactive)
REMARK    1  A    between atoms: C13_15  and  O3_16
REMARK    2  A    between atoms: C14_18  and  O4_19
REMARK    3  A    between atoms: C16_23  and  O6_24
ROOT
HETATM    1  C1  UNL     1     -10.953  -1.668  -5.324  1.00  0.00     0.018 C
HETATM    2  C2  UNL     1     -11.129  -3.006  -5.992  1.00  0.00    -0.015 C
HETATM    3  C3  UNL     1     -11.577  -3.973  -4.887  1.00  0.00     0.018 C
HETATM    4  C4  UNL     1     -12.124  -3.016  -7.092  1.00  0.00     0.029 C
HETATM    5  C5  UNL     1     -12.760  -1.683  -7.371  1.00  0.00     0.049 C
HETATM    6  C6  UNL     1     -12.740  -1.598  -8.857  1.00  0.00     0.094 C
HETATM    7  O1  UNL     1     -11.712  -2.382  -9.300  1.00  0.00    -0.370 OA
HETATM    8  C7  UNL     1     -11.397  -3.318  -8.366  1.00  0.00     0.138 C
HETATM    9  C8  UNL     1      -9.960  -3.482  -8.054  1.00  0.00     0.012 C
HETATM   10  C9  UNL     1      -9.389  -4.721  -8.730  1.00  0.00     0.020 C
HETATM   11  C10 UNL     1      -9.113  -2.265  -8.350  1.00  0.00     0.057 C
HETATM   12  C11 UNL     1      -8.091  -2.368  -7.237  1.00  0.00     0.114 C
HETATM   13  C12 UNL     1      -6.899  -3.189  -7.627  1.00  0.00     0.211 C
HETATM   14  O2  UNL     1      -5.793  -2.689  -6.991  1.00  0.00    -0.356 OA
HETATM   15  C13 UNL     1      -6.092  -1.485  -6.421  1.00  0.00     0.288 C
HETATM   16  C14 UNL     1      -7.443  -1.040  -6.930  1.00  0.00     0.209 C
HETATM   17  O5  UNL     1      -8.763  -2.860  -6.149  1.00  0.00    -0.368 OA
HETATM   18  C15 UNL     1      -9.859  -3.563  -6.560  1.00  0.00     0.141 C
HETATM   19  C16 UNL     1     -12.461  -0.170  -9.347  1.00  0.00     0.153 C
HETATM   20  C17 UNL     1     -13.017  -0.142 -10.751  1.00  0.00     0.035 C
HETATM   21  C18 UNL     1     -13.743  -1.437 -10.970  1.00  0.00     0.014 C
HETATM   22  C19 UNL     1     -14.018  -1.914  -9.536  1.00  0.00    -0.014 C
HETATM   23  C20 UNL     1     -15.200  -1.162  -9.055  1.00  0.00     0.018 C
HETATM   24  C21 UNL     1     -14.333  -3.380  -9.629  1.00  0.00     0.018 C
ENDROOT
BRANCH  19  25
HETATM   25  O6  UNL     1     -13.139   0.681  -8.484  1.00  0.00    -0.393 OA
ATOM     26  H6  UNL     1     -13.502   1.375  -9.021  1.00  0.00     0.210 HD
ENDBRANCH  19  25
BRANCH  16  27
HETATM   27  O4  UNL     1      -7.258  -0.245  -8.030  1.00  0.00    -0.388 OA
ATOM     28  H4  UNL     1      -7.479   0.668  -7.887  1.00  0.00     0.210 HD
ENDBRANCH  16  27
BRANCH  15  29
HETATM   29  O3  UNL     1      -6.181  -1.549  -5.026  1.00  0.00    -0.369 OA
ATOM     30  H3  UNL     1      -5.758  -0.817  -4.593  1.00  0.00     0.212 HD
ENDBRANCH  15  29
TORSDOF 3
ENDMDL