MODEL 1
REMARK VINA RESULT: -7.443391974      0.000      0.000
REMARK  7 active torsions:
REMARK  status: ('A' for Active; 'I' for Inactive)
REMARK    1  A    between atoms: C2_2  and  O1_3
REMARK    2  A    between atoms: O1_3  and  C3_4
REMARK    3  A    between atoms: C3_4  and  C4_6
REMARK    4  A    between atoms: C7_9  and  O3_10
REMARK    5  A    between atoms: C9_13  and  O4_14
REMARK    6  A    between atoms: C10_16  and  C11_17
REMARK    7  A    between atoms: C11_17  and  C12_19
ROOT
HETATM    1  C4  UNL     1     -28.995  -3.879  -5.542  1.00  0.00     0.065 A
HETATM    2  C5  UNL     1     -28.993  -2.544  -5.088  1.00  0.00    -0.011 A
HETATM    3  C6  UNL     1     -28.991  -1.427  -6.075  1.00  0.00     0.052 C
HETATM    4  C7  UNL     1     -28.971  -2.310  -3.747  1.00  0.00     0.075 A
HETATM    5  C8  UNL     1     -28.944  -3.399  -2.840  1.00  0.00     0.074 A
HETATM    6  C9  UNL     1     -28.939  -4.672  -3.329  1.00  0.00     0.083 A
HETATM    7  C10 UNL     1     -28.962  -4.944  -4.713  1.00  0.00     0.065 A
ENDROOT
BRANCH   7   8
HETATM    8  C11 UNL     1     -29.062  -6.343  -4.973  1.00  0.00     0.198 C
HETATM    9  O5  UNL     1     -28.183  -7.068  -4.384  1.00  0.00    -0.286 OA
BRANCH   8  10
HETATM   10  C12 UNL     1     -30.038  -7.011  -5.834  1.00  0.00     0.046 A
HETATM   11  C13 UNL     1     -31.300  -7.268  -5.352  1.00  0.00    -0.022 A
HETATM   12  C14 UNL     1     -31.813  -6.469  -4.177  1.00  0.00     0.051 C
HETATM   13  C15 UNL     1     -32.155  -8.177  -5.989  1.00  0.00     0.064 A
HETATM   14 CL1  UNL     1     -33.716  -8.504  -5.306  1.00  0.00    -0.082 Cl
HETATM   15  C16 UNL     1     -31.696  -8.814  -7.122  1.00  0.00     0.079 A
HETATM   16 CL2  UNL     1     -32.736 -10.008  -7.898  1.00  0.00    -0.081 Cl
HETATM   17  C17 UNL     1     -30.468  -8.587  -7.633  1.00  0.00     0.080 A
HETATM   18 CL3  UNL     1     -29.847  -9.398  -9.053  1.00  0.00    -0.081 Cl
HETATM   19  C18 UNL     1     -29.628  -7.668  -6.975  1.00  0.00     0.072 A
HETATM   20 CL4  UNL     1     -28.062  -7.359  -7.716  1.00  0.00    -0.081 Cl
ENDBRANCH   8  10
ENDBRANCH   7   8
BRANCH   1  21
HETATM   21  C3  UNL     1     -29.404  -4.120  -6.969  1.00  0.00     0.295 C
HETATM   22  O2  UNL     1     -30.625  -4.139  -7.230  1.00  0.00    -0.259 OA
BRANCH  21  23
HETATM   23  O1  UNL     1     -28.505  -4.291  -7.951  1.00  0.00    -0.318 OA
BRANCH  23  24
HETATM   24  C2  UNL     1     -27.553  -3.422  -8.457  1.00  0.00     0.174 C
HETATM   25  C1  UNL     1     -27.955  -2.480  -9.541  1.00  0.00     0.034 C
ENDBRANCH  23  24
ENDBRANCH  21  23
ENDBRANCH   1  21
BRANCH   6  26
HETATM   26  O4  UNL     1     -28.910  -5.706  -2.382  1.00  0.00    -0.360 OA
ATOM     27  H4  UNL     1     -28.059  -5.928  -2.022  1.00  0.00     0.217 HD
ENDBRANCH   6  26
BRANCH   4  28
HETATM   28  O3  UNL     1     -28.961  -1.041  -3.229  1.00  0.00    -0.360 OA
ATOM     29  H3  UNL     1     -28.444  -0.810  -2.466  1.00  0.00     0.217 HD
ENDBRANCH   4  28
TORSDOF 7
ENDMDL