MODEL 2
REMARK VINA RESULT: -6.374798367     14.292     16.446
REMARK  5 active torsions:
REMARK  status: ('A' for Active; 'I' for Inactive)
REMARK    1  A    between atoms: C2_2  and  C4_4
REMARK    2  A    between atoms: C7_9  and  N2_10
REMARK    3  A    between atoms: C11_15  and  N3_16
REMARK    4  A    between atoms: C13_24  and  N5_25
REMARK    5  A    between atoms: C14_27  and  C15_28
ROOT
HETATM    1  C4  UNL     1     -19.361   1.021 -13.898  1.00  0.00     0.013 A
HETATM    2  C5  UNL     1     -18.853   2.097 -14.581  1.00  0.00     0.130 A
HETATM    3  C6  UNL     1     -17.495   2.304 -15.020  1.00  0.00     0.143 A
HETATM    4  N1  UNL     1     -16.535   1.434 -14.764  1.00  0.00    -0.325 N
ATOM      5  H1  UNL     1     -16.779   0.590 -14.244  1.00  0.00     0.169 HD
HETATM    6  C7  UNL     1     -15.247   1.595 -15.149  1.00  0.00     0.125 A
HETATM    7  C10 UNL     1     -14.897   2.721 -15.847  1.00  0.00     0.098 A
HETATM    8 BR1  UNL     1     -13.097   2.997 -16.414  1.00  0.00    -0.043 Br
HETATM    9  C11 UNL     1     -15.894   3.654 -16.129  1.00  0.00     0.121 A
HETATM   10  N4  UNL     1     -17.129   3.421 -15.717  1.00  0.00    -0.325 N
ATOM     11  H4  UNL     1     -17.847   4.112 -15.931  1.00  0.00     0.169 HD
HETATM   12  O1  UNL     1     -19.873   2.953 -14.775  1.00  0.00    -0.292 OA
HETATM   13  C12 UNL     1     -20.971   2.489 -14.264  1.00  0.00     0.172 A
HETATM   14 CL1  UNL     1     -22.544   3.292 -14.294  1.00  0.00    -0.054 Cl
HETATM   15  C13 UNL     1     -20.712   1.249 -13.684  1.00  0.00     0.087 A
ENDROOT
BRANCH   1  16
HETATM   16  C2  UNL     1     -18.662  -0.188 -13.475  1.00  0.00     0.016 C
HETATM   17  C1  UNL     1     -18.391  -1.177 -14.613  1.00  0.00     0.015 C
HETATM   18  C3  UNL     1     -17.309   0.090 -12.860  1.00  0.00     0.015 C
ENDBRANCH   1  16
BRANCH  15  19
HETATM   19  N5  UNL     1     -21.677   0.476 -13.051  1.00  0.00    -0.360 N
HETATM   20  C14 UNL     1     -22.532  -0.303 -13.541  1.00  0.00     0.138 C
ATOM     21  H5  UNL     1     -21.695   0.553 -12.034  1.00  0.00     0.165 HD
BRANCH  20  22
HETATM   22  C15 UNL     1     -23.468  -1.029 -12.660  1.00  0.00     0.272 C
HETATM   23  C16 UNL     1     -22.705  -1.925 -11.705  1.00  0.00     0.096 C
HETATM   24  F1  UNL     1     -24.292  -1.796 -13.490  1.00  0.00    -0.201 F
HETATM   25  F2  UNL     1     -24.279  -0.149 -11.999  1.00  0.00    -0.201 F
ENDBRANCH  20  22
ENDBRANCH  15  19
BRANCH   6  26
HETATM   26  N2  UNL     1     -14.242   0.639 -14.857  1.00  0.00    -0.375 N
HETATM   27  C8  UNL     1     -13.704   0.558 -13.518  1.00  0.00     0.150 C
HETATM   28  C9  UNL     1     -13.731  -0.271 -15.869  1.00  0.00     0.150 C
ENDBRANCH   6  26
BRANCH   9  29
HETATM   29  N3  UNL     1     -15.523   4.696 -16.788  1.00  0.00    -0.384 N
ATOM     30  H32 UNL     1     -15.893   5.636 -16.649  1.00  0.00     0.157 HD
ATOM     31  H31 UNL     1     -14.805   4.546 -17.497  1.00  0.00     0.157 HD
ENDBRANCH   9  29
TORSDOF 5
ENDMDL