MODEL 3
REMARK VINA RESULT: -8.889626266      3.725      9.897
REMARK  5 active torsions:
REMARK  status: ('A' for Active; 'I' for Inactive)
REMARK    1  A    between atoms: C3_5  and  N2_6
REMARK    2  A    between atoms: C4_10  and  C5_11
REMARK    3  A    between atoms: C6_16  and  S2_17
REMARK    4  A    between atoms: S2_17  and  C7_18
REMARK    5  A    between atoms: C7_18  and  C8_19
ROOT
HETATM    1  C5  UNL     1     -24.887  -1.036 -12.067  1.00  0.00     0.089 A
HETATM    2  N3  UNL     1     -24.861  -1.072 -10.688  1.00  0.00    -0.297 N
ATOM      3  H3  UNL     1     -24.036  -0.707 -10.211  1.00  0.00     0.187 HD
HETATM    4  N4  UNL     1     -25.834  -1.545  -9.962  1.00  0.00    -0.294 N
ATOM      5  H4  UNL     1     -25.742  -1.537  -8.946  1.00  0.00     0.187 HD
HETATM    6  C6  UNL     1     -26.953  -2.044 -10.509  1.00  0.00     0.086 A
HETATM    7  C15 UNL     1     -27.020  -2.025 -11.881  1.00  0.00     0.064 A
HETATM    8  C16 UNL     1     -25.982  -1.516 -12.685  1.00  0.00     0.066 A
HETATM    9 CL3  UNL     1     -26.273  -1.421 -14.433  1.00  0.00    -0.082 Cl
ENDROOT
BRANCH   6  10
HETATM   10  S2  UNL     1     -28.291  -2.699  -9.518  1.00  0.00    -0.106 SA
BRANCH  10  11
HETATM   11  C7  UNL     1     -27.779  -2.743  -7.778  1.00  0.00     0.124 C
BRANCH  11  12
HETATM   12  C8  UNL     1     -28.673  -3.625  -6.979  1.00  0.00     0.012 A
HETATM   13  C9  UNL     1     -29.440  -3.113  -5.956  1.00  0.00     0.045 A
HETATM   14 CL1  UNL     1     -29.330  -1.401  -5.626  1.00  0.00    -0.084 Cl
HETATM   15  C10 UNL     1     -30.280  -3.897  -5.193  1.00  0.00     0.049 A
HETATM   16  C11 UNL     1     -30.375  -5.250  -5.445  1.00  0.00     0.044 A
HETATM   17 CL2  UNL     1     -31.450  -6.260  -4.470  1.00  0.00    -0.084 Cl
HETATM   18  C12 UNL     1     -29.617  -5.789  -6.464  1.00  0.00    -0.001 A
HETATM   19  C13 UNL     1     -29.742  -7.249  -6.709  1.00  0.00     0.053 C
HETATM   20  C14 UNL     1     -28.778  -4.980  -7.219  1.00  0.00     0.132 A
HETATM   21  F1  UNL     1     -28.056  -5.550  -8.207  1.00  0.00    -0.205 F
ENDBRANCH  11  12
ENDBRANCH  10  11
ENDBRANCH   6  10
BRANCH   1  22
HETATM   22  C4  UNL     1     -23.648  -0.584 -12.701  1.00  0.00     0.060 A
HETATM   23  C2  UNL     1     -22.406  -1.089 -12.875  1.00  0.00     0.027 A
HETATM   24  C1  UNL     1     -22.016  -2.470 -12.331  1.00  0.00     0.070 C
HETATM   25  N1  UNL     1     -21.485  -0.326 -13.442  1.00  0.00    -0.340 N
HETATM   26  C3  UNL     1     -21.811   0.903 -13.812  1.00  0.00     0.143 A
ATOM     27  H1  UNL     1     -20.540  -0.679 -13.592  1.00  0.00     0.168 HD
HETATM   28  S1  UNL     1     -23.437   1.028 -13.374  1.00  0.00    -0.050 SA
BRANCH  26  29
HETATM   29  N2  UNL     1     -21.017   1.794 -14.388  1.00  0.00    -0.380 N
ATOM     30  H22 UNL     1     -20.308   1.667 -15.110  1.00  0.00     0.158 HD
ATOM     31  H21 UNL     1     -20.983   2.795 -14.196  1.00  0.00     0.158 HD
ENDBRANCH  26  29
ENDBRANCH   1  22
TORSDOF 5
ENDMDL