MODEL 4
REMARK VINA RESULT: -6.102623757      3.113      6.782
REMARK  6 active torsions:
REMARK  status: ('A' for Active; 'I' for Inactive)
REMARK    1  A    between atoms: O1_2  and  C2_3
REMARK    2  A    between atoms: C4_5  and  C5_6
REMARK    3  A    between atoms: C8_10  and  O2_11
REMARK    4  A    between atoms: C11_16  and  O3_17
REMARK    5  A    between atoms: C16_25  and  O4_26
REMARK    6  A    between atoms: C18_28  and  O5_29
ROOT
HETATM    1  C5  UNL     1     -29.388  -7.167  -7.382  1.00  0.00     0.057 C
HETATM    2  C6  UNL     1     -28.452  -7.538  -8.480  1.00  0.00     0.056 C
HETATM    3  C7  UNL     1     -27.331  -8.444  -8.066  1.00  0.00     0.226 C
HETATM    4  F1  UNL     1     -26.601  -8.719  -9.212  1.00  0.00    -0.245 F
HETATM    5  C8  UNL     1     -27.825  -9.701  -7.409  1.00  0.00     0.194 C
HETATM    6 CL1  UNL     1     -26.385 -10.570  -6.813  1.00  0.00    -0.080 Cl
HETATM    7  C9  UNL     1     -28.736  -9.339  -6.309  1.00  0.00     0.006 A
HETATM    8  C10 UNL     1     -28.858 -10.224  -5.260  1.00  0.00     0.050 A
HETATM    9  C11 UNL     1     -29.691  -9.981  -4.196  1.00  0.00     0.089 A
HETATM   10  C12 UNL     1     -30.435  -8.828  -4.151  1.00  0.00     0.089 A
HETATM   11 CL2  UNL     1     -31.499  -8.504  -2.805  1.00  0.00    -0.080 Cl
HETATM   12  C13 UNL     1     -30.310  -7.931  -5.217  1.00  0.00     0.066 A
HETATM   13 CL3  UNL     1     -31.297  -6.482  -5.104  1.00  0.00    -0.082 Cl
HETATM   14  C14 UNL     1     -29.470  -8.175  -6.291  1.00  0.00    -0.015 A
ENDROOT
BRANCH   1  15
HETATM   15  C4  UNL     1     -29.037  -5.811  -6.927  1.00  0.00    -0.044 A
HETATM   16  C3  UNL     1     -28.858  -4.798  -7.832  1.00  0.00     0.047 A
HETATM   17  C2  UNL     1     -28.550  -3.503  -7.401  1.00  0.00     0.104 A
HETATM   18  C18 UNL     1     -28.425  -3.241  -6.057  1.00  0.00     0.135 A
HETATM   19  C16 UNL     1     -28.602  -4.249  -5.138  1.00  0.00     0.104 A
HETATM   20  C15 UNL     1     -28.906  -5.524  -5.590  1.00  0.00     0.047 A
BRANCH  17  21
HETATM   21  O1  UNL     1     -28.377  -2.504  -8.361  1.00  0.00    -0.353 OA
HETATM   22  C1  UNL     1     -27.325  -2.538  -9.292  1.00  0.00     0.210 C
ENDBRANCH  17  21
BRANCH  18  23
HETATM   23  O5  UNL     1     -28.117  -1.941  -5.657  1.00  0.00    -0.351 OA
HETATM   24  C19 UNL     1     -29.173  -1.021  -5.379  1.00  0.00     0.210 C
ENDBRANCH  18  23
BRANCH  19  25
HETATM   25  O4  UNL     1     -28.470  -3.958  -3.790  1.00  0.00    -0.353 OA
HETATM   26  C17 UNL     1     -29.617  -3.955  -2.964  1.00  0.00     0.210 C
ENDBRANCH  19  25
ENDBRANCH   1  15
BRANCH   5  27
HETATM   27  O2  UNL     1     -28.436 -10.564  -8.328  1.00  0.00    -0.368 OA
ATOM     28  H2  UNL     1     -27.798 -10.993  -8.886  1.00  0.00     0.212 HD
ENDBRANCH   5  27
BRANCH   9  29
HETATM   29  O3  UNL     1     -29.823 -10.868  -3.130  1.00  0.00    -0.359 OA
ATOM     30  H3  UNL     1     -30.047 -10.582  -2.252  1.00  0.00     0.217 HD
ENDBRANCH   9  29
TORSDOF 6
ENDMDL