MODEL 2
REMARK VINA RESULT: -7.027328174      1.066      1.066
REMARK  5 active torsions:
REMARK  status: ('A' for Active; 'I' for Inactive)
REMARK    1  A    between atoms: C2_2  and  C4_4
REMARK    2  A    between atoms: C2_2  and  C8_13
REMARK    3  A    between atoms: C6_7  and  C7_8
REMARK    4  A    between atoms: C7_8  and  O1_9
REMARK    5  A    between atoms: C13_22  and  C14_23
ROOT
HETATM    1  C8  UNL     1     -30.091  -7.967  -5.783  1.00  0.00    -0.005 A
HETATM    2  C9  UNL     1     -30.768  -7.178  -4.809  1.00  0.00     0.066 A
HETATM    3 CL1  UNL     1     -31.750  -7.897  -3.548  1.00  0.00    -0.082 Cl
HETATM    4  C10 UNL     1     -30.668  -5.812  -4.848  1.00  0.00     0.079 A
HETATM    5 CL2  UNL     1     -31.502  -4.846  -3.646  1.00  0.00    -0.081 Cl
HETATM    6  C11 UNL     1     -29.931  -5.162  -5.802  1.00  0.00     0.080 A
HETATM    7 CL3  UNL     1     -29.825  -3.426  -5.823  1.00  0.00    -0.081 Cl
HETATM    8  C12 UNL     1     -29.296  -5.927  -6.720  1.00  0.00     0.072 A
HETATM    9 CL4  UNL     1     -28.328  -5.185  -7.984  1.00  0.00    -0.081 Cl
HETATM   10  C13 UNL     1     -29.362  -7.341  -6.731  1.00  0.00     0.042 A
ENDROOT
BRANCH   1  11
HETATM   11  C2  UNL     1     -30.297  -9.390  -5.591  1.00  0.00     0.025 C
HETATM   12  C1  UNL     1     -29.964 -10.358  -6.700  1.00  0.00     0.027 C
HETATM   13  C3  UNL     1     -31.727  -9.688  -5.111  1.00  0.00     0.027 C
BRANCH  11  14
HETATM   14  C4  UNL     1     -29.351  -9.876  -4.484  1.00  0.00     0.029 A
HETATM   15  C5  UNL     1     -29.837 -10.536  -3.394  1.00  0.00     0.077 A
HETATM   16  S1  UNL     1     -28.377 -10.867  -2.519  1.00  0.00    -0.085 SA
HETATM   17  C6  UNL     1     -27.275 -10.142  -3.606  1.00  0.00     0.074 A
HETATM   18  N1  UNL     1     -28.067  -9.695  -4.560  1.00  0.00    -0.354 N
ATOM     19  H1  UNL     1     -27.670  -9.204  -5.362  1.00  0.00     0.166 HD
BRANCH  17  20
HETATM   20  C7  UNL     1     -25.768 -10.035  -3.506  1.00  0.00     0.229 C
BRANCH  20  21
HETATM   21  O1  UNL     1     -25.499  -8.873  -2.749  1.00  0.00    -0.394 OA
ATOM     22  H1  UNL     1     -24.578  -8.909  -2.518  1.00  0.00     0.209 HD
ENDBRANCH  20  21
ENDBRANCH  17  20
ENDBRANCH  11  14
ENDBRANCH   1  11
BRANCH  10  23
HETATM   23  C14 UNL     1     -28.651  -8.007  -7.804  1.00  0.00     0.133 A
HETATM   24  N2  UNL     1     -27.371  -8.411  -7.786  1.00  0.00    -0.336 N
HETATM   25  C15 UNL     1     -27.113  -9.043  -8.932  1.00  0.00     0.199 A
ATOM     26  H2  UNL     1     -26.709  -8.259  -7.026  1.00  0.00     0.168 HD
HETATM   27  N3  UNL     1     -28.217  -9.046  -9.679  1.00  0.00    -0.295 N
HETATM   28  N4  UNL     1     -29.145  -8.409  -8.976  1.00  0.00    -0.284 N
ATOM     29  H3  UNL     1     -28.326  -9.456 -10.606  1.00  0.00     0.187 HD
ATOM     30  H4  UNL     1     -30.104  -8.250  -9.287  1.00  0.00     0.188 HD
ENDBRANCH  10  23
TORSDOF 5
ENDMDL