MODEL 5
REMARK VINA RESULT: -7.957620764      4.002      6.409
REMARK  6 active torsions:
REMARK  status: ('A' for Active; 'I' for Inactive)
REMARK    1  A    between atoms: N1_3  and  C2_4
REMARK    2  A    between atoms: C2_4  and  C3_5
REMARK    3  A    between atoms: C3_5  and  C4_6
REMARK    4  A    between atoms: C10_12  and  O2_13
REMARK    5  A    between atoms: C11_15  and  O3_16
REMARK    6  A    between atoms: N2_18  and  C12_19
ROOT
HETATM    1  O1  UNL     1     -20.525  -1.240 -13.857  1.00  0.00    -0.246 OA
HETATM    2  C1  UNL     1     -20.769  -0.014 -13.773  1.00  0.00     0.337 A
HETATM    3  N1  UNL     1     -22.018   0.502 -13.644  1.00  0.00    -0.276 N
HETATM    4  C10 UNL     1     -21.909   1.843 -13.582  1.00  0.00     0.199 A
HETATM    5  C11 UNL     1     -20.560   2.110 -13.677  1.00  0.00     0.204 A
HETATM    6  N2  UNL     1     -19.861   0.966 -13.794  1.00  0.00    -0.238 N
ENDROOT
BRANCH   6   7
HETATM    7  C12 UNL     1     -18.444   0.862 -13.913  1.00  0.00     0.071 A
HETATM    8  C13 UNL     1     -17.730  -0.070 -13.184  1.00  0.00     0.057 A
HETATM    9  C14 UNL     1     -16.357  -0.185 -13.288  1.00  0.00     0.059 A
HETATM   10 CL1  UNL     1     -15.484  -1.379 -12.348  1.00  0.00    -0.082 Cl
HETATM   11  C15 UNL     1     -15.647   0.640 -14.135  1.00  0.00     0.079 A
HETATM   12 CL2  UNL     1     -13.908   0.547 -14.312  1.00  0.00    -0.081 Cl
HETATM   13  C16 UNL     1     -16.334   1.583 -14.876  1.00  0.00     0.081 A
HETATM   14 CL3  UNL     1     -15.437   2.639 -15.957  1.00  0.00    -0.081 Cl
HETATM   15  C17 UNL     1     -17.716   1.680 -14.756  1.00  0.00     0.085 A
HETATM   16 CL4  UNL     1     -18.589   2.866 -15.688  1.00  0.00    -0.080 Cl
ENDBRANCH   6   7
BRANCH   5  17
HETATM   17  O3  UNL     1     -20.012   3.400 -13.653  1.00  0.00    -0.342 OA
ATOM     18  H3  UNL     1     -20.182   4.061 -14.313  1.00  0.00     0.219 HD
ENDBRANCH   5  17
BRANCH   3  19
HETATM   19  C2  UNL     1     -23.251  -0.252 -13.585  1.00  0.00     0.140 C
BRANCH  19  20
HETATM   20  C3  UNL     1     -23.418  -0.851 -12.199  1.00  0.00     0.054 C
BRANCH  20  21
HETATM   21  C4  UNL     1     -24.849  -1.157 -11.914  1.00  0.00    -0.082 C
HETATM   22  C5  UNL     1     -25.280  -1.589 -10.750  1.00  0.00    -0.024 C
HETATM   23  C6  UNL     1     -26.679  -1.908 -10.407  1.00  0.00     0.027 C
HETATM   24  C7  UNL     1     -27.631  -1.765 -11.546  1.00  0.00     0.004 C
HETATM   25  C8  UNL     1     -26.898  -2.052 -12.853  1.00  0.00     0.005 C
HETATM   26  C9  UNL     1     -25.859  -0.964 -13.005  1.00  0.00     0.034 C
ENDBRANCH  20  21
ENDBRANCH  19  20
ENDBRANCH   3  19
BRANCH   4  27
HETATM   27  O2  UNL     1     -22.966   2.766 -13.448  1.00  0.00    -0.343 OA
ATOM     28  H2  UNL     1     -23.895   2.566 -13.440  1.00  0.00     0.219 HD
ENDBRANCH   4  27
TORSDOF 6
ENDMDL