MODEL 5
REMARK VINA RESULT: -7.044936193      2.931      3.451
REMARK  5 active torsions:
REMARK  status: ('A' for Active; 'I' for Inactive)
REMARK    1  A    between atoms: C1_2  and  C2_4
REMARK    2  A    between atoms: C2_4  and  C3_5
REMARK    3  A    between atoms: C3_5  and  C4_7
REMARK    4  A    between atoms: C8_14  and  C9_15
REMARK    5  A    between atoms: C14_22  and  O4_23
ROOT
HETATM    1  C4  UNL     1     -30.031  -8.998  -7.229  1.00  0.00     0.121 A
HETATM    2  N1  UNL     1     -29.477  -8.943  -6.034  1.00  0.00    -0.349 N
ATOM      3  H1  UNL     1     -29.078  -9.788  -5.625  1.00  0.00     0.166 HD
HETATM    4  C5  UNL     1     -29.433  -7.826  -5.374  1.00  0.00     0.042 A
HETATM    5  C6  UNL     1     -29.987  -6.717  -5.966  1.00  0.00     0.009 A
HETATM    6  S1  UNL     1     -30.532  -7.368  -7.462  1.00  0.00    -0.071 SA
HETATM    7  C7  UNL     1     -30.141  -5.336  -5.426  1.00  0.00     0.058 C
HETATM    8  C8  UNL     1     -28.963  -4.862  -4.624  1.00  0.00     0.028 C
HETATM    9  C15 UNL     1     -29.097  -5.345  -3.246  1.00  0.00     0.011 C
HETATM   10  C16 UNL     1     -29.629  -6.782  -3.151  1.00  0.00     0.027 C
HETATM   11  C17 UNL     1     -28.787  -7.744  -4.003  1.00  0.00     0.133 C
HETATM   12 CL3  UNL     1     -28.735  -9.287  -3.179  1.00  0.00    -0.118 Cl
ENDROOT
BRANCH   8  13
HETATM   13  C9  UNL     1     -28.614  -3.490  -4.914  1.00  0.00     0.003 A
HETATM   14  C10 UNL     1     -28.350  -3.006  -6.190  1.00  0.00     0.043 A
HETATM   15 CL1  UNL     1     -28.316  -4.124  -7.539  1.00  0.00    -0.084 Cl
HETATM   16  C11 UNL     1     -28.113  -1.671  -6.399  1.00  0.00     0.026 A
HETATM   17  C12 UNL     1     -28.126  -0.761  -5.361  1.00  0.00     0.028 A
HETATM   18  C13 UNL     1     -28.386  -1.215  -4.089  1.00  0.00     0.067 A
HETATM   19 CL2  UNL     1     -28.377  -0.018  -2.802  1.00  0.00    -0.081 Cl
HETATM   20  C14 UNL     1     -28.631  -2.561  -3.859  1.00  0.00     0.095 A
BRANCH  20  21
HETATM   21  O4  UNL     1     -28.900  -2.868  -2.542  1.00  0.00    -0.358 OA
ATOM     22  H4  UNL     1     -29.677  -3.321  -2.237  1.00  0.00     0.217 HD
ENDBRANCH  20  21
ENDBRANCH   8  13
BRANCH   1  23
HETATM   23  C3  UNL     1     -30.198 -10.161  -8.080  1.00  0.00     0.192 C
HETATM   24  O3  UNL     1     -29.201 -10.584  -8.738  1.00  0.00    -0.290 OA
BRANCH  23  25
HETATM   25  C2  UNL     1     -31.476 -10.857  -8.191  1.00  0.00     0.199 C
BRANCH  25  26
HETATM   26  C1  UNL     1     -32.515 -10.317  -7.261  1.00  0.00     0.180 C
HETATM   27  O1  UNL     1     -33.267  -9.385  -7.610  1.00  0.00    -0.648 OA
HETATM   28  O2  UNL     1     -32.630 -10.868  -5.996  1.00  0.00    -0.648 OA
ENDBRANCH  25  26
ENDBRANCH  23  25
ENDBRANCH   1  23
TORSDOF 5
ENDMDL