MODEL 4
REMARK VINA RESULT: -7.995747887      1.254      1.766
REMARK  8 active torsions:
REMARK  status: ('A' for Active; 'I' for Inactive)
REMARK    1  A    between atoms: O1_2  and  C2_3
REMARK    2  A    between atoms: C5_6  and  C6_7
REMARK    3  A    between atoms: C6_7  and  N1_8
REMARK    4  A    between atoms: N1_8  and  N2_9
REMARK    5  A    between atoms: N2_9  and  C7_11
REMARK    6  A    between atoms: C8_13  and  C9_14
REMARK    7  A    between atoms: C12_21  and  C13_22
REMARK    8  A    between atoms: C16_26  and  O2_27
ROOT
HETATM    1  C7  UNL     1     -28.427  -3.353  -7.347  1.00  0.00     0.113 A
HETATM    2  S1  UNL     1     -28.993  -5.002  -7.531  1.00  0.00    -0.070 SA
HETATM    3  C8  UNL     1     -29.783  -5.620  -6.171  1.00  0.00     0.041 A
HETATM    4  C10 UNL     1     -29.868  -4.752  -5.103  1.00  0.00     0.072 A
HETATM    5 CL3  UNL     1     -30.666  -5.382  -3.649  1.00  0.00    -0.081 Cl
HETATM    6  C11 UNL     1     -29.386  -3.485  -5.078  1.00  0.00     0.068 A
HETATM    7 CL4  UNL     1     -29.800  -2.532  -3.622  1.00  0.00    -0.082 Cl
HETATM    8  C12 UNL     1     -28.708  -2.826  -6.131  1.00  0.00     0.035 A
ENDROOT
BRANCH   1   9
HETATM    9  N2  UNL     1     -27.681  -2.907  -8.268  1.00  0.00    -0.229 N
ATOM     10  H2  UNL     1     -26.719  -2.880  -7.929  1.00  0.00     0.202 HD
BRANCH   9  11
HETATM   11  N1  UNL     1     -27.707  -2.490  -9.443  1.00  0.00    -0.337 NA
BRANCH  11  12
HETATM   12  C6  UNL     1     -27.647  -2.077 -10.576  1.00  0.00     0.220 C
BRANCH  12  13
HETATM   13  C5  UNL     1     -26.450  -1.750 -11.349  1.00  0.00    -0.003 A
HETATM   14  C4  UNL     1     -25.243  -1.392 -10.731  1.00  0.00     0.017 A
HETATM   15  C3  UNL     1     -24.121  -1.048 -11.432  1.00  0.00     0.040 A
HETATM   16  C2  UNL     1     -24.137  -1.040 -12.793  1.00  0.00     0.101 A
HETATM   17  C16 UNL     1     -25.318  -1.395 -13.463  1.00  0.00     0.099 A
HETATM   18  C15 UNL     1     -26.432  -1.736 -12.723  1.00  0.00     0.053 A
BRANCH  16  19
HETATM   19  O1  UNL     1     -23.023  -0.693 -13.521  1.00  0.00    -0.353 OA
HETATM   20  C1  UNL     1     -21.704  -0.765 -13.074  1.00  0.00     0.210 C
ENDBRANCH  16  19
BRANCH  17  21
HETATM   21  O2  UNL     1     -25.276  -1.369 -14.832  1.00  0.00    -0.358 OA
ATOM     22  H2  UNL     1     -24.652  -1.952 -15.249  1.00  0.00     0.217 HD
ENDBRANCH  17  21
ENDBRANCH  12  13
ENDBRANCH  11  12
ENDBRANCH   9  11
ENDBRANCH   1   9
BRANCH   8  23
HETATM   23  C13 UNL     1     -28.266  -1.419  -5.782  1.00  0.00     0.203 C
HETATM   24  C14 UNL     1     -27.405  -1.602  -4.524  1.00  0.00     0.050 C
HETATM   25  F1  UNL     1     -29.417  -0.737  -5.344  1.00  0.00    -0.245 F
ENDBRANCH   8  23
BRANCH   3  26
HETATM   26  C9  UNL     1     -30.418  -6.981  -6.038  1.00  0.00     0.220 C
HETATM   27 CL1  UNL     1     -29.208  -8.075  -5.249  1.00  0.00    -0.102 Cl
HETATM   28 CL2  UNL     1     -30.728  -7.664  -7.653  1.00  0.00    -0.102 Cl
ENDBRANCH   3  26
TORSDOF 8
ENDMDL