MODEL 2
REMARK VINA RESULT: -7.615036419      2.503      3.404
REMARK  5 active torsions:
REMARK  status: ('A' for Active; 'I' for Inactive)
REMARK    1  A    between atoms: N1_4  and  C4_6
REMARK    2  A    between atoms: C8_14  and  S1_15
REMARK    3  A    between atoms: S1_15  and  C9_16
REMARK    4  A    between atoms: C9_16  and  C10_17
REMARK    5  A    between atoms: N4_28  and  O1_29
ROOT
HETATM    1  C4  UNL     1     -28.031  -9.774  -6.535  1.00  0.00     0.121 A
HETATM    2  N2  UNL     1     -27.322 -10.433  -7.485  1.00  0.00    -0.338 N
ATOM      3  H2  UNL     1     -26.331 -10.612  -7.323  1.00  0.00     0.168 HD
HETATM    4  C5  UNL     1     -27.878 -10.858  -8.629  1.00  0.00     0.183 A
HETATM    5  N3  UNL     1     -29.166 -10.699  -8.958  1.00  0.00    -0.336 N
ATOM      6  H3  UNL     1     -29.560 -11.047  -9.832  1.00  0.00     0.168 HD
HETATM    7  C6  UNL     1     -29.907 -10.034  -8.029  1.00  0.00     0.148 A
HETATM    8  C7  UNL     1     -29.390  -9.568  -6.859  1.00  0.00     0.072 A
HETATM    9  C8  UNL     1     -30.381  -8.923  -6.119  1.00  0.00     0.036 A
HETATM   10  C16 UNL     1     -31.529  -9.072  -6.895  1.00  0.00     0.144 A
HETATM   11  N4  UNL     1     -31.241  -9.739  -8.047  1.00  0.00    -0.217 N
ENDROOT
BRANCH   9  12
HETATM   12  S1  UNL     1     -30.162  -7.946  -4.634  1.00  0.00    -0.123 SA
BRANCH  12  13
HETATM   13  C9  UNL     1     -31.043  -6.387  -4.831  1.00  0.00     0.121 C
BRANCH  13  14
HETATM   14  C10 UNL     1     -30.183  -5.210  -5.040  1.00  0.00    -0.003 A
HETATM   15  C11 UNL     1     -30.187  -4.249  -4.044  1.00  0.00     0.044 A
HETATM   16 CL1  UNL     1     -31.012  -4.660  -2.571  1.00  0.00    -0.084 Cl
HETATM   17  C12 UNL     1     -29.563  -3.034  -4.124  1.00  0.00     0.050 A
HETATM   18  C13 UNL     1     -28.863  -2.740  -5.311  1.00  0.00     0.059 A
HETATM   19 CL2  UNL     1     -28.040  -1.218  -5.434  1.00  0.00    -0.082 Cl
HETATM   20  C14 UNL     1     -28.850  -3.676  -6.308  1.00  0.00     0.078 A
HETATM   21 CL3  UNL     1     -28.054  -3.283  -7.819  1.00  0.00    -0.081 Cl
HETATM   22  C15 UNL     1     -29.493  -4.907  -6.198  1.00  0.00     0.066 A
HETATM   23 CL4  UNL     1     -29.470  -5.986  -7.550  1.00  0.00    -0.082 Cl
ENDBRANCH  13  14
ENDBRANCH  12  13
ENDBRANCH   9  12
BRANCH   1  24
HETATM   24  N1  UNL     1     -27.786  -9.723  -5.301  1.00  0.00    -0.350 N
HETATM   25  C2  UNL     1     -27.008 -10.273  -4.327  1.00  0.00    -0.020 C
HETATM   26  C1  UNL     1     -27.051  -9.583  -2.946  1.00  0.00     0.062 C
HETATM   27  C3  UNL     1     -25.666 -10.868  -4.495  1.00  0.00     0.062 C
ATOM     28  H1  UNL     1     -28.385  -9.014  -4.879  1.00  0.00     0.167 HD
ENDBRANCH   1  24
BRANCH  11  29
HETATM   29  O1  UNL     1     -32.152 -10.107  -9.003  1.00  0.00    -0.281 OA
ATOM     30  H1  UNL     1     -32.755 -10.841  -8.963  1.00  0.00     0.245 HD
ENDBRANCH  11  29
TORSDOF 5
ENDMDL