MODEL 2
REMARK VINA RESULT: -8.503030936      0.463      1.287
REMARK  6 active torsions:
REMARK  status: ('A' for Active; 'I' for Inactive)
REMARK    1  A    between atoms: C2_2  and  C3_3
REMARK    2  A    between atoms: C3_3  and  C4_4
REMARK    3  A    between atoms: C3_3  and  O1_6
REMARK    4  A    between atoms: O1_6  and  N1_7
REMARK    5  A    between atoms: C13_18  and  O2_19
REMARK    6  A    between atoms: O2_19  and  O3_20
ROOT
HETATM    1  N1  UNL     1     -28.044  -2.638  -8.353  1.00  0.00    -0.274 N
ATOM      2  H1  UNL     1     -27.387  -1.924  -8.039  1.00  0.00     0.193 HD
HETATM    3  C6  UNL     1     -28.708  -3.301  -7.479  1.00  0.00     0.026 C
HETATM    4  C7  UNL     1     -29.659  -4.331  -7.942  1.00  0.00     0.123 C
HETATM    5  C8  UNL     1     -29.595  -5.571  -7.148  1.00  0.00     0.076 A
HETATM    6  F1  UNL     1     -29.729  -6.736  -7.872  1.00  0.00    -0.306 F
HETATM    7  C9  UNL     1     -29.433  -5.719  -5.860  1.00  0.00    -0.015 A
HETATM    8  C10 UNL     1     -29.438  -7.174  -5.530  1.00  0.00     0.110 A
HETATM    9 BR1  UNL     1     -29.761  -8.272  -7.066  1.00  0.00     0.019 Br
HETATM   10  C11 UNL     1     -30.592  -7.348  -4.532  1.00  0.00     0.024 C
HETATM   11  C12 UNL     1     -30.109  -6.595  -3.285  1.00  0.00     0.038 C
HETATM   12  C13 UNL     1     -30.173  -5.135  -3.563  1.00  0.00     0.178 C
HETATM   13  C14 UNL     1     -29.259  -4.766  -4.740  1.00  0.00     0.079 C
HETATM   14  C15 UNL     1     -27.846  -4.866  -4.198  1.00  0.00     0.029 C
HETATM   15  C16 UNL     1     -29.485  -3.327  -5.128  1.00  0.00     0.265 C
HETATM   16  F2  UNL     1     -30.751  -3.110  -5.627  1.00  0.00    -0.204 F
HETATM   17  F3  UNL     1     -29.368  -2.574  -3.975  1.00  0.00    -0.204 F
HETATM   18  C17 UNL     1     -28.405  -2.914  -6.078  1.00  0.00     0.103 C
HETATM   19  C18 UNL     1     -28.129  -1.428  -5.960  1.00  0.00     0.022 C
ENDROOT
BRANCH   1  20
HETATM   20  O1  UNL     1     -28.192  -2.862  -9.701  1.00  0.00    -0.275 OA
BRANCH  20  21
HETATM   21  C3  UNL     1     -27.135  -2.508 -10.572  1.00  0.00     0.151 C
BRANCH  21  22
HETATM   22  C2  UNL     1     -26.027  -1.934  -9.753  1.00  0.00     0.030 C
HETATM   23  C1  UNL     1     -24.716  -1.858 -10.501  1.00  0.00     0.007 C
ENDBRANCH  21  22
BRANCH  21  24
HETATM   24  C4  UNL     1     -27.635  -1.578 -11.644  1.00  0.00     0.030 C
HETATM   25  C5  UNL     1     -27.958  -2.282 -12.930  1.00  0.00     0.007 C
ENDBRANCH  21  24
ENDBRANCH  20  21
ENDBRANCH   1  20
BRANCH  12  26
HETATM   26  O2  UNL     1     -31.496  -4.808  -3.857  1.00  0.00    -0.237 OA
BRANCH  26  27
HETATM   27  O3  UNL     1     -32.157  -4.803  -2.713  1.00  0.00    -0.250 OA
ATOM     28  H3  UNL     1     -31.858  -5.555  -2.215  1.00  0.00     0.253 HD
ENDBRANCH  26  27
ENDBRANCH  12  26
TORSDOF 6
ENDMDL