MODEL 2
REMARK VINA RESULT: -8.719070612      0.725      1.340
REMARK  5 active torsions:
REMARK  status: ('A' for Active; 'I' for Inactive)
REMARK    1  A    between atoms: S1_2  and  N1_4
REMARK    2  A    between atoms: S1_2  and  C9_14
REMARK    3  A    between atoms: N1_4  and  C1_6
REMARK    4  A    between atoms: C1_6  and  C2_7
REMARK    5  A    between atoms: C2_7  and  C3_8
ROOT
HETATM    1  O1  UNL     1       9.233  10.454   4.496  1.00  0.00    -0.201 OA
HETATM    2  S1  UNL     1       8.993  11.370   5.687  1.00  0.00     0.258 S
HETATM    3  O2  UNL     1       9.764  12.702   5.179  1.00  0.00    -0.201 OA
ENDROOT
BRANCH   2   4
HETATM    4  N1  UNL     1       7.363  11.842   5.604  1.00  0.00    -0.315 N
ATOM      5  H1  UNL     1       6.803  11.857   4.752  1.00  0.00     0.172 HD
BRANCH   4   6
HETATM    6  C1  UNL     1       6.896  12.207   6.876  1.00  0.00     0.137 C
BRANCH   6   7
HETATM    7  C2  UNL     1       5.380  12.078   6.732  1.00  0.00     0.058 C
BRANCH   7   8
HETATM    8  C3  UNL     1       4.815  11.059   7.667  1.00  0.00    -0.057 A
HETATM    9  C4  UNL     1       5.051   9.744   7.304  1.00  0.00     0.007 A
HETATM   10  C5  UNL     1       4.297   8.706   7.851  1.00  0.00     0.001 A
HETATM   11  C6  UNL     1       3.340   8.974   8.790  1.00  0.00     0.000 A
HETATM   12  C7  UNL     1       3.126  10.244   9.215  1.00  0.00     0.001 A
HETATM   13  C8  UNL     1       3.854  11.263   8.629  1.00  0.00     0.007 A
ENDBRANCH   7   8
ENDBRANCH   6   7
ENDBRANCH   4   6
ENDBRANCH   2   4
BRANCH   2  14
HETATM   14  C9  UNL     1       9.890  10.770   6.994  1.00  0.00     0.082 A
HETATM   15  C10 UNL     1      11.161  11.135   7.102  1.00  0.00     0.042 A
HETATM   16  C11 UNL     1      11.969  10.738   8.162  1.00  0.00     0.089 A
HETATM   17  N2  UNL     1      11.348   9.902   9.026  1.00  0.00    -0.375 N
HETATM   18  C12 UNL     1      10.089   9.466   8.901  1.00  0.00     0.089 A
ATOM     19  H2  UNL     1      11.880   9.580   9.834  1.00  0.00     0.164 HD
HETATM   20  C13 UNL     1       9.306   9.908   7.836  1.00  0.00     0.042 A
ENDBRANCH   2  14
TORSDOF 5
ENDMDL