MODEL 1
REMARK VINA RESULT: -7.395238756      0.000      0.000
REMARK  5 active torsions:
REMARK  status: ('A' for Active; 'I' for Inactive)
REMARK    1  A    between atoms: C2_2  and  N1_3
REMARK    2  A    between atoms: C2_2  and  C7_13
REMARK    3  A    between atoms: C7_13  and  C8_14
REMARK    4  A    between atoms: C7_13  and  N4_21
REMARK    5  A    between atoms: C8_14  and  C9_15
ROOT
HETATM    1  C1  UNL     1       3.509  11.102   8.883  1.00  0.00     0.035 C
HETATM    2  C2  UNL     1       4.479  10.239   8.113  1.00  0.00     0.129 C
ENDROOT
BRANCH   2   3
HETATM    3  N1  UNL     1       4.249   8.887   8.367  1.00  0.00    -0.220 N
HETATM    4  C3  UNL     1       3.304   8.099   8.528  1.00  0.00     0.678 A
HETATM    5  N2  UNL     1       3.666   6.791   8.763  1.00  0.00    -0.202 N
HETATM    6  N3  UNL     1       1.986   8.337   8.507  1.00  0.00    -0.202 N
HETATM    7  C4  UNL     1       2.808   5.812   8.958  1.00  0.00     0.107 A
ATOM      8  H2  UNL     1       4.661   6.567   8.786  1.00  0.00     0.183 HD
HETATM    9  C5  UNL     1       1.456   6.108   8.926  1.00  0.00     0.035 A
HETATM   10  C6  UNL     1       1.045   7.402   8.695  1.00  0.00     0.107 A
ATOM     11  H3  UNL     1       1.678   9.294   8.336  1.00  0.00     0.183 HD
ATOM     12  H1  UNL     1       5.136   8.390   8.445  1.00  0.00     0.178 HD
ENDBRANCH   2   3
BRANCH   2  13
HETATM   13  C7  UNL     1       5.914  10.710   8.213  1.00  0.00     0.248 C
BRANCH  13  14
HETATM   14  C8  UNL     1       6.861   9.759   8.842  1.00  0.00     0.076 C
BRANCH  14  15
HETATM   15  C9  UNL     1       8.288  10.056   8.585  1.00  0.00    -0.056 A
HETATM   16  C10 UNL     1       8.846  11.305   8.701  1.00  0.00     0.007 A
HETATM   17  C11 UNL     1      10.191  11.548   8.460  1.00  0.00     0.001 A
HETATM   18  C12 UNL     1      11.031  10.543   8.094  1.00  0.00     0.000 A
HETATM   19  C13 UNL     1      10.512   9.263   7.963  1.00  0.00     0.001 A
HETATM   20  C14 UNL     1       9.175   9.043   8.206  1.00  0.00     0.007 A
ENDBRANCH  14  15
ENDBRANCH  13  14
BRANCH  13  21
HETATM   21  N4  UNL     1       6.359  11.335   6.998  1.00  0.00     0.086 N
HETATM   22  C15 UNL     1       5.628  12.552   6.708  1.00  0.00     0.310 C
HETATM   23  C16 UNL     1       6.428  10.457   5.867  1.00  0.00     0.310 C
ENDBRANCH  13  21
ENDBRANCH   2  13
TORSDOF 5
ENDMDL