MODEL 4
REMARK VINA RESULT: -6.654633543      3.868      7.487
REMARK  5 active torsions:
REMARK  status: ('A' for Active; 'I' for Inactive)
REMARK    1  A    between atoms: C3_3  and  C4_4
REMARK    2  A    between atoms: C3_3  and  C10_16
REMARK    3  A    between atoms: N1_5  and  C5_7
REMARK    4  A    between atoms: C5_7  and  C6_8
REMARK    5  A    between atoms: C6_8  and  N2_9
ROOT
HETATM    1  C1  UNL     1       5.509  12.848   6.876  1.00  0.00     0.013 C
HETATM    2  C2  UNL     1       5.843  11.693   6.899  1.00  0.00    -0.102 C
HETATM    3  C3  UNL     1       6.232  10.287   6.920  1.00  0.00     0.135 C
ENDROOT
BRANCH   3   4
HETATM    4  C4  UNL     1       5.350   9.484   7.848  1.00  0.00     0.082 C
HETATM    5  N1  UNL     1       4.260  10.007   8.173  1.00  0.00    -0.379 N
ATOM      6  H1  UNL     1       4.091  10.928   7.769  1.00  0.00     0.164 HD
BRANCH   5   7
HETATM    7  C5  UNL     1       3.233   9.533   9.004  1.00  0.00     0.080 C
BRANCH   7   8
HETATM    8  C6  UNL     1       2.222   8.740   8.246  1.00  0.00     0.169 C
BRANCH   8   9
HETATM    9  N2  UNL     1       2.258   7.332   8.613  1.00  0.00    -0.352 N
HETATM   10  C7  UNL     1       3.373   6.437   8.365  1.00  0.00     0.145 C
HETATM   11  C8  UNL     1       3.303   5.535   9.605  1.00  0.00     0.142 C
HETATM   12  N3  UNL     1       1.880   5.362   9.801  1.00  0.00    -0.366 N
HETATM   13  C9  UNL     1       1.277   6.533   9.265  1.00  0.00     0.170 C
ATOM     14  H3  UNL     1       1.409   4.567  10.233  1.00  0.00     0.161 HD
HETATM   15  S1  UNL     1      -0.309   6.930   9.367  1.00  0.00    -0.041 SA
ENDBRANCH   8   9
ENDBRANCH   7   8
ENDBRANCH   5   7
ENDBRANCH   3   4
BRANCH   3  16
HETATM   16  C10 UNL     1       7.661  10.147   7.281  1.00  0.00    -0.038 A
HETATM   17  C11 UNL     1       8.641  10.597   6.396  1.00  0.00     0.009 A
HETATM   18  C12 UNL     1       9.976  10.475   6.721  1.00  0.00     0.001 A
HETATM   19  C13 UNL     1      10.366   9.902   7.931  1.00  0.00     0.000 A
HETATM   20  C14 UNL     1       9.383   9.452   8.816  1.00  0.00     0.001 A
HETATM   21  C15 UNL     1       8.049   9.582   8.476  1.00  0.00     0.009 A
ENDBRANCH   3  16
TORSDOF 5
ENDMDL