MODEL 1
REMARK VINA RESULT: -7.114268801      0.000      0.000
REMARK  6 active torsions:
REMARK  status: ('A' for Active; 'I' for Inactive)
REMARK    1  A    between atoms: N1_1  and  C1_5
REMARK    2  A    between atoms: C1_5  and  C2_6
REMARK    3  A    between atoms: C2_6  and  N2_7
REMARK    4  A    between atoms: N2_7  and  C3_8
REMARK    5  A    between atoms: N2_7  and  S1_14
REMARK    6  A    between atoms: S1_14  and  C9_17
ROOT
HETATM    1  N2  UNL     1       7.066  10.671   7.307  1.00  0.00    -0.270 N
ENDROOT
BRANCH   1   2
HETATM    2  C2  UNL     1       7.343  11.542   6.202  1.00  0.00     0.169 C
BRANCH   2   3
HETATM    3  C1  UNL     1       8.162  10.930   5.111  1.00  0.00     0.250 C
BRANCH   3   4
HETATM    4  N1  UNL     1       8.998  11.987   4.543  1.00  0.00    -0.078 N
ATOM      5  H13 UNL     1       8.499  12.869   4.425  1.00  0.00     0.274 HD
ATOM      6  H12 UNL     1       9.710  12.324   5.191  1.00  0.00     0.274 HD
ATOM      7  H11 UNL     1       9.390  11.633   3.670  1.00  0.00     0.274 HD
ENDBRANCH   3   4
ENDBRANCH   2   3
ENDBRANCH   1   2
BRANCH   1   8
HETATM    8  C3  UNL     1       5.728  10.371   7.642  1.00  0.00     0.045 A
HETATM    9  C4  UNL     1       4.949  11.419   8.121  1.00  0.00     0.030 A
HETATM   10  C5  UNL     1       3.631  11.217   8.472  1.00  0.00     0.002 A
HETATM   11  C6  UNL     1       3.058   9.952   8.352  1.00  0.00     0.000 A
HETATM   12  C7  UNL     1       3.819   8.902   7.877  1.00  0.00     0.002 A
HETATM   13  C8  UNL     1       5.143   9.149   7.534  1.00  0.00     0.030 A
ENDBRANCH   1   8
BRANCH   1  14
HETATM   14  S1  UNL     1       8.334   9.988   8.229  1.00  0.00     0.265 S
HETATM   15  O1  UNL     1       8.370   8.488   8.131  1.00  0.00    -0.200 OA
HETATM   16  O2  UNL     1       8.126  10.307   9.701  1.00  0.00    -0.200 OA
BRANCH  14  17
HETATM   17  C9  UNL     1       9.916  10.562   7.799  1.00  0.00     0.080 A
HETATM   18  C10 UNL     1      10.317  11.855   7.965  1.00  0.00     0.025 A
HETATM   19  C11 UNL     1      11.574  12.254   7.604  1.00  0.00     0.002 A
HETATM   20  C12 UNL     1      12.438  11.341   7.070  1.00  0.00     0.000 A
HETATM   21  C13 UNL     1      12.073  10.041   6.889  1.00  0.00     0.002 A
HETATM   22  C14 UNL     1      10.805   9.656   7.257  1.00  0.00     0.025 A
ENDBRANCH  14  17
ENDBRANCH   1  14
TORSDOF 6
ENDMDL