MODEL 3
REMARK VINA RESULT: -8.661922273      1.667      2.560
REMARK  5 active torsions:
REMARK  status: ('A' for Active; 'I' for Inactive)
REMARK    1  A    between atoms: C4_5  and  N2_6
REMARK    2  A    between atoms: C7_11  and  C8_12
REMARK    3  A    between atoms: C8_12  and  C9_13
REMARK    4  A    between atoms: C8_12  and  N3_20
REMARK    5  A    between atoms: C9_13  and  C10_14
ROOT
HETATM    1  N1  UNL     1       5.384  13.630   6.878  1.00  0.00    -0.191 NA
HETATM    2  C1  UNL     1       5.260  12.473   7.067  1.00  0.00     0.100 C
HETATM    3  C2  UNL     1       5.078  11.071   7.314  1.00  0.00     0.055 A
HETATM    4  C3  UNL     1       3.819  10.551   7.592  1.00  0.00     0.059 A
HETATM    5  C4  UNL     1       3.585   9.221   7.846  1.00  0.00     0.104 A
HETATM    6  C5  UNL     1       4.680   8.395   7.816  1.00  0.00     0.037 A
HETATM    7  C6  UNL     1       5.952   8.887   7.541  1.00  0.00     0.013 A
HETATM    8  C7  UNL     1       6.180  10.217   7.287  1.00  0.00    -0.013 A
ENDROOT
BRANCH   8   9
HETATM    9  C8  UNL     1       7.524  10.723   6.991  1.00  0.00     0.137 C
BRANCH   9  10
HETATM   10  C9  UNL     1       8.530   9.889   7.750  1.00  0.00     0.070 C
BRANCH  10  11
HETATM   11  C10 UNL     1       9.934  10.340   7.597  1.00  0.00    -0.056 A
HETATM   12  C11 UNL     1      10.886   9.559   6.978  1.00  0.00     0.007 A
HETATM   13  C12 UNL     1      12.193   9.979   6.815  1.00  0.00     0.001 A
HETATM   14  C13 UNL     1      12.598  11.214   7.272  1.00  0.00     0.000 A
HETATM   15  C14 UNL     1      11.664  12.005   7.890  1.00  0.00     0.001 A
HETATM   16  C15 UNL     1      10.350  11.573   8.050  1.00  0.00     0.007 A
ENDBRANCH  10  11
ENDBRANCH   9  10
BRANCH   9  17
HETATM   17  N3  UNL     1       7.897  10.695   5.638  1.00  0.00    -0.333 N
HETATM   18  N4  UNL     1       8.262  11.735   5.073  1.00  0.00    -0.349 N
ATOM     19  H42 UNL     1       8.286  12.604   5.606  1.00  0.00     0.176 HD
ATOM     20  H41 UNL     1       8.533  11.714   4.090  1.00  0.00     0.176 HD
ATOM     21  H3  UNL     1       7.867   9.817   5.120  1.00  0.00     0.180 HD
ENDBRANCH   9  17
ENDBRANCH   8   9
BRANCH   5  22
HETATM   22  N2  UNL     1       2.269   8.755   8.124  1.00  0.00    -0.116 N
HETATM   23  O1  UNL     1       1.332   9.569   8.232  1.00  0.00    -0.532 OA
HETATM   24  O2  UNL     1       1.971   7.435   8.282  1.00  0.00    -0.532 OA
ENDBRANCH   5  22
TORSDOF 5
ENDMDL