MODEL 3
REMARK VINA RESULT: -7.069898465      0.405      1.544
REMARK  5 active torsions:
REMARK  status: ('A' for Active; 'I' for Inactive)
REMARK    1  A    between atoms: C2_2  and  C3_3
REMARK    2  A    between atoms: C2_2  and  C4_6
REMARK    3  A    between atoms: C4_6  and  C5_7
REMARK    4  A    between atoms: C4_6  and  N2_14
REMARK    5  A    between atoms: C5_7  and  C6_8
ROOT
HETATM    1  C4  UNL     1       8.484  10.629   6.506  1.00  0.00     0.118 C
ENDROOT
BRANCH   1   2
HETATM    2  C2  UNL     1       9.454  11.286   5.515  1.00  0.00    -0.009 C
HETATM    3  C1  UNL     1       9.289  10.962   4.242  1.00  0.00     0.024 C
BRANCH   2   4
HETATM    4  C3  UNL     1      10.513  12.158   5.917  1.00  0.00     0.120 C
HETATM    5  N1  UNL     1      10.247  13.509   6.212  1.00  0.00    -0.089 NA
HETATM    6  S1  UNL     1      12.034  11.617   6.042  1.00  0.00    -0.063 SA
ENDBRANCH   2   4
ENDBRANCH   1   2
BRANCH   1   7
HETATM    7  C5  UNL     1       7.244  11.407   6.417  1.00  0.00     0.068 C
BRANCH   7   8
HETATM    8  C6  UNL     1       6.035  10.926   7.088  1.00  0.00    -0.056 A
HETATM    9  C7  UNL     1       5.751   9.591   7.144  1.00  0.00     0.007 A
HETATM   10  C8  UNL     1       4.597   9.114   7.777  1.00  0.00     0.001 A
HETATM   11  C9  UNL     1       3.712   9.988   8.366  1.00  0.00     0.000 A
HETATM   12  C10 UNL     1       3.990  11.325   8.315  1.00  0.00     0.001 A
HETATM   13  C11 UNL     1       5.128  11.786   7.688  1.00  0.00     0.007 A
ENDBRANCH   7   8
ENDBRANCH   1   7
BRANCH   1  14
HETATM   14  N2  UNL     1       9.193  10.367   7.638  1.00  0.00    -0.400 N
HETATM   15  C12 UNL     1       9.644   9.012   7.730  1.00  0.00     0.144 C
HETATM   16  C13 UNL     1       9.490   8.456   9.137  1.00  0.00     0.187 C
HETATM   17  O1  UNL     1      10.186   9.239  10.057  1.00  0.00    -0.388 OA
HETATM   18  C14 UNL     1      10.586  10.457   9.533  1.00  0.00     0.187 C
HETATM   19  C15 UNL     1       9.389  11.118   8.773  1.00  0.00     0.144 C
ENDBRANCH   1  14
TORSDOF 5
ENDMDL