MODEL 4
REMARK VINA RESULT: -5.786838114      1.303      3.643
REMARK  6 active torsions:
REMARK  status: ('A' for Active; 'I' for Inactive)
REMARK    1  A    between atoms: C5_5  and  C6_6
REMARK    2  A    between atoms: C6_6  and  C7_7
REMARK    3  A    between atoms: C8_8  and  O1_9
REMARK    4  A    between atoms: C11_12  and  O2_13
REMARK    5  A    between atoms: C14_16  and  O3_17
REMARK    6  A    between atoms: O3_17  and  C15_18
ROOT
HETATM    1  C7  UNL     1       9.926  10.813   6.332  1.00  0.00     0.033 A
HETATM    2  C8  UNL     1      10.778  10.198   7.257  1.00  0.00     0.084 A
HETATM    3  C10 UNL     1      11.989  10.785   7.565  1.00  0.00     0.074 A
HETATM    4  C11 UNL     1      12.345  11.975   6.955  1.00  0.00     0.073 A
HETATM    5  C13 UNL     1      11.485  12.559   6.046  1.00  0.00     0.074 A
HETATM    6  C14 UNL     1      10.259  11.996   5.712  1.00  0.00     0.084 A
ENDROOT
BRANCH   1   7
HETATM    7  C6  UNL     1       8.642  10.218   5.984  1.00  0.00     0.046 C
BRANCH   7   8
HETATM    8  C5  UNL     1       7.538  10.650   6.613  1.00  0.00     0.033 A
HETATM    9  C4  UNL     1       6.910  10.066   7.692  1.00  0.00     0.031 A
HETATM   10  C3  UNL     1       5.818  10.843   8.011  1.00  0.00     0.031 A
HETATM   11  C2  UNL     1       5.774  11.914   7.120  1.00  0.00     0.023 A
HETATM   12  C1  UNL     1       4.875  12.874   7.103  1.00  0.00     0.043 C
HETATM   13  N1  UNL     1       6.834  11.747   6.302  1.00  0.00    -0.357 N
ATOM     14  H1  UNL     1       7.069  12.379   5.537  1.00  0.00     0.166 HD
ENDBRANCH   7   8
ENDBRANCH   1   7
BRANCH   2  15
HETATM   15  O1  UNL     1      10.334   9.014   7.811  1.00  0.00    -0.355 OA
HETATM   16  C9  UNL     1       9.786   8.877   9.086  1.00  0.00     0.210 C
ENDBRANCH   2  15
BRANCH   6  17
HETATM   17  O3  UNL     1       9.393  12.582   4.798  1.00  0.00    -0.350 OA
BRANCH  17  18
HETATM   18  C15 UNL     1       9.600  12.288   3.427  1.00  0.00     0.171 C
HETATM   19  C16 UNL     1       9.535  13.525   2.573  1.00  0.00     0.034 C
ENDBRANCH  17  18
ENDBRANCH   6  17
BRANCH   4  20
HETATM   20  O2  UNL     1      13.567  12.552   7.278  1.00  0.00    -0.356 OA
HETATM   21  C12 UNL     1      14.571  11.854   7.984  1.00  0.00     0.210 C
ENDBRANCH   4  20
TORSDOF 6
ENDMDL