MODEL 5
REMARK VINA RESULT: -8.573863491      0.951      1.429
REMARK  6 active torsions:
REMARK  status: ('A' for Active; 'I' for Inactive)
REMARK    1  A    between atoms: C2_2  and  C3_3
REMARK    2  A    between atoms: C3_3  and  N1_4
REMARK    3  A    between atoms: C4_5  and  C5_6
REMARK    4  A    between atoms: N2_7  and  O1_9
REMARK    5  A    between atoms: N3_12  and  C7_13
REMARK    6  A    between atoms: C7_13  and  C8_14
ROOT
HETATM    1  N1  UNL     1       9.875  10.801   7.818  1.00  0.00    -0.330 N
HETATM    2  C4  UNL     1       9.398  11.557   6.791  1.00  0.00     0.070 A
HETATM    3  C6  UNL     1       8.122  11.320   6.303  1.00  0.00     0.141 A
HETATM    4  N3  UNL     1       7.333  10.350   6.829  1.00  0.00    -0.296 N
HETATM    5  N4  UNL     1       7.831   9.655   7.809  1.00  0.00    -0.287 N
ATOM      6  H4  UNL     1       7.250   8.922   8.216  1.00  0.00     0.188 HD
HETATM    7  C14 UNL     1       9.061   9.838   8.322  1.00  0.00     0.095 A
HETATM    8  C15 UNL     1       9.481   8.968   9.431  1.00  0.00     0.091 C
ENDROOT
BRANCH   4   9
HETATM    9  C7  UNL     1       5.998  10.129   6.293  1.00  0.00     0.186 C
BRANCH   9  10
HETATM   10  C8  UNL     1       4.959  10.134   7.329  1.00  0.00    -0.038 A
HETATM   11  C9  UNL     1       4.452  11.271   7.914  1.00  0.00     0.009 A
HETATM   12  C10 UNL     1       3.474  11.200   8.883  1.00  0.00     0.001 A
HETATM   13  C11 UNL     1       2.976   9.997   9.295  1.00  0.00     0.000 A
HETATM   14  C12 UNL     1       3.469   8.845   8.722  1.00  0.00     0.001 A
HETATM   15  C13 UNL     1       4.447   8.926   7.753  1.00  0.00     0.009 A
ENDBRANCH   9  10
ENDBRANCH   4   9
BRANCH   2  16
HETATM   16  C5  UNL     1      10.241  12.613   6.261  1.00  0.00     0.144 C
HETATM   17  N2  UNL     1      10.350  12.992   5.078  1.00  0.00    -0.278 N
ATOM     18  H2  UNL     1      11.016  13.758   4.988  1.00  0.00     0.193 HD
BRANCH  17  19
HETATM   19  O1  UNL     1       9.827  12.660   3.911  1.00  0.00    -0.290 OA
ATOM     20  H1  UNL     1       9.944  11.965   3.274  1.00  0.00     0.244 HD
ENDBRANCH  17  19
ENDBRANCH   2  16
BRANCH   1  21
HETATM   21  C3  UNL     1      11.190  10.954   8.358  1.00  0.00     0.157 C
BRANCH  21  22
HETATM   22  C2  UNL     1      12.279  10.625   7.393  1.00  0.00    -0.017 C
HETATM   23  C1  UNL     1      13.299  11.447   7.189  1.00  0.00     0.008 C
ENDBRANCH  21  22
ENDBRANCH   1  21
TORSDOF 6
ENDMDL