MODEL 1
REMARK VINA RESULT: -9.115596389      0.000      0.000
REMARK  6 active torsions:
REMARK  status: ('A' for Active; 'I' for Inactive)
REMARK    1  A    between atoms: C2_2  and  C3_3
REMARK    2  A    between atoms: C3_3  and  N1_4
REMARK    3  A    between atoms: N1_4  and  O1_5
REMARK    4  A    between atoms: N1_4  and  N2_7
REMARK    5  A    between atoms: N2_7  and  S1_9
REMARK    6  A    between atoms: S1_9  and  C4_12
ROOT
HETATM    1  S1  UNL     1       9.044  11.552   6.176  1.00  0.00     0.277 S
HETATM    2  O2  UNL     1       9.597  10.198   5.749  1.00  0.00    -0.199 OA
HETATM    3  O3  UNL     1       9.144  12.491   5.009  1.00  0.00    -0.199 OA
ENDROOT
BRANCH   1   4
HETATM    4  N2  UNL     1       9.968  12.076   7.506  1.00  0.00    -0.201 N
ATOM      5  H2  UNL     1       9.563  12.636   8.256  1.00  0.00     0.202 HD
BRANCH   4   6
HETATM    6  N1  UNL     1      11.287  11.702   7.511  1.00  0.00    -0.189 N
BRANCH   6   7
HETATM    7  C3  UNL     1      11.579  10.451   8.131  1.00  0.00     0.204 C
BRANCH   7   8
HETATM    8  C2  UNL     1      10.580  10.062   9.160  1.00  0.00    -0.013 C
HETATM    9  C1  UNL     1       9.802   9.010   8.974  1.00  0.00     0.008 C
ENDBRANCH   7   8
ENDBRANCH   6   7
BRANCH   6  10
HETATM   10  O1  UNL     1      12.013  12.023   6.451  1.00  0.00    -0.271 OA
ATOM     11  H1  UNL     1      12.782  12.559   6.609  1.00  0.00     0.246 HD
ENDBRANCH   6  10
ENDBRANCH   4   6
ENDBRANCH   1   4
BRANCH   1  12
HETATM   12  C4  UNL     1       7.376  11.393   6.674  1.00  0.00     0.082 A
HETATM   13  C5  UNL     1       6.517  12.482   6.783  1.00  0.00     0.026 A
HETATM   14  C6  UNL     1       5.206  12.335   7.178  1.00  0.00     0.014 A
HETATM   15  C7  UNL     1       4.704  11.091   7.479  1.00  0.00    -0.026 A
HETATM   16  C8  UNL     1       3.403  10.877   7.879  1.00  0.00     0.012 A
HETATM   17  C12 UNL     1       5.533   9.976   7.381  1.00  0.00    -0.025 A
HETATM   18  C9  UNL     1       2.916   9.613   8.178  1.00  0.00     0.001 A
HETATM   19  C10 UNL     1       3.750   8.544   8.072  1.00  0.00     0.001 A
HETATM   20  C11 UNL     1       5.065   8.714   7.674  1.00  0.00     0.012 A
HETATM   21  C13 UNL     1       6.843  10.160   6.981  1.00  0.00     0.037 A
ENDBRANCH   1  12
TORSDOF 6
ENDMDL