MODEL 1
REMARK VINA RESULT: -7.136111966      0.000      0.000
REMARK  7 active torsions:
REMARK  status: ('A' for Active; 'I' for Inactive)
REMARK    1  A    between atoms: C2_2  and  C3_3
REMARK    2  A    between atoms: C3_3  and  O1_4
REMARK    3  A    between atoms: O1_4  and  C4_5
REMARK    4  A    between atoms: C4_5  and  C5_6
REMARK    5  A    between atoms: C5_6  and  C6_7
REMARK    6  A    between atoms: C10_14  and  C11_15
REMARK    7  A    between atoms: C12_16  and  C13_17
ROOT
HETATM    1  C6  UNL     1       9.530  12.217   6.976  1.00  0.00     0.033 A
HETATM    2  N1  UNL     1      10.644  12.686   6.388  1.00  0.00    -0.326 N
ATOM      3  H1  UNL     1      11.353  13.116   6.983  1.00  0.00     0.169 HD
HETATM    4  C7  UNL     1      10.884  12.626   5.065  1.00  0.00     0.245 A
HETATM    5  O2  UNL     1      11.976  13.103   4.604  1.00  0.00    -0.268 OA
HETATM    6  C8  UNL     1       9.962  12.059   4.224  1.00  0.00     0.076 A
HETATM    7  C9  UNL     1       8.800  11.559   4.770  1.00  0.00     0.028 A
HETATM    8  C10 UNL     1       8.589  11.640   6.147  1.00  0.00     0.041 A
ENDROOT
BRANCH   8   9
HETATM    9  C11 UNL     1       7.378  11.108   6.703  1.00  0.00    -0.058 C
HETATM   10  C12 UNL     1       6.356  10.659   7.196  1.00  0.00    -0.043 C
BRANCH  10  11
HETATM   11  C13 UNL     1       5.146  10.153   7.783  1.00  0.00     0.086 A
HETATM   12  C14 UNL     1       4.329  10.986   8.520  1.00  0.00     0.039 A
HETATM   13  C15 UNL     1       3.170  10.538   9.092  1.00  0.00     0.004 A
HETATM   14  C16 UNL     1       2.850   9.203   8.899  1.00  0.00     0.017 A
HETATM   15  C17 UNL     1       3.678   8.374   8.155  1.00  0.00     0.089 A
HETATM   16  N2  UNL     1       4.809   8.862   7.612  1.00  0.00    -0.359 N
ATOM     17  H2  UNL     1       5.415   8.248   7.066  1.00  0.00     0.166 HD
ENDBRANCH  10  11
ENDBRANCH   8   9
BRANCH   1  18
HETATM   18  C5  UNL     1       9.358  12.339   8.442  1.00  0.00     0.084 C
BRANCH  18  19
HETATM   19  C4  UNL     1      10.128  11.275   9.208  1.00  0.00     0.174 C
BRANCH  19  20
HETATM   20  O1  UNL     1       9.319  10.160   9.277  1.00  0.00    -0.387 OA
BRANCH  20  21
HETATM   21  C3  UNL     1       9.823   9.076   8.594  1.00  0.00     0.194 C
BRANCH  21  22
HETATM   22  C2  UNL     1      11.104   9.514   7.941  1.00  0.00    -0.011 C
HETATM   23  C1  UNL     1      11.297   9.220   6.662  1.00  0.00     0.009 C
ENDBRANCH  21  22
ENDBRANCH  20  21
ENDBRANCH  19  20
ENDBRANCH  18  19
ENDBRANCH   1  18
TORSDOF 7
ENDMDL