MODEL 1
REMARK VINA RESULT: -6.752636060      0.000      0.000
REMARK  6 active torsions:
REMARK  status: ('A' for Active; 'I' for Inactive)
REMARK    1  A    between atoms: C2_2  and  C3_3
REMARK    2  A    between atoms: C3_3  and  C4_4
REMARK       I    between atoms: C4_4  and  N1_6
REMARK    3  A    between atoms: N1_6  and  C5_8
REMARK    4  A    between atoms: C8_12  and  C9_13
REMARK    5  A    between atoms: C9_13  and  O3_15
REMARK    6  A    between atoms: O3_15  and  C10_16
ROOT
HETATM    1  C5  UNL     1     -31.771  25.141  18.764  1.00  0.00     0.094 A
HETATM    2  S1  UNL     1     -32.853  23.791  19.144  1.00  0.00    -0.075 SA
HETATM    3  C6  UNL     1     -32.677  23.742  20.802  1.00  0.00    -0.008 A
HETATM    4  C7  UNL     1     -31.790  24.750  21.066  1.00  0.00    -0.026 A
HETATM    5  C8  UNL     1     -31.317  25.466  20.008  1.00  0.00     0.080 A
HETATM    6  C12 UNL     1     -31.538  24.869  22.553  1.00  0.00     0.041 C
HETATM    7  C13 UNL     1     -32.850  24.932  23.315  1.00  0.00     0.005 C
HETATM    8  C14 UNL     1     -33.867  23.934  22.892  1.00  0.00     0.005 C
HETATM    9  C15 UNL     1     -33.184  22.942  21.982  1.00  0.00     0.047 C
ENDROOT
BRANCH   1  10
HETATM   10  N1  UNL     1     -31.583  25.560  17.432  1.00  0.00    -0.320 N
HETATM   11  C4  UNL     1     -30.491  25.768  16.620  1.00  0.00     0.222 C
HETATM   12  O1  UNL     1     -29.307  25.650  16.986  1.00  0.00    -0.273 OA
ATOM     13  H1  UNL     1     -32.463  25.755  16.957  1.00  0.00     0.169 HD
BRANCH  11  14
HETATM   14  C3  UNL     1     -30.690  26.174  15.165  1.00  0.00     0.103 C
BRANCH  14  15
HETATM   15  C2  UNL     1     -29.585  27.059  14.704  1.00  0.00     0.005 C
HETATM   16  C1  UNL     1     -29.160  26.729  13.297  1.00  0.00     0.005 C
ENDBRANCH  14  15
ENDBRANCH  11  14
ENDBRANCH   1  10
BRANCH   5  17
HETATM   17  C9  UNL     1     -30.126  26.360  20.154  1.00  0.00     0.296 C
HETATM   18  O2  UNL     1     -28.998  25.830  20.225  1.00  0.00    -0.259 OA
BRANCH  17  19
HETATM   19  O3  UNL     1     -30.140  27.714  20.200  1.00  0.00    -0.318 OA
BRANCH  19  20
HETATM   20  C10 UNL     1     -30.920  28.554  19.377  1.00  0.00     0.174 C
HETATM   21  C11 UNL     1     -30.251  28.862  18.065  1.00  0.00     0.034 C
ENDBRANCH  19  20
ENDBRANCH  17  19
ENDBRANCH   5  17
TORSDOF 6
ENDMDL