MODEL 2
REMARK VINA RESULT: -6.895853834      1.396      1.954
REMARK  5 active torsions:
REMARK  status: ('A' for Active; 'I' for Inactive)
REMARK    1  A    between atoms: O1_2  and  C2_3
REMARK    2  A    between atoms: C4_5  and  S1_6
REMARK    3  A    between atoms: C6_9  and  C7_10
REMARK       I    between atoms: C7_10  and  N1_12
REMARK    4  A    between atoms: N1_12  and  C8_14
REMARK    5  A    between atoms: C8_14  and  C9_15
ROOT
HETATM    1  C7  UNL     1     -30.883  25.882  17.863  1.00  0.00     0.261 C
HETATM    2  O2  UNL     1     -31.724  25.628  16.943  1.00  0.00    -0.267 OA
HETATM    3  N1  UNL     1     -29.838  26.768  17.586  1.00  0.00    -0.356 N
ATOM      4  H1  UNL     1     -29.157  26.988  18.314  1.00  0.00     0.162 HD
ENDROOT
BRANCH   1   5
HETATM    5  C6  UNL     1     -31.076  25.225  19.145  1.00  0.00     0.107 A
HETATM    6  C2  UNL     1     -30.506  25.405  20.377  1.00  0.00     0.092 A
HETATM    7  C3  UNL     1     -30.921  24.608  21.374  1.00  0.00     0.064 A
HETATM    8  C4  UNL     1     -31.885  23.673  21.086  1.00  0.00     0.044 A
HETATM    9  S2  UNL     1     -32.180  23.935  19.433  1.00  0.00    -0.075 SA
BRANCH   6  10
HETATM   10  O1  UNL     1     -29.515  26.412  20.547  1.00  0.00    -0.354 OA
HETATM   11  C1  UNL     1     -29.852  27.705  20.977  1.00  0.00     0.210 C
ENDBRANCH   6  10
BRANCH   8  12
HETATM   12  S1  UNL     1     -32.621  22.481  22.227  1.00  0.00    -0.127 SA
HETATM   13  C5  UNL     1     -33.049  20.987  21.298  1.00  0.00     0.096 C
ENDBRANCH   8  12
ENDBRANCH   1   5
BRANCH   3  14
HETATM   14  C8  UNL     1     -29.711  27.372  16.287  1.00  0.00     0.127 C
BRANCH  14  15
HETATM   15  C9  UNL     1     -28.695  26.682  15.410  1.00  0.00     0.003 C
HETATM   16  C10 UNL     1     -29.489  25.678  14.558  1.00  0.00     0.006 C
HETATM   17  C11 UNL     1     -30.013  26.424  13.369  1.00  0.00     0.000 C
HETATM   18  C12 UNL     1     -28.861  26.618  12.395  1.00  0.00     0.000 C
HETATM   19  C13 UNL     1     -27.699  27.207  13.174  1.00  0.00     0.000 C
HETATM   20  C14 UNL     1     -28.127  27.766  14.495  1.00  0.00     0.006 C
ENDBRANCH  14  15
ENDBRANCH   3  14
TORSDOF 5
ENDMDL