MODEL 5
REMARK VINA RESULT: -7.703917017      3.605      8.399
REMARK  4 active torsions:
REMARK  status: ('A' for Active; 'I' for Inactive)
REMARK    1  A    between atoms: C7_7  and  N1_8
REMARK       I    between atoms: N1_8  and  C8_10
REMARK    2  A    between atoms: C8_10  and  C9_12
REMARK    3  A    between atoms: C10_13  and  C11_14
REMARK    4  A    between atoms: C14_17  and  N2_18
ROOT
HETATM    1  N1  UNL     1     -29.085  27.442  15.874  1.00  0.00    -0.353 N
ATOM      2  H1  UNL     1     -29.161  28.455  15.974  1.00  0.00     0.163 HD
HETATM    3  C8  UNL     1     -29.577  26.607  16.931  1.00  0.00     0.241 C
HETATM    4  O1  UNL     1     -29.462  25.401  16.761  1.00  0.00    -0.269 OA
ENDROOT
BRANCH   3   5
HETATM    5  C9  UNL     1     -30.157  27.219  18.087  1.00  0.00     0.075 C
HETATM    6  C10 UNL     1     -30.954  26.833  19.007  1.00  0.00     0.024 C
BRANCH   6   7
HETATM    7  C11 UNL     1     -31.598  25.544  19.212  1.00  0.00     0.007 A
HETATM    8  C12 UNL     1     -32.915  25.220  18.897  1.00  0.00     0.022 A
HETATM    9  C13 UNL     1     -33.325  23.985  19.159  1.00  0.00     0.045 A
HETATM   10  C14 UNL     1     -32.439  23.108  19.716  1.00  0.00     0.144 A
HETATM   11  S1  UNL     1     -31.042  24.056  19.857  1.00  0.00    -0.067 SA
BRANCH  10  12
HETATM   12  N2  UNL     1     -32.652  21.744  20.080  1.00  0.00    -0.108 N
HETATM   13  O2  UNL     1     -33.375  21.452  21.039  1.00  0.00    -0.531 OA
HETATM   14  O3  UNL     1     -32.054  20.746  19.366  1.00  0.00    -0.531 OA
ENDBRANCH  10  12
ENDBRANCH   6   7
ENDBRANCH   3   5
BRANCH   1  15
HETATM   15  C7  UNL     1     -28.485  26.906  14.671  1.00  0.00     0.088 C
HETATM   16  C2  UNL     1     -27.067  27.321  14.470  1.00  0.00     0.004 C
HETATM   17  C1  UNL     1     -26.892  28.729  13.999  1.00  0.00     0.012 C
HETATM   18  C3  UNL     1     -26.513  26.410  13.367  1.00  0.00     0.006 C
HETATM   19  C4  UNL     1     -27.275  26.641  12.102  1.00  0.00     0.001 C
HETATM   20  C5  UNL     1     -28.763  26.527  12.255  1.00  0.00     0.002 C
HETATM   21  C6  UNL     1     -29.318  27.225  13.445  1.00  0.00     0.025 C
ENDBRANCH   1  15
TORSDOF 4
ENDMDL