MODEL 3
REMARK VINA RESULT: -5.553195379      2.261      6.060
REMARK  5 active torsions:
REMARK  status: ('A' for Active; 'I' for Inactive)
REMARK    1  A    between atoms: C2_2  and  C3_3
REMARK    2  A    between atoms: C3_3  and  C4_4
REMARK    3  A    between atoms: C5_5  and  C6_6
REMARK       I    between atoms: C6_6  and  N1_8
REMARK    4  A    between atoms: N1_8  and  C7_9
REMARK    5  A    between atoms: N1_8  and  C10_12
ROOT
HETATM    1  C4  UNL     1     -32.023  22.380  21.036  1.00  0.00    -0.012 A
HETATM    2  C5  UNL     1     -31.057  23.311  21.391  1.00  0.00     0.082 A
HETATM    3  S1  UNL     1     -29.625  22.399  21.393  1.00  0.00    -0.068 SA
HETATM    4  C13 UNL     1     -30.229  20.887  20.949  1.00  0.00     0.109 A
HETATM    5  N2  UNL     1     -29.499  19.646  20.763  1.00  0.00    -0.093 NA
HETATM    6  C14 UNL     1     -31.581  21.128  20.806  1.00  0.00     0.083 A
HETATM    7  C15 UNL     1     -32.397  19.974  20.347  1.00  0.00     0.102 C
HETATM    8  N3  UNL     1     -33.011  19.040  19.962  1.00  0.00    -0.191 NA
ENDROOT
BRANCH   1   9
HETATM    9  C3  UNL     1     -33.459  22.824  21.013  1.00  0.00     0.041 C
BRANCH   9  10
HETATM   10  C2  UNL     1     -34.279  22.619  22.227  1.00  0.00     0.000 C
HETATM   11  C1  UNL     1     -34.237  23.681  23.267  1.00  0.00     0.005 C
ENDBRANCH   9  10
ENDBRANCH   1   9
BRANCH   2  12
HETATM   12  C6  UNL     1     -31.205  24.761  21.579  1.00  0.00     0.262 C
HETATM   13  O1  UNL     1     -31.201  25.165  22.807  1.00  0.00    -0.267 OA
HETATM   14  N1  UNL     1     -31.345  25.742  20.601  1.00  0.00    -0.340 N
BRANCH  14  15
HETATM   15  C7  UNL     1     -31.376  25.669  19.169  1.00  0.00     0.079 C
HETATM   16  C8  UNL     1     -30.094  25.228  18.524  1.00  0.00     0.032 C
HETATM   17  C9  UNL     1     -32.617  25.003  18.592  1.00  0.00     0.032 C
ENDBRANCH  14  15
BRANCH  14  18
HETATM   18  C10 UNL     1     -31.533  27.118  21.156  1.00  0.00     0.079 C
HETATM   19  C11 UNL     1     -30.255  27.916  21.079  1.00  0.00     0.032 C
HETATM   20  C12 UNL     1     -32.639  27.856  20.515  1.00  0.00     0.032 C
ENDBRANCH  14  18
ENDBRANCH   2  12
TORSDOF 5
ENDMDL