MODEL 5
REMARK VINA RESULT: -5.676394530      3.081      4.556
REMARK  7 active torsions:
REMARK  status: ('A' for Active; 'I' for Inactive)
REMARK    1  A    between atoms: C2_2  and  C3_3
REMARK    2  A    between atoms: C3_3  and  C4_4
REMARK    3  A    between atoms: C3_3  and  C6_7
REMARK    4  A    between atoms: C6_7  and  C8_10
REMARK       I    between atoms: C8_10  and  N3_12
REMARK    5  A    between atoms: N3_12  and  C9_14
REMARK    6  A    between atoms: C9_14  and  S2_16
REMARK    7  A    between atoms: S2_16  and  C10_17
ROOT
HETATM    1  C4  UNL     1     -29.901  25.611  15.264  1.00  0.00     0.130 C
HETATM    2  C5  UNL     1     -30.562  25.627  13.940  1.00  0.00     0.059 C
HETATM    3  N1  UNL     1     -31.085  25.657  12.910  1.00  0.00    -0.197 NA
ENDROOT
BRANCH   1   4
HETATM    4  C3  UNL     1     -30.400  26.726  16.117  1.00  0.00     0.025 C
BRANCH   4   5
HETATM    5  C2  UNL     1     -29.934  28.024  15.449  1.00  0.00     0.003 C
HETATM    6  C1  UNL     1     -28.556  27.886  14.883  1.00  0.00     0.005 C
ENDBRANCH   4   5
BRANCH   4   7
HETATM    7  C6  UNL     1     -29.909  26.754  17.535  1.00  0.00     0.190 C
HETATM    8  C7  UNL     1     -30.211  28.140  18.020  1.00  0.00     0.074 C
HETATM    9  N2  UNL     1     -30.427  29.207  18.405  1.00  0.00    -0.196 NA
BRANCH   7  10
HETATM   10  C8  UNL     1     -30.767  25.843  18.362  1.00  0.00     0.241 C
HETATM   11  O1  UNL     1     -31.892  25.493  17.882  1.00  0.00    -0.272 OA
HETATM   12  N3  UNL     1     -30.346  25.390  19.620  1.00  0.00    -0.311 N
ATOM     13  H3  UNL     1     -29.443  25.688  19.989  1.00  0.00     0.170 HD
BRANCH  12  14
HETATM   14  C9  UNL     1     -31.168  24.521  20.380  1.00  0.00     0.141 C
HETATM   15  S1  UNL     1     -32.195  25.131  21.458  1.00  0.00    -0.052 SA
BRANCH  14  16
HETATM   16  S2  UNL     1     -30.999  22.767  20.079  1.00  0.00    -0.091 SA
BRANCH  16  17
HETATM   17  C10 UNL     1     -32.594  21.945  19.921  1.00  0.00     0.004 C
HETATM   18  C11 UNL     1     -32.377  20.678  19.119  1.00  0.00     0.026 C
HETATM   19  C12 UNL     1     -33.197  21.563  21.233  1.00  0.00     0.026 C
HETATM   20  C13 UNL     1     -33.570  22.797  19.140  1.00  0.00     0.026 C
ENDBRANCH  16  17
ENDBRANCH  14  16
ENDBRANCH  12  14
ENDBRANCH   7  10
ENDBRANCH   4   7
ENDBRANCH   1   4
TORSDOF 7
ENDMDL