MODEL 5
REMARK VINA RESULT: -6.287530400      5.584      8.831
REMARK  6 active torsions:
REMARK  status: ('A' for Active; 'I' for Inactive)
REMARK    1  A    between atoms: N1_2  and  C2_5
REMARK    2  A    between atoms: C2_5  and  C3_6
REMARK    3  A    between atoms: C3_6  and  O1_7
REMARK    4  A    between atoms: C3_6  and  C8_12
REMARK    5  A    between atoms: O1_7  and  C4_8
REMARK    6  A    between atoms: C11_15  and  C12_16
ROOT
HETATM    1  C8  UNL     1     -32.589  22.155  20.501  1.00  0.00     0.016 C
HETATM    2  C9  UNL     1     -32.815  21.142  21.597  1.00  0.00     0.008 C
HETATM    3  C10 UNL     1     -32.048  19.898  21.246  1.00  0.00     0.011 C
HETATM    4  C11 UNL     1     -32.347  19.368  19.882  1.00  0.00     0.043 C
HETATM    5  C15 UNL     1     -32.598  20.380  18.840  1.00  0.00     0.011 C
HETATM    6  C16 UNL     1     -33.309  21.636  19.279  1.00  0.00     0.008 C
ENDROOT
BRANCH   1   7
HETATM    7  C3  UNL     1     -32.958  23.547  20.879  1.00  0.00     0.152 C
BRANCH   7   8
HETATM    8  C2  UNL     1     -33.202  23.666  22.392  1.00  0.00     0.264 C
BRANCH   8   9
HETATM    9  N1  UNL     1     -32.114  24.325  23.050  1.00  0.00    -0.077 N
HETATM   10  C1  UNL     1     -32.521  25.431  23.858  1.00  0.00     0.267 C
ATOM     11  H12 UNL     1     -31.406  24.613  22.375  1.00  0.00     0.276 HD
ATOM     12  H11 UNL     1     -31.568  23.660  23.598  1.00  0.00     0.276 HD
ENDBRANCH   8   9
ENDBRANCH   7   8
BRANCH   7  13
HETATM   13  O1  UNL     1     -32.055  24.516  20.569  1.00  0.00    -0.374 OA
BRANCH  13  14
HETATM   14  C4  UNL     1     -32.360  25.391  19.576  1.00  0.00     0.050 C
HETATM   15  C5  UNL     1     -31.477  25.387  18.372  1.00  0.00     0.045 C
HETATM   16  C6  UNL     1     -33.788  25.299  19.085  1.00  0.00     0.045 C
HETATM   17  C7  UNL     1     -32.241  26.798  20.188  1.00  0.00     0.045 C
ENDBRANCH  13  14
ENDBRANCH   7  13
ENDBRANCH   1   7
BRANCH   4  18
HETATM   18  C12 UNL     1     -33.511  18.408  19.939  1.00  0.00     0.054 A
HETATM   19  N2  UNL     1     -34.464  18.209  19.041  1.00  0.00    -0.363 N
HETATM   20  C13 UNL     1     -35.390  17.335  19.268  1.00  0.00     0.095 A
ATOM     21  H2  UNL     1     -34.469  18.744  18.172  1.00  0.00     0.165 HD
HETATM   22  C14 UNL     1     -35.338  16.643  20.454  1.00  0.00     0.068 A
HETATM   23  S1  UNL     1     -33.936  17.308  21.172  1.00  0.00    -0.087 SA
ENDBRANCH   4  18
TORSDOF 6
ENDMDL