MODEL 5
REMARK VINA RESULT: -6.321400813      0.993      1.399
REMARK  7 active torsions:
REMARK  status: ('A' for Active; 'I' for Inactive)
REMARK    1  A    between atoms: C2_2  and  C9_11
REMARK    2  A    between atoms: N1_3  and  C3_5
REMARK    3  A    between atoms: C3_5  and  C4_6
REMARK    4  A    between atoms: C9_11  and  C11_14
REMARK    5  A    between atoms: C11_14  and  S1_20
REMARK    6  A    between atoms: N3_15  and  N4_17
REMARK    7  A    between atoms: S1_20  and  C12_21
ROOT
HETATM    1  C9  UNL     1     -32.187  22.687  21.256  1.00  0.00     0.195 C
HETATM    2  C10 UNL     1     -33.318  22.941  22.187  1.00  0.00     0.076 C
HETATM    3  N2  UNL     1     -34.199  23.156  22.905  1.00  0.00    -0.196 NA
ENDROOT
BRANCH   1   4
HETATM    4  C2  UNL     1     -32.623  22.784  19.854  1.00  0.00     0.002 C
HETATM    5  C1  UNL     1     -33.295  24.010  19.326  1.00  0.00     0.064 C
HETATM    6  N1  UNL     1     -32.438  21.826  19.060  1.00  0.00    -0.395 N
ATOM      7  H1  UNL     1     -32.764  21.958  18.103  1.00  0.00     0.159 HD
BRANCH   6   8
HETATM    8  C3  UNL     1     -31.827  20.586  19.352  1.00  0.00     0.123 C
BRANCH   8   9
HETATM    9  C4  UNL     1     -32.359  19.566  18.352  1.00  0.00     0.003 C
HETATM   10  C5  UNL     1     -32.683  18.241  19.010  1.00  0.00     0.006 C
HETATM   11  C6  UNL     1     -32.863  17.364  17.764  1.00  0.00     0.000 C
HETATM   12  C7  UNL     1     -31.743  17.846  16.858  1.00  0.00     0.000 C
HETATM   13  C8  UNL     1     -31.224  19.132  17.414  1.00  0.00     0.006 C
ENDBRANCH   8   9
ENDBRANCH   6   8
ENDBRANCH   1   4
BRANCH   1  14
HETATM   14  C11 UNL     1     -31.119  23.634  21.610  1.00  0.00     0.085 C
HETATM   15  N3  UNL     1     -29.892  23.246  21.646  1.00  0.00    -0.303 N
ATOM     16  H3  UNL     1     -29.188  23.941  21.896  1.00  0.00     0.186 HD
BRANCH  15  17
HETATM   17  N4  UNL     1     -29.452  21.968  21.375  1.00  0.00    -0.344 N
ATOM     18  H42 UNL     1     -30.167  21.294  21.100  1.00  0.00     0.176 HD
ATOM     19  H41 UNL     1     -28.483  21.654  21.428  1.00  0.00     0.176 HD
ENDBRANCH  15  17
BRANCH  14  20
HETATM   20  S1  UNL     1     -31.458  25.337  21.997  1.00  0.00    -0.105 SA
BRANCH  20  21
HETATM   21  C12 UNL     1     -30.945  26.450  20.681  1.00  0.00     0.003 C
HETATM   22  C13 UNL     1     -30.236  25.724  19.560  1.00  0.00     0.026 C
HETATM   23  C14 UNL     1     -30.020  27.517  21.279  1.00  0.00     0.026 C
HETATM   24  C15 UNL     1     -32.158  27.154  20.141  1.00  0.00     0.026 C
ENDBRANCH  20  21
ENDBRANCH  14  20
ENDBRANCH   1  14
TORSDOF 7
ENDMDL