MODEL 5
REMARK VINA RESULT: -7.390804191      1.936      2.817
REMARK  5 active torsions:
REMARK  status: ('A' for Active; 'I' for Inactive)
REMARK    1  A    between atoms: C2_2  and  C3_3
REMARK    2  A    between atoms: C2_2  and  N1_9
REMARK    3  A    between atoms: N1_9  and  C9_10
REMARK    4  A    between atoms: N1_9  and  C12_19
REMARK    5  A    between atoms: C9_10  and  C10_11
ROOT
HETATM    1  N1  UNL     1     -32.274  23.747  20.631  1.00  0.00    -0.355 N
ENDROOT
BRANCH   1   2
HETATM    2  C2  UNL     1     -32.605  24.773  19.748  1.00  0.00    -0.011 C
HETATM    3  C1  UNL     1     -33.719  24.498  18.756  1.00  0.00     0.064 C
BRANCH   2   4
HETATM    4  C3  UNL     1     -31.583  25.746  19.286  1.00  0.00     0.031 C
HETATM    5  C4  UNL     1     -31.679  27.162  19.691  1.00  0.00     0.010 C
HETATM    6  C5  UNL     1     -30.252  27.747  19.521  1.00  0.00     0.001 C
HETATM    7  C6  UNL     1     -30.043  27.830  18.023  1.00  0.00     0.000 C
HETATM    8  C7  UNL     1     -30.083  26.433  17.477  1.00  0.00     0.001 C
HETATM    9  C8  UNL     1     -31.420  25.730  17.765  1.00  0.00     0.010 C
ENDBRANCH   2   4
ENDBRANCH   1   2
BRANCH   1  10
HETATM   10  C9  UNL     1     -32.244  22.405  20.347  1.00  0.00     0.149 C
BRANCH  10  11
HETATM   11  C10 UNL     1     -31.167  21.531  20.807  1.00  0.00     0.181 A
HETATM   12  N2  UNL     1     -29.867  21.804  20.887  1.00  0.00    -0.276 N
HETATM   13  N3  UNL     1     -29.265  20.734  21.352  1.00  0.00    -0.268 N
ATOM     14  H2  UNL     1     -29.421  22.685  20.634  1.00  0.00     0.189 HD
HETATM   15  C11 UNL     1     -30.202  19.799  21.558  1.00  0.00     0.235 A
ATOM     16  H3  UNL     1     -28.265  20.633  21.525  1.00  0.00     0.190 HD
HETATM   17  S1  UNL     1     -29.992  18.285  22.129  1.00  0.00    -0.031 SA
HETATM   18  O1  UNL     1     -31.344  20.312  21.219  1.00  0.00    -0.263 OA
ENDBRANCH  10  11
ENDBRANCH   1  10
BRANCH   1  19
HETATM   19  C12 UNL     1     -32.430  24.034  22.009  1.00  0.00     0.089 C
HETATM   20  C13 UNL     1     -33.314  25.111  22.499  1.00  0.00     0.026 C
HETATM   21  C14 UNL     1     -32.350  25.187  23.705  1.00  0.00     0.004 C
HETATM   22  C15 UNL     1     -31.282  24.833  22.654  1.00  0.00     0.026 C
ENDBRANCH   1  19
TORSDOF 5
ENDMDL