MODEL 2
REMARK VINA RESULT: -8.276224965      0.557      1.698
REMARK  6 active torsions:
REMARK  status: ('A' for Active; 'I' for Inactive)
REMARK    1  A    between atoms: C2_2  and  C3_3
REMARK    2  A    between atoms: C3_3  and  C4_4
REMARK    3  A    between atoms: C3_3  and  N1_7
REMARK    4  A    between atoms: C8_9  and  C9_10
REMARK    5  A    between atoms: C9_10  and  N2_12
REMARK    6  A    between atoms: N2_12  and  C10_14
ROOT
HETATM    1  N1  UNL     1     -30.547  26.716  17.845  1.00  0.00    -0.282 N
HETATM    2  C7  UNL     1     -30.149  25.990  16.786  1.00  0.00     0.146 A
HETATM    3  C8  UNL     1     -29.509  26.825  15.871  1.00  0.00     0.104 A
HETATM    4  N3  UNL     1     -29.558  28.051  16.449  1.00  0.00    -0.282 N
ATOM      5  H3  UNL     1     -29.179  28.909  16.051  1.00  0.00     0.188 HD
HETATM    6  N4  UNL     1     -30.176  27.953  17.609  1.00  0.00    -0.240 N
ATOM      7  H4  UNL     1     -30.343  28.736  18.241  1.00  0.00     0.208 HD
ENDROOT
BRANCH   3   8
HETATM    8  C9  UNL     1     -28.927  26.456  14.594  1.00  0.00     0.126 C
HETATM    9  S1  UNL     1     -29.919  26.279  13.323  1.00  0.00    -0.058 SA
BRANCH   8  10
HETATM   10  N2  UNL     1     -27.538  26.246  14.475  1.00  0.00    -0.374 N
ATOM     11  H2  UNL     1     -27.117  25.534  15.071  1.00  0.00     0.161 HD
BRANCH  10  12
HETATM   12  C10 UNL     1     -26.668  26.958  13.579  1.00  0.00     0.082 C
HETATM   13  C11 UNL     1     -25.237  26.511  13.812  1.00  0.00     0.025 C
HETATM   14  C12 UNL     1     -24.233  27.404  13.165  1.00  0.00     0.002 C
HETATM   15  C13 UNL     1     -24.813  28.382  12.180  1.00  0.00     0.000 C
HETATM   16  C14 UNL     1     -25.969  29.165  12.754  1.00  0.00     0.002 C
HETATM   17  C15 UNL     1     -26.669  28.448  13.862  1.00  0.00     0.025 C
ENDBRANCH  10  12
ENDBRANCH   8  10
ENDBRANCH   3   8
BRANCH   1  18
HETATM   18  C3  UNL     1     -31.259  26.208  19.032  1.00  0.00     0.112 C
BRANCH  18  19
HETATM   19  C2  UNL     1     -32.086  25.027  18.695  1.00  0.00     0.023 C
HETATM   20  C1  UNL     1     -33.540  25.112  19.060  1.00  0.00     0.007 C
ENDBRANCH  18  19
BRANCH  18  21
HETATM   21  C4  UNL     1     -30.362  26.130  20.201  1.00  0.00     0.002 C
HETATM   22  C5  UNL     1     -30.234  24.751  20.799  1.00  0.00     0.011 C
HETATM   23  C6  UNL     1     -30.602  27.118  21.304  1.00  0.00     0.011 C
ENDBRANCH  18  21
ENDBRANCH   1  18
TORSDOF 6
ENDMDL