MODEL 4
REMARK VINA RESULT: -10.085894897      1.725      2.519
REMARK  7 active torsions:
REMARK  status: ('A' for Active; 'I' for Inactive)
REMARK       I    between atoms: C1_2  and  N1_3
REMARK    1  A    between atoms: C1_2  and  C15_22
REMARK    2  A    between atoms: N1_3  and  C2_5
REMARK    3  A    between atoms: C5_8  and  C6_9
REMARK    4  A    between atoms: C20_27  and  N4_28
REMARK    5  A    between atoms: N4_28  and  C21_30
REMARK    6  A    between atoms: C21_30  and  C22_31
REMARK    7  A    between atoms: C22_31  and  C23_32
ROOT
HETATM    1  O1  UNL     1     -14.842  25.656  -2.695  1.00  0.00    -0.267 OA
HETATM    2  C1  UNL     1     -15.776  26.219  -3.276  1.00  0.00     0.258 C
HETATM    3  N1  UNL     1     -16.556  27.140  -2.534  1.00  0.00    -0.323 N
ATOM      4  H1  UNL     1     -17.338  27.601  -2.999  1.00  0.00     0.169 HD
ENDROOT
BRANCH   3   5
HETATM    5  C2  UNL     1     -16.297  27.451  -1.159  1.00  0.00     0.035 A
HETATM    6  C3  UNL     1     -16.388  26.432  -0.200  1.00  0.00     0.030 A
HETATM    7  C4  UNL     1     -16.184  26.728   1.115  1.00  0.00     0.017 A
HETATM    8  C5  UNL     1     -15.888  28.008   1.549  1.00  0.00     0.008 A
HETATM    9  C13 UNL     1     -15.807  28.974   0.585  1.00  0.00     0.017 A
HETATM   10  C14 UNL     1     -16.008  28.730  -0.783  1.00  0.00     0.030 A
BRANCH   8  11
HETATM   11  C6  UNL     1     -15.682  28.274   2.968  1.00  0.00     0.116 A
HETATM   12  N2  UNL     1     -15.283  27.367   3.873  1.00  0.00    -0.340 N
HETATM   13  C7  UNL     1     -15.191  27.920   5.101  1.00  0.00     0.060 A
ATOM     14  H2  UNL     1     -15.076  26.391   3.661  1.00  0.00     0.167 HD
HETATM   15  C8  UNL     1     -14.836  27.438   6.342  1.00  0.00     0.032 A
HETATM   16  C12 UNL     1     -15.555  29.249   4.945  1.00  0.00     0.060 A
HETATM   17  C9  UNL     1     -14.842  28.278   7.431  1.00  0.00     0.002 A
HETATM   18  C10 UNL     1     -15.199  29.608   7.311  1.00  0.00     0.002 A
HETATM   19  C11 UNL     1     -15.550  30.062   6.060  1.00  0.00     0.032 A
HETATM   20  N3  UNL     1     -15.842  29.409   3.633  1.00  0.00    -0.340 N
ATOM     21  H3  UNL     1     -16.144  30.288   3.212  1.00  0.00     0.167 HD
ENDBRANCH   8  11
ENDBRANCH   3   5
BRANCH   2  22
HETATM   22  C15 UNL     1     -16.086  25.963  -4.672  1.00  0.00     0.058 A
HETATM   23  C16 UNL     1     -17.445  25.983  -5.061  1.00  0.00     0.019 A
HETATM   24  C17 UNL     1     -17.794  25.798  -6.360  1.00  0.00     0.001 A
HETATM   25  C18 UNL     1     -16.836  25.590  -7.323  1.00  0.00     0.002 A
HETATM   26  C19 UNL     1     -15.517  25.570  -6.943  1.00  0.00     0.030 A
HETATM   27  C20 UNL     1     -15.109  25.757  -5.598  1.00  0.00     0.043 A
BRANCH  27  28
HETATM   28  N4  UNL     1     -13.739  25.655  -5.301  1.00  0.00    -0.389 N
ATOM     29  H4  UNL     1     -13.337  26.285  -4.606  1.00  0.00     0.159 HD
BRANCH  28  30
HETATM   30  C21 UNL     1     -12.872  24.680  -5.953  1.00  0.00     0.124 C
BRANCH  30  31
HETATM   31  C22 UNL     1     -13.086  23.278  -5.467  1.00  0.00     0.058 C
BRANCH  31  32
HETATM   32  C23 UNL     1     -14.334  22.691  -6.015  1.00  0.00    -0.057 A
HETATM   33  C24 UNL     1     -14.420  22.450  -7.387  1.00  0.00     0.007 A
HETATM   34  C25 UNL     1     -15.548  21.915  -7.968  1.00  0.00     0.001 A
HETATM   35  C26 UNL     1     -16.617  21.613  -7.165  1.00  0.00     0.000 A
HETATM   36  C27 UNL     1     -16.570  21.838  -5.805  1.00  0.00     0.001 A
HETATM   37  C28 UNL     1     -15.426  22.377  -5.239  1.00  0.00     0.007 A
ENDBRANCH  31  32
ENDBRANCH  30  31
ENDBRANCH  28  30
ENDBRANCH  27  28
ENDBRANCH   2  22
TORSDOF 7
ENDMDL