MODEL 1
REMARK VINA RESULT: -11.717013104      0.000      0.000
REMARK  7 active torsions:
REMARK  status: ('A' for Active; 'I' for Inactive)
REMARK       I    between atoms: C1_2  and  N1_3
REMARK       I    between atoms: C1_2  and  N2_17
REMARK    1  A    between atoms: N1_3  and  C2_5
REMARK    2  A    between atoms: C5_8  and  C6_9
REMARK    3  A    between atoms: N2_17  and  C14_19
REMARK    4  A    between atoms: C17_22  and  C18_23
REMARK       I    between atoms: C18_23  and  N3_25
REMARK    5  A    between atoms: N3_25  and  C19_27
REMARK    6  A    between atoms: C19_27  and  C20_28
REMARK    7  A    between atoms: C20_28  and  C21_29
ROOT
HETATM    1  O1  UNL     1     -14.235  25.700  -3.762  1.00  0.00    -0.247 OA
HETATM    2  C1  UNL     1     -15.106  25.598  -4.637  1.00  0.00     0.325 C
HETATM    3  N1  UNL     1     -15.004  24.731  -5.718  1.00  0.00    -0.309 N
ATOM      4  H1  UNL     1     -15.789  24.743  -6.370  1.00  0.00     0.170 HD
HETATM    5  N2  UNL     1     -16.272  26.426  -4.505  1.00  0.00    -0.303 N
ATOM      6  H2  UNL     1     -17.023  26.385  -5.194  1.00  0.00     0.171 HD
ENDROOT
BRANCH   5   7
HETATM    7  C14 UNL     1     -16.354  27.317  -3.375  1.00  0.00     0.078 A
HETATM    8  C15 UNL     1     -16.189  28.672  -3.343  1.00  0.00     0.039 A
HETATM    9  C16 UNL     1     -16.315  29.283  -2.163  1.00  0.00     0.027 A
HETATM   10  C17 UNL     1     -16.600  28.509  -1.070  1.00  0.00     0.074 A
HETATM   11  S1  UNL     1     -16.685  26.941  -1.730  1.00  0.00    -0.067 SA
BRANCH  10  12
HETATM   12  C18 UNL     1     -16.788  28.917   0.317  1.00  0.00     0.258 C
HETATM   13  O2  UNL     1     -17.871  29.439   0.668  1.00  0.00    -0.267 OA
HETATM   14  N3  UNL     1     -15.762  28.735   1.278  1.00  0.00    -0.356 N
ATOM     15  H3  UNL     1     -14.882  28.309   0.987  1.00  0.00     0.162 HD
BRANCH  14  16
HETATM   16  C19 UNL     1     -15.927  29.131   2.647  1.00  0.00     0.127 C
BRANCH  16  17
HETATM   17  C20 UNL     1     -15.508  28.082   3.624  1.00  0.00     0.058 C
BRANCH  17  18
HETATM   18  C21 UNL     1     -15.204  28.668   4.944  1.00  0.00    -0.057 A
HETATM   19  C22 UNL     1     -14.643  29.915   5.057  1.00  0.00     0.007 A
HETATM   20  C23 UNL     1     -14.370  30.405   6.331  1.00  0.00     0.001 A
HETATM   21  C24 UNL     1     -14.651  29.672   7.455  1.00  0.00     0.000 A
HETATM   22  C25 UNL     1     -15.215  28.424   7.313  1.00  0.00     0.001 A
HETATM   23  C26 UNL     1     -15.492  27.920   6.071  1.00  0.00     0.007 A
ENDBRANCH  17  18
ENDBRANCH  16  17
ENDBRANCH  14  16
ENDBRANCH  10  12
ENDBRANCH   5   7
BRANCH   3  24
HETATM   24  C2  UNL     1     -13.958  23.834  -6.035  1.00  0.00     0.036 A
HETATM   25  C3  UNL     1     -14.124  22.475  -5.736  1.00  0.00     0.030 A
HETATM   26  C4  UNL     1     -13.118  21.609  -6.022  1.00  0.00     0.014 A
HETATM   27  C5  UNL     1     -11.934  22.017  -6.598  1.00  0.00    -0.026 A
HETATM   28  C12 UNL     1     -11.772  23.326  -6.887  1.00  0.00     0.014 A
HETATM   29  C13 UNL     1     -12.789  24.241  -6.604  1.00  0.00     0.030 A
BRANCH  27  30
HETATM   30  C6  UNL     1     -10.868  21.034  -6.888  1.00  0.00    -0.026 A
HETATM   31  C7  UNL     1     -10.293  20.929  -8.139  1.00  0.00     0.012 A
HETATM   32  C8  UNL     1      -9.292  20.010  -8.412  1.00  0.00     0.001 A
HETATM   33  C9  UNL     1      -8.872  19.183  -7.390  1.00  0.00     0.000 A
HETATM   34  C10 UNL     1      -9.450  19.290  -6.143  1.00  0.00     0.001 A
HETATM   35  C11 UNL     1     -10.460  20.216  -5.858  1.00  0.00     0.012 A
ENDBRANCH  27  30
ENDBRANCH   3  24
TORSDOF 7
ENDMDL