MODEL 5
REMARK VINA RESULT: -9.485956133      1.850      4.999
REMARK  7 active torsions:
REMARK  status: ('A' for Active; 'I' for Inactive)
REMARK    1  A    between atoms: C4_4  and  N1_5
REMARK       I    between atoms: N1_5  and  C5_7
REMARK    2  A    between atoms: C5_7  and  C6_9
REMARK    3  A    between atoms: C14_17  and  N2_18
REMARK    4  A    between atoms: N2_18  and  C15_20
REMARK    5  A    between atoms: C20_25  and  C21_26
REMARK       I    between atoms: C21_26  and  N3_28
REMARK    6  A    between atoms: N3_28  and  C22_30
REMARK    7  A    between atoms: C22_30  and  C23_31
ROOT
HETATM    1  N2  UNL     1     -15.281  25.287  -6.321  1.00  0.00    -0.355 N
ATOM      2  H2  UNL     1     -14.817  25.865  -7.022  1.00  0.00     0.166 HD
ENDROOT
BRANCH   1   3
HETATM    3  C14 UNL     1     -15.489  25.860  -5.051  1.00  0.00     0.038 A
HETATM    4  C2  UNL     1     -15.741  27.237  -4.964  1.00  0.00    -0.033 A
HETATM    5  C1  UNL     1     -15.861  28.014  -6.193  1.00  0.00     0.050 C
HETATM    6  C3  UNL     1     -15.883  27.887  -3.741  1.00  0.00     0.038 A
HETATM    7  C4  UNL     1     -15.781  27.205  -2.575  1.00  0.00     0.035 A
HETATM    8  C12 UNL     1     -15.525  25.813  -2.644  1.00  0.00     0.032 A
HETATM    9  C13 UNL     1     -15.387  25.186  -3.862  1.00  0.00     0.032 A
BRANCH   7  10
HETATM   10  N1  UNL     1     -15.928  27.798  -1.302  1.00  0.00    -0.323 N
HETATM   11  C5  UNL     1     -15.695  27.188  -0.072  1.00  0.00     0.256 C
HETATM   12  O1  UNL     1     -15.305  25.998   0.120  1.00  0.00    -0.267 OA
ATOM     13  H1  UNL     1     -16.235  28.770  -1.281  1.00  0.00     0.169 HD
BRANCH  11  14
HETATM   14  C6  UNL     1     -15.911  27.966   1.182  1.00  0.00     0.032 A
HETATM   15  C7  UNL     1     -15.380  27.514   2.381  1.00  0.00     0.017 A
HETATM   16  C8  UNL     1     -15.563  28.196   3.555  1.00  0.00     0.001 A
HETATM   17  C9  UNL     1     -16.293  29.364   3.559  1.00  0.00     0.000 A
HETATM   18  C10 UNL     1     -16.830  29.834   2.389  1.00  0.00     0.001 A
HETATM   19  C11 UNL     1     -16.626  29.116   1.204  1.00  0.00     0.017 A
ENDBRANCH  11  14
ENDBRANCH   7  10
ENDBRANCH   1   3
BRANCH   1  20
HETATM   20  C15 UNL     1     -15.660  23.978  -6.710  1.00  0.00     0.048 A
HETATM   21  C16 UNL     1     -17.020  23.643  -6.695  1.00  0.00     0.030 A
HETATM   22  C17 UNL     1     -17.518  22.451  -7.170  1.00  0.00     0.002 A
HETATM   23  C18 UNL     1     -16.666  21.519  -7.697  1.00  0.00     0.001 A
HETATM   24  C19 UNL     1     -15.338  21.831  -7.719  1.00  0.00     0.019 A
HETATM   25  C20 UNL     1     -14.801  23.035  -7.241  1.00  0.00     0.058 A
BRANCH  25  26
HETATM   26  C21 UNL     1     -13.387  23.259  -7.245  1.00  0.00     0.254 C
HETATM   27  O2  UNL     1     -12.849  24.084  -8.006  1.00  0.00    -0.268 OA
HETATM   28  N3  UNL     1     -12.492  22.544  -6.367  1.00  0.00    -0.353 N
ATOM     29  H3  UNL     1     -12.871  21.855  -5.718  1.00  0.00     0.163 HD
BRANCH  28  30
HETATM   30  C22 UNL     1     -11.052  22.791  -6.391  1.00  0.00     0.161 C
BRANCH  30  31
HETATM   31  C23 UNL     1     -10.270  21.560  -6.136  1.00  0.00    -0.041 A
HETATM   32  C24 UNL     1      -9.939  20.744  -7.185  1.00  0.00     0.009 A
HETATM   33  C25 UNL     1      -9.216  19.581  -7.044  1.00  0.00     0.001 A
HETATM   34  C26 UNL     1      -8.817  19.247  -5.766  1.00  0.00     0.000 A
HETATM   35  C27 UNL     1      -9.122  20.032  -4.672  1.00  0.00     0.001 A
HETATM   36  C28 UNL     1      -9.853  21.192  -4.878  1.00  0.00     0.009 A
ENDBRANCH  30  31
ENDBRANCH  28  30
ENDBRANCH  25  26
ENDBRANCH   1  20
TORSDOF 7
ENDMDL