MODEL 5
REMARK VINA RESULT: -10.729329333      1.575      3.308
REMARK  7 active torsions:
REMARK  status: ('A' for Active; 'I' for Inactive)
REMARK       I    between atoms: C1_2  and  N1_3
REMARK    1  A    between atoms: C1_2  and  C15_21
REMARK    2  A    between atoms: N1_3  and  C2_4
REMARK    3  A    between atoms: C6_8  and  C7_9
REMARK    4  A    between atoms: C20_26  and  N4_27
REMARK    5  A    between atoms: N4_27  and  C21_29
REMARK    6  A    between atoms: C21_29  and  C22_30
REMARK    7  A    between atoms: C22_30  and  C23_31
ROOT
HETATM    1  O1  UNL     1     -13.341  19.661  -4.693  1.00  0.00    -0.251 OA
HETATM    2  C1  UNL     1     -13.338  20.897  -5.001  1.00  0.00     0.328 C
HETATM    3  N1  UNL     1     -14.327  21.770  -4.777  1.00  0.00    -0.366 NA
ENDROOT
BRANCH   2   4
HETATM    4  C15 UNL     1     -12.066  21.343  -5.660  1.00  0.00     0.073 A
HETATM    5  C16 UNL     1     -10.895  20.898  -5.122  1.00  0.00     0.020 A
HETATM    6  C17 UNL     1      -9.702  21.406  -5.594  1.00  0.00     0.001 A
HETATM    7  C18 UNL     1      -9.661  22.347  -6.589  1.00  0.00     0.002 A
HETATM    8  C19 UNL     1     -10.852  22.787  -7.127  1.00  0.00     0.030 A
HETATM    9  C20 UNL     1     -12.067  22.275  -6.655  1.00  0.00     0.044 A
BRANCH   9  10
HETATM   10  N4  UNL     1     -13.246  22.647  -7.314  1.00  0.00    -0.389 N
ATOM     11  H4  UNL     1     -13.974  21.965  -7.527  1.00  0.00     0.159 HD
BRANCH  10  12
HETATM   12  C21 UNL     1     -13.387  24.068  -7.687  1.00  0.00     0.124 C
BRANCH  12  13
HETATM   13  C22 UNL     1     -13.265  24.923  -6.443  1.00  0.00     0.058 C
BRANCH  13  14
HETATM   14  C23 UNL     1     -14.353  25.885  -6.283  1.00  0.00    -0.057 A
HETATM   15  C24 UNL     1     -15.613  25.776  -6.807  1.00  0.00     0.007 A
HETATM   16  C25 UNL     1     -16.545  26.777  -6.566  1.00  0.00     0.001 A
HETATM   17  C26 UNL     1     -16.224  27.884  -5.804  1.00  0.00     0.000 A
HETATM   18  C27 UNL     1     -14.959  28.016  -5.266  1.00  0.00     0.001 A
HETATM   19  C28 UNL     1     -14.049  27.018  -5.512  1.00  0.00     0.007 A
ENDBRANCH  13  14
ENDBRANCH  12  13
ENDBRANCH  10  12
ENDBRANCH   9  10
ENDBRANCH   2   4
BRANCH   3  20
HETATM   20  C2  UNL     1     -15.332  22.658  -4.550  1.00  0.00     0.112 A
HETATM   21  C3  UNL     1     -16.554  22.483  -5.267  1.00  0.00     0.045 A
HETATM   22  C4  UNL     1     -17.635  23.280  -5.094  1.00  0.00     0.004 A
HETATM   23  C5  UNL     1     -17.556  24.314  -4.183  1.00  0.00     0.015 A
HETATM   24  C6  UNL     1     -16.413  24.543  -3.457  1.00  0.00     0.011 A
HETATM   25  C14 UNL     1     -15.340  23.715  -3.660  1.00  0.00     0.060 A
BRANCH  24  26
HETATM   26  C7  UNL     1     -16.377  25.659  -2.525  1.00  0.00     0.116 A
HETATM   27  N2  UNL     1     -15.862  25.645  -1.266  1.00  0.00    -0.340 N
HETATM   28  C8  UNL     1     -16.031  26.866  -0.715  1.00  0.00     0.060 A
ATOM     29  H2  UNL     1     -15.422  24.845  -0.814  1.00  0.00     0.167 HD
HETATM   30  C9  UNL     1     -15.700  27.378   0.505  1.00  0.00     0.032 A
HETATM   31  C13 UNL     1     -16.669  27.629  -1.680  1.00  0.00     0.060 A
HETATM   32  C10 UNL     1     -15.991  28.684   0.822  1.00  0.00     0.002 A
HETATM   33  C11 UNL     1     -16.627  29.429  -0.154  1.00  0.00     0.002 A
HETATM   34  C12 UNL     1     -16.967  28.921  -1.390  1.00  0.00     0.032 A
HETATM   35  N3  UNL     1     -16.867  26.883  -2.768  1.00  0.00    -0.340 N
ATOM     36  H3  UNL     1     -17.314  27.191  -3.633  1.00  0.00     0.167 HD
ENDBRANCH  24  26
ENDBRANCH   3  20
TORSDOF 7
ENDMDL