MODEL 1
REMARK VINA RESULT: -11.481079286      0.000      0.000
REMARK  8 active torsions:
REMARK  status: ('A' for Active; 'I' for Inactive)
REMARK    1  A    between atoms: C1_4  and  C2_5
REMARK    2  A    between atoms: C1_4  and  N2_20
REMARK    3  A    between atoms: C3_6  and  C4_7
REMARK    4  A    between atoms: C7_10  and  C8_11
REMARK    5  A    between atoms: C9_12  and  C10_13
REMARK    6  A    between atoms: N2_20  and  C16_22
REMARK    7  A    between atoms: C19_25  and  C20_26
REMARK       I    between atoms: C20_26  and  N3_28
REMARK    8  A    between atoms: N3_28  and  C21_30
ROOT
HETATM    1  N1  UNL     1     -15.585  28.963  -6.581  1.00  0.00    -0.385 N
ATOM      2  H11 UNL     1     -15.632  28.865  -7.595  1.00  0.00     0.157 HD
ATOM      3  H12 UNL     1     -15.267  29.829  -6.147  1.00  0.00     0.157 HD
HETATM    4  C1  UNL     1     -15.927  27.994  -5.802  1.00  0.00     0.099 C
ENDROOT
BRANCH   4   5
HETATM    5  C2  UNL     1     -15.860  28.134  -4.354  1.00  0.00     0.051 C
HETATM    6  C3  UNL     1     -16.566  27.331  -3.593  1.00  0.00     0.041 C
BRANCH   6   7
HETATM    7  C4  UNL     1     -16.511  27.457  -2.118  1.00  0.00     0.076 A
HETATM    8  C5  UNL     1     -16.098  26.495  -1.239  1.00  0.00     0.040 A
HETATM    9  C6  UNL     1     -16.219  27.057   0.013  1.00  0.00     0.040 A
HETATM   10  C7  UNL     1     -16.690  28.325  -0.115  1.00  0.00     0.076 A
HETATM   11  O1  UNL     1     -16.843  28.495  -1.444  1.00  0.00    -0.311 OA
BRANCH  10  12
HETATM   12  C8  UNL     1     -16.990  29.345   0.853  1.00  0.00     0.038 C
HETATM   13  C9  UNL     1     -16.753  29.617   2.070  1.00  0.00     0.014 C
BRANCH  13  14
HETATM   14  C10 UNL     1     -16.047  29.089   3.193  1.00  0.00    -0.036 A
HETATM   15  C11 UNL     1     -16.359  29.624   4.458  1.00  0.00     0.011 A
HETATM   16  C12 UNL     1     -15.721  29.277   5.613  1.00  0.00     0.001 A
HETATM   17  C13 UNL     1     -14.713  28.352   5.542  1.00  0.00     0.000 A
HETATM   18  C14 UNL     1     -14.374  27.805   4.325  1.00  0.00     0.001 A
HETATM   19  C15 UNL     1     -15.034  28.175   3.186  1.00  0.00     0.011 A
ENDBRANCH  13  14
ENDBRANCH  10  12
ENDBRANCH   6   7
ENDBRANCH   4   5
BRANCH   4  20
HETATM   20  N2  UNL     1     -16.373  26.781  -6.409  1.00  0.00    -0.343 N
ATOM     21  H2  UNL     1     -17.327  26.749  -6.768  1.00  0.00     0.167 HD
BRANCH  20  22
HETATM   22  C16 UNL     1     -15.572  25.617  -6.544  1.00  0.00     0.033 A
HETATM   23  C17 UNL     1     -14.192  25.733  -6.540  1.00  0.00     0.030 A
HETATM   24  C18 UNL     1     -13.346  24.651  -6.664  1.00  0.00     0.019 A
HETATM   25  C19 UNL     1     -13.858  23.377  -6.799  1.00  0.00     0.032 A
HETATM   26  C27 UNL     1     -15.233  23.260  -6.802  1.00  0.00     0.019 A
HETATM   27  C28 UNL     1     -16.079  24.343  -6.678  1.00  0.00     0.030 A
BRANCH  25  28
HETATM   28  C20 UNL     1     -13.010  22.182  -6.944  1.00  0.00     0.256 C
HETATM   29  O2  UNL     1     -13.601  21.120  -7.212  1.00  0.00    -0.267 OA
HETATM   30  N3  UNL     1     -11.616  22.212  -6.794  1.00  0.00    -0.323 N
ATOM     31  H3  UNL     1     -11.228  23.132  -6.581  1.00  0.00     0.169 HD
BRANCH  30  32
HETATM   32  C21 UNL     1     -10.679  21.193  -6.888  1.00  0.00     0.035 A
HETATM   33  C22 UNL     1     -10.245  20.538  -5.733  1.00  0.00     0.029 A
HETATM   34  C23 UNL     1      -9.331  19.509  -5.769  1.00  0.00     0.002 A
HETATM   35  C24 UNL     1      -8.819  19.104  -6.991  1.00  0.00     0.000 A
HETATM   36  C25 UNL     1      -9.224  19.726  -8.141  1.00  0.00     0.002 A
HETATM   37  C26 UNL     1     -10.154  20.769  -8.084  1.00  0.00     0.029 A
ENDBRANCH  30  32
ENDBRANCH  25  28
ENDBRANCH  20  22
ENDBRANCH   4  20
TORSDOF 8
ENDMDL