MODEL 1
REMARK VINA RESULT: -11.000156716      0.000      0.000
REMARK  7 active torsions:
REMARK  status: ('A' for Active; 'I' for Inactive)
REMARK       I    between atoms: C1_2  and  N1_3
REMARK       I    between atoms: C1_2  and  N2_10
REMARK    1  A    between atoms: N1_3  and  C2_4
REMARK    2  A    between atoms: N2_10  and  C8_12
REMARK    3  A    between atoms: C13_17  and  C14_18
REMARK    4  A    between atoms: C14_18  and  N3_19
REMARK       I    between atoms: N3_19  and  C15_21
REMARK    5  A    between atoms: C15_21  and  C16_23
REMARK    6  A    between atoms: C19_26  and  O3_27
REMARK    7  A    between atoms: O3_27  and  C20_28
ROOT
HETATM    1  C14 UNL     1     -15.786  28.462  -3.354  1.00  0.00     0.163 C
ENDROOT
BRANCH   1   2
HETATM    2  C13 UNL     1     -16.188  28.219  -1.943  1.00  0.00    -0.014 A
HETATM    3  C8  UNL     1     -16.370  26.856  -1.573  1.00  0.00     0.045 A
HETATM    4  C9  UNL     1     -16.737  26.696  -0.265  1.00  0.00     0.030 A
HETATM    5  C10 UNL     1     -16.923  27.751   0.642  1.00  0.00     0.002 A
HETATM    6  C11 UNL     1     -16.735  29.034   0.239  1.00  0.00     0.001 A
HETATM    7  C12 UNL     1     -16.364  29.252  -1.067  1.00  0.00     0.011 A
BRANCH   3   8
HETATM    8  N2  UNL     1     -16.120  25.864  -2.527  1.00  0.00    -0.296 N
HETATM    9  C1  UNL     1     -17.121  25.285  -3.395  1.00  0.00     0.398 C
HETATM   10  O1  UNL     1     -18.317  25.734  -3.283  1.00  0.00    -0.230 OA
HETATM   11  N1  UNL     1     -16.709  24.324  -4.241  1.00  0.00    -0.352 NA
ATOM     12  H2  UNL     1     -15.162  25.525  -2.618  1.00  0.00     0.172 HD
BRANCH  11  13
HETATM   13  C2  UNL     1     -16.291  23.351  -5.100  1.00  0.00     0.112 A
HETATM   14  C3  UNL     1     -15.459  22.292  -4.815  1.00  0.00     0.045 A
HETATM   15  C4  UNL     1     -15.094  21.357  -5.758  1.00  0.00     0.003 A
HETATM   16  C5  UNL     1     -15.554  21.443  -7.050  1.00  0.00     0.000 A
HETATM   17  C6  UNL     1     -16.386  22.494  -7.353  1.00  0.00     0.003 A
HETATM   18  C7  UNL     1     -16.754  23.415  -6.450  1.00  0.00     0.045 A
ENDBRANCH  11  13
ENDBRANCH   3   8
ENDBRANCH   1   2
BRANCH   1  19
HETATM   19  N3  UNL     1     -15.057  27.412  -3.969  1.00  0.00    -0.353 N
HETATM   20  C15 UNL     1     -14.913  27.257  -5.377  1.00  0.00     0.251 C
HETATM   21  O2  UNL     1     -15.457  28.052  -6.178  1.00  0.00    -0.268 OA
ATOM     22  H3  UNL     1     -14.608  26.724  -3.365  1.00  0.00     0.163 HD
BRANCH  20  23
HETATM   23  C16 UNL     1     -14.126  26.176  -5.953  1.00  0.00     0.032 A
HETATM   24  C17 UNL     1     -14.116  25.809  -7.273  1.00  0.00     0.020 A
HETATM   25  C18 UNL     1     -13.353  24.730  -7.728  1.00  0.00     0.038 A
HETATM   26  C19 UNL     1     -12.596  24.020  -6.831  1.00  0.00     0.076 A
HETATM   27  C26 UNL     1     -12.593  24.376  -5.499  1.00  0.00     0.038 A
HETATM   28  C27 UNL     1     -13.343  25.432  -5.071  1.00  0.00     0.020 A
BRANCH  26  29
HETATM   29  O3  UNL     1     -11.841  22.966  -7.220  1.00  0.00    -0.311 OA
BRANCH  29  30
HETATM   30  C20 UNL     1     -11.176  22.039  -6.474  1.00  0.00     0.076 A
HETATM   31  C21 UNL     1     -11.849  20.943  -5.964  1.00  0.00     0.037 A
HETATM   32  C22 UNL     1     -11.212  19.984  -5.206  1.00  0.00     0.003 A
HETATM   33  C23 UNL     1      -9.871  20.104  -4.938  1.00  0.00     0.000 A
HETATM   34  C24 UNL     1      -9.197  21.186  -5.437  1.00  0.00     0.003 A
HETATM   35  C25 UNL     1      -9.840  22.156  -6.204  1.00  0.00     0.037 A
ENDBRANCH  29  30
ENDBRANCH  26  29
ENDBRANCH  20  23
ENDBRANCH   1  19
TORSDOF 7
ENDMDL