MODEL 1
REMARK VINA RESULT: -12.324165964      0.000      0.000
REMARK  7 active torsions:
REMARK  status: ('A' for Active; 'I' for Inactive)
REMARK    1  A    between atoms: C3_3  and  N1_4
REMARK    2  A    between atoms: N1_4  and  C4_6
REMARK    3  A    between atoms: C4_6  and  C5_7
REMARK    4  A    between atoms: C14_16  and  N2_17
REMARK       I    between atoms: N2_17  and  C15_19
REMARK       I    between atoms: C15_19  and  N3_21
REMARK    5  A    between atoms: N3_21  and  C16_23
REMARK    6  A    between atoms: C19_26  and  C20_27
REMARK    7  A    between atoms: C20_27  and  C21_29
ROOT
HETATM    1  N2  UNL     1     -15.531  24.951  -5.199  1.00  0.00    -0.308 N
ATOM      2  H2  UNL     1     -15.988  25.435  -5.972  1.00  0.00     0.170 HD
HETATM    3  C15 UNL     1     -15.649  25.534  -3.915  1.00  0.00     0.325 C
HETATM    4  O1  UNL     1     -15.157  25.108  -2.852  1.00  0.00    -0.247 OA
HETATM    5  N3  UNL     1     -16.420  26.751  -3.771  1.00  0.00    -0.309 N
ATOM      6  H3  UNL     1     -16.865  27.185  -4.580  1.00  0.00     0.170 HD
ENDROOT
BRANCH   1   7
HETATM    7  C14 UNL     1     -14.844  23.776  -5.499  1.00  0.00     0.044 A
HETATM    8  C2  UNL     1     -13.693  23.850  -6.325  1.00  0.00    -0.009 A
HETATM    9  C1  UNL     1     -13.277  25.140  -6.886  1.00  0.00     0.053 C
HETATM   10  C3  UNL     1     -12.953  22.746  -6.661  1.00  0.00     0.036 A
HETATM   11  C11 UNL     1     -13.370  21.529  -6.162  1.00  0.00     0.030 A
HETATM   12  C12 UNL     1     -14.483  21.426  -5.359  1.00  0.00     0.005 A
HETATM   13  C13 UNL     1     -15.212  22.544  -5.032  1.00  0.00     0.030 A
BRANCH  10  14
HETATM   14  N1  UNL     1     -11.803  22.816  -7.462  1.00  0.00    -0.385 N
ATOM     15  H1  UNL     1     -11.951  22.838  -8.471  1.00  0.00     0.160 HD
BRANCH  14  16
HETATM   16  C4  UNL     1     -10.446  22.860  -7.011  1.00  0.00     0.158 C
BRANCH  16  17
HETATM   17  C5  UNL     1      -9.995  21.575  -6.467  1.00  0.00    -0.041 A
HETATM   18  C6  UNL     1      -9.844  21.480  -5.086  1.00  0.00     0.009 A
HETATM   19  C7  UNL     1      -9.447  20.305  -4.530  1.00  0.00     0.001 A
HETATM   20  C8  UNL     1      -9.184  19.196  -5.272  1.00  0.00     0.000 A
HETATM   21  C9  UNL     1      -9.334  19.292  -6.652  1.00  0.00     0.001 A
HETATM   22  C10 UNL     1      -9.739  20.477  -7.246  1.00  0.00     0.009 A
ENDBRANCH  16  17
ENDBRANCH  14  16
ENDBRANCH  10  14
ENDBRANCH   1   7
BRANCH   5  23
HETATM   23  C16 UNL     1     -16.543  27.330  -2.472  1.00  0.00     0.036 A
HETATM   24  C17 UNL     1     -16.537  28.731  -2.366  1.00  0.00     0.030 A
HETATM   25  C18 UNL     1     -16.641  29.328  -1.138  1.00  0.00     0.018 A
HETATM   26  C19 UNL     1     -16.753  28.607   0.027  1.00  0.00     0.015 A
HETATM   27  C27 UNL     1     -16.757  27.233  -0.091  1.00  0.00     0.018 A
HETATM   28  C28 UNL     1     -16.655  26.614  -1.307  1.00  0.00     0.030 A
BRANCH  26  29
HETATM   29  C20 UNL     1     -16.870  29.190   1.346  1.00  0.00     0.192 C
HETATM   30  O2  UNL     1     -17.766  30.104   1.490  1.00  0.00    -0.287 OA
BRANCH  29  31
HETATM   31  C21 UNL     1     -16.106  28.881   2.526  1.00  0.00     0.015 A
HETATM   32  C22 UNL     1     -15.037  28.030   2.520  1.00  0.00     0.015 A
HETATM   33  C23 UNL     1     -14.280  27.770   3.665  1.00  0.00     0.001 A
HETATM   34  C24 UNL     1     -14.597  28.372   4.848  1.00  0.00     0.000 A
HETATM   35  C25 UNL     1     -15.666  29.233   4.898  1.00  0.00     0.001 A
HETATM   36  C26 UNL     1     -16.402  29.480   3.763  1.00  0.00     0.015 A
ENDBRANCH  29  31
ENDBRANCH  26  29
ENDBRANCH   5  23
TORSDOF 7
ENDMDL