MODEL 5
REMARK VINA RESULT: -11.689602049      2.039      9.064
REMARK  6 active torsions:
REMARK  status: ('A' for Active; 'I' for Inactive)
REMARK    1  A    between atoms: C5_6  and  C6_7
REMARK    2  A    between atoms: C10_11  and  C11_12
REMARK    3  A    between atoms: N2_13  and  C12_15
REMARK    4  A    between atoms: C12_15  and  C13_16
REMARK    5  A    between atoms: C15_22  and  C16_23
REMARK    6  A    between atoms: C20_27  and  C21_28
ROOT
HETATM    1  C13 UNL     1     -17.241  24.155  -4.109  1.00  0.00     0.025 A
HETATM    2  C14 UNL     1     -18.238  23.415  -4.793  1.00  0.00     0.122 A
HETATM    3  N3  UNL     1     -19.305  24.216  -4.877  1.00  0.00    -0.310 N
ATOM      4  H3  UNL     1     -20.194  23.962  -5.310  1.00  0.00     0.186 HD
HETATM    5  N4  UNL     1     -19.047  25.366  -4.326  1.00  0.00    -0.299 N
ATOM      6  H4  UNL     1     -19.703  26.145  -4.269  1.00  0.00     0.187 HD
HETATM    7  C15 UNL     1     -17.791  25.382  -3.841  1.00  0.00     0.071 A
ENDROOT
BRANCH   1   8
HETATM    8  C12 UNL     1     -15.990  23.645  -3.605  1.00  0.00     0.102 C
BRANCH   8   9
HETATM    9  N2  UNL     1     -14.705  23.901  -4.040  1.00  0.00    -0.373 N
HETATM   10  C11 UNL     1     -14.307  24.758  -5.017  1.00  0.00     0.099 C
ATOM     11  H2  UNL     1     -13.964  23.382  -3.571  1.00  0.00     0.164 HD
BRANCH  10  12
HETATM   12  C10 UNL     1     -13.520  24.206  -6.191  1.00  0.00    -0.020 A
HETATM   13  C9  UNL     1     -13.504  24.798  -7.406  1.00  0.00     0.013 A
HETATM   14  C8  UNL     1     -12.596  24.284  -8.352  1.00  0.00     0.002 A
HETATM   15  C7  UNL     1     -11.747  23.228  -8.075  1.00  0.00     0.012 A
HETATM   16  C6  UNL     1     -11.784  22.649  -6.833  1.00  0.00    -0.025 A
HETATM   17  C28 UNL     1     -12.670  23.146  -5.920  1.00  0.00     0.025 A
BRANCH  16  18
HETATM   18  C5  UNL     1     -10.823  21.589  -6.448  1.00  0.00    -0.024 A
HETATM   19  C4  UNL     1     -10.519  21.401  -5.101  1.00  0.00     0.012 A
HETATM   20  C3  UNL     1      -9.658  20.411  -4.719  1.00  0.00     0.003 A
HETATM   21  C2  UNL     1      -9.094  19.599  -5.696  1.00  0.00     0.026 A
HETATM   22  C1  UNL     1      -9.393  19.781  -7.015  1.00  0.00     0.047 A
HETATM   23  N1  UNL     1      -8.814  18.938  -7.992  1.00  0.00    -0.102 NA
HETATM   24  C29 UNL     1     -10.260  20.782  -7.399  1.00  0.00     0.038 A
ENDBRANCH  16  18
ENDBRANCH  10  12
ENDBRANCH   8   9
ENDBRANCH   1   8
BRANCH   7  25
HETATM   25  C16 UNL     1     -17.191  26.614  -3.259  1.00  0.00    -0.006 A
HETATM   26  C17 UNL     1     -16.692  27.610  -4.056  1.00  0.00     0.014 A
HETATM   27  C18 UNL     1     -16.066  28.733  -3.542  1.00  0.00     0.002 A
HETATM   28  C19 UNL     1     -15.937  28.858  -2.172  1.00  0.00     0.012 A
HETATM   29  C20 UNL     1     -16.435  27.880  -1.360  1.00  0.00    -0.025 A
HETATM   30  C27 UNL     1     -17.066  26.741  -1.894  1.00  0.00     0.026 A
BRANCH  29  31
HETATM   31  C21 UNL     1     -16.384  27.984   0.116  1.00  0.00    -0.026 A
HETATM   32  C22 UNL     1     -15.986  29.206   0.628  1.00  0.00     0.012 A
HETATM   33  C23 UNL     1     -15.979  29.434   1.983  1.00  0.00     0.001 A
HETATM   34  C24 UNL     1     -16.390  28.391   2.791  1.00  0.00     0.000 A
HETATM   35  C25 UNL     1     -16.794  27.155   2.312  1.00  0.00     0.001 A
HETATM   36  C26 UNL     1     -16.777  26.979   0.927  1.00  0.00     0.012 A
ENDBRANCH  29  31
ENDBRANCH   7  25
TORSDOF 6
ENDMDL