MODEL 5
REMARK VINA RESULT: -11.134557159      1.949      3.199
REMARK  8 active torsions:
REMARK  status: ('A' for Active; 'I' for Inactive)
REMARK    1  A    between atoms: N1_1  and  C1_4
REMARK    2  A    between atoms: C4_7  and  N2_8
REMARK    3  A    between atoms: N2_8  and  C5_10
REMARK    4  A    between atoms: C5_10  and  C6_11
REMARK    5  A    between atoms: C9_14  and  C10_15
REMARK    6  A    between atoms: C14_19  and  O1_20
REMARK    7  A    between atoms: O1_20  and  C15_21
REMARK    8  A    between atoms: C15_21  and  C16_22
ROOT
HETATM    1  C6  UNL     1     -16.157  26.811  -3.811  1.00  0.00    -0.029 A
HETATM    2  C7  UNL     1     -15.064  27.353  -4.446  1.00  0.00     0.010 A
HETATM    3  C8  UNL     1     -14.207  26.601  -5.215  1.00  0.00     0.014 A
HETATM    4  C9  UNL     1     -14.400  25.222  -5.399  1.00  0.00    -0.015 A
HETATM    5  C23 UNL     1     -15.491  24.681  -4.767  1.00  0.00    -0.014 A
HETATM    6  C24 UNL     1     -15.735  23.319  -4.930  1.00  0.00     0.013 A
HETATM    7  C25 UNL     1     -16.836  22.768  -4.305  1.00  0.00     0.001 A
HETATM    8  C26 UNL     1     -17.681  23.553  -3.534  1.00  0.00     0.001 A
HETATM    9  C27 UNL     1     -17.457  24.900  -3.363  1.00  0.00     0.013 A
HETATM   10  C28 UNL     1     -16.356  25.443  -3.990  1.00  0.00    -0.017 A
ENDROOT
BRANCH   4  11
HETATM   11  C10 UNL     1     -13.432  24.475  -6.194  1.00  0.00    -0.022 A
HETATM   12  C11 UNL     1     -13.443  24.346  -7.560  1.00  0.00     0.012 A
HETATM   13  C12 UNL     1     -12.507  23.630  -8.272  1.00  0.00     0.004 A
HETATM   14  C13 UNL     1     -11.502  23.006  -7.587  1.00  0.00     0.037 A
HETATM   15  C14 UNL     1     -11.438  23.097  -6.224  1.00  0.00     0.070 A
HETATM   16  C22 UNL     1     -12.390  23.820  -5.542  1.00  0.00     0.049 A
BRANCH  15  17
HETATM   17  O1  UNL     1     -10.426  22.469  -5.526  1.00  0.00    -0.347 OA
BRANCH  17  18
HETATM   18  C15 UNL     1     -10.581  21.117  -5.182  1.00  0.00     0.214 C
BRANCH  18  19
HETATM   19  C16 UNL     1     -10.220  20.223  -6.313  1.00  0.00    -0.034 A
HETATM   20  C17 UNL     1     -11.219  19.482  -6.897  1.00  0.00     0.009 A
HETATM   21  C18 UNL     1     -10.922  18.643  -7.948  1.00  0.00     0.001 A
HETATM   22  C19 UNL     1      -9.616  18.548  -8.414  1.00  0.00     0.000 A
HETATM   23  C20 UNL     1      -8.634  19.299  -7.814  1.00  0.00     0.001 A
HETATM   24  C21 UNL     1      -8.920  20.146  -6.757  1.00  0.00     0.009 A
ENDBRANCH  18  19
ENDBRANCH  17  18
ENDBRANCH  15  17
ENDBRANCH   4  11
BRANCH   1  25
HETATM   25  C5  UNL     1     -17.108  27.601  -2.993  1.00  0.00     0.159 C
BRANCH  25  26
HETATM   26  N2  UNL     1     -16.523  28.601  -2.170  1.00  0.00    -0.385 N
ATOM     27  H2  UNL     1     -16.276  29.501  -2.582  1.00  0.00     0.160 HD
BRANCH  26  28
HETATM   28  C4  UNL     1     -16.275  28.382  -0.799  1.00  0.00     0.043 A
HETATM   29  C3  UNL     1     -16.209  29.433   0.078  1.00  0.00     0.034 A
HETATM   30  C2  UNL     1     -15.966  29.156   1.403  1.00  0.00     0.050 A
HETATM   31  C1  UNL     1     -15.790  27.870   1.875  1.00  0.00     0.098 A
HETATM   32  N3  UNL     1     -15.860  26.854   0.991  1.00  0.00    -0.351 N
HETATM   33  C29 UNL     1     -16.100  27.111  -0.328  1.00  0.00     0.118 A
ATOM     34  H3  UNL     1     -15.734  25.892   1.308  1.00  0.00     0.166 HD
BRANCH  31  35
HETATM   35  N1  UNL     1     -15.562  27.599   3.112  1.00  0.00    -0.385 N
ATOM     36  H12 UNL     1     -15.415  28.370   3.764  1.00  0.00     0.157 HD
ATOM     37  H11 UNL     1     -15.521  26.647   3.477  1.00  0.00     0.157 HD
ENDBRANCH  31  35
ENDBRANCH  26  28
ENDBRANCH  25  26
ENDBRANCH   1  25
TORSDOF 8
ENDMDL