MODEL 5
REMARK VINA RESULT: -9.638894709      2.909      4.644
REMARK  7 active torsions:
REMARK  status: ('A' for Active; 'I' for Inactive)
REMARK       I    between atoms: C1_2  and  N1_3
REMARK       I    between atoms: C1_2  and  N2_12
REMARK    1  A    between atoms: N1_3  and  C2_5
REMARK    2  A    between atoms: C2_5  and  C3_6
REMARK    3  A    between atoms: N2_12  and  C9_14
REMARK    4  A    between atoms: C11_16  and  N3_17
REMARK       I    between atoms: N3_17  and  C12_19
REMARK    5  A    between atoms: C12_19  and  C13_21
REMARK    6  A    between atoms: C21_29  and  O3_30
REMARK    7  A    between atoms: O3_30  and  C22_31
ROOT
HETATM    1  C9  UNL     1     -15.087  25.421  -4.639  1.00  0.00     0.072 A
HETATM    2  C10 UNL     1     -15.132  26.073  -3.450  1.00  0.00     0.062 A
HETATM    3  C11 UNL     1     -16.043  27.106  -3.157  1.00  0.00     0.037 A
HETATM    4  C19 UNL     1     -16.916  27.436  -4.166  1.00  0.00     0.032 A
HETATM    5  C20 UNL     1     -16.903  26.798  -5.390  1.00  0.00     0.042 A
HETATM    6  C21 UNL     1     -16.012  25.820  -5.615  1.00  0.00     0.103 A
ENDROOT
BRANCH   1   7
HETATM    7  N2  UNL     1     -14.163  24.408  -4.912  1.00  0.00    -0.306 N
HETATM    8  C1  UNL     1     -13.137  24.419  -5.844  1.00  0.00     0.321 C
HETATM    9  O1  UNL     1     -12.862  25.359  -6.601  1.00  0.00    -0.247 OA
HETATM   10  N1  UNL     1     -12.312  23.227  -5.948  1.00  0.00    -0.339 N
ATOM     11  H1  UNL     1     -12.488  22.414  -5.358  1.00  0.00     0.164 HD
ATOM     12  H2  UNL     1     -14.256  23.556  -4.358  1.00  0.00     0.171 HD
BRANCH  10  13
HETATM   13  C2  UNL     1     -11.244  23.227  -6.907  1.00  0.00     0.162 C
BRANCH  13  14
HETATM   14  C3  UNL     1     -10.503  21.941  -6.814  1.00  0.00    -0.040 A
HETATM   15  C4  UNL     1     -10.056  21.427  -5.639  1.00  0.00     0.009 A
HETATM   16  C5  UNL     1      -9.368  20.210  -5.603  1.00  0.00     0.001 A
HETATM   17  C6  UNL     1      -9.147  19.534  -6.779  1.00  0.00     0.000 A
HETATM   18  C7  UNL     1      -9.599  20.055  -7.958  1.00  0.00     0.001 A
HETATM   19  C8  UNL     1     -10.271  21.245  -7.991  1.00  0.00     0.009 A
ENDBRANCH  13  14
ENDBRANCH  10  13
ENDBRANCH   1   7
BRANCH   6  20
HETATM   20  O3  UNL     1     -15.994  25.183  -6.825  1.00  0.00    -0.309 OA
BRANCH  20  21
HETATM   21  C22 UNL     1     -16.268  23.816  -6.930  1.00  0.00     0.076 A
HETATM   22  C23 UNL     1     -17.119  23.223  -6.033  1.00  0.00     0.037 A
HETATM   23  C24 UNL     1     -17.369  21.876  -6.162  1.00  0.00     0.003 A
HETATM   24  C25 UNL     1     -16.788  21.128  -7.160  1.00  0.00     0.000 A
HETATM   25  C26 UNL     1     -15.929  21.757  -8.056  1.00  0.00     0.003 A
HETATM   26  C27 UNL     1     -15.672  23.106  -7.936  1.00  0.00     0.037 A
ENDBRANCH  20  21
ENDBRANCH   6  20
BRANCH   3  27
HETATM   27  N3  UNL     1     -16.027  27.706  -1.871  1.00  0.00    -0.323 N
HETATM   28  C12 UNL     1     -16.375  27.044  -0.688  1.00  0.00     0.256 C
HETATM   29  O2  UNL     1     -16.743  25.849  -0.684  1.00  0.00    -0.267 OA
ATOM     30  H3  UNL     1     -15.742  28.683  -1.805  1.00  0.00     0.169 HD
BRANCH  28  31
HETATM   31  C13 UNL     1     -16.306  27.779   0.597  1.00  0.00     0.032 A
HETATM   32  C14 UNL     1     -16.636  27.113   1.768  1.00  0.00     0.017 A
HETATM   33  C15 UNL     1     -16.592  27.721   3.007  1.00  0.00     0.001 A
HETATM   34  C16 UNL     1     -16.209  29.032   3.099  1.00  0.00     0.000 A
HETATM   35  C17 UNL     1     -15.879  29.708   1.955  1.00  0.00     0.001 A
HETATM   36  C18 UNL     1     -15.924  29.090   0.702  1.00  0.00     0.017 A
ENDBRANCH  28  31
ENDBRANCH   3  27
TORSDOF 7
ENDMDL