MODEL 1
REMARK VINA RESULT: -7.368851354      0.000      0.000
REMARK  6 active torsions:
REMARK  status: ('A' for Active; 'I' for Inactive)
REMARK    1  A    between atoms: C2_2  and  C4_4
REMARK    2  A    between atoms: C4_4  and  C5_5
REMARK    3  A    between atoms: C5_5  and  C8_8
REMARK    4  A    between atoms: C10_11  and  O2_12
REMARK    5  A    between atoms: C13_15  and  C14_16
REMARK    6  A    between atoms: C17_19  and  O3_20
ROOT
HETATM    1  C8  UNL     1      -2.222 -16.620  15.773  1.00  0.00     0.071 C
HETATM    2  O1  UNL     1      -1.074 -16.159  15.302  1.00  0.00    -0.308 OA
HETATM    3  C9  UNL     1      -0.043 -16.195  14.460  1.00  0.00     0.145 A
HETATM    4  C10 UNL     1       0.973 -15.229  14.623  1.00  0.00     0.105 A
HETATM    5  C12 UNL     1       2.103 -15.148  13.845  1.00  0.00     0.050 A
HETATM    6  C13 UNL     1       2.274 -16.060  12.850  1.00  0.00    -0.016 A
HETATM    7  C17 UNL     1       1.295 -17.013  12.669  1.00  0.00     0.108 A
HETATM    8  C18 UNL     1       0.150 -17.108  13.429  1.00  0.00     0.139 A
HETATM    9  O4  UNL     1      -0.751 -18.097  13.103  1.00  0.00    -0.345 OA
HETATM   10  C19 UNL     1      -1.989 -18.014  12.509  1.00  0.00     0.179 C
HETATM   11  C20 UNL     1      -3.154 -18.484  13.298  1.00  0.00     0.054 C
HETATM   12  C21 UNL     1      -3.853 -17.379  13.992  1.00  0.00    -0.015 C
HETATM   13  C22 UNL     1      -3.474 -16.633  14.989  1.00  0.00    -0.035 C
HETATM   14  C23 UNL     1      -4.551 -15.594  15.365  1.00  0.00     0.050 C
ENDROOT
BRANCH   1  15
HETATM   15  C5  UNL     1      -2.198 -17.644  16.871  1.00  0.00     0.021 C
HETATM   16  C6  UNL     1      -1.348 -17.265  18.080  1.00  0.00     0.026 C
HETATM   17  C7  UNL     1      -1.570 -18.964  16.335  1.00  0.00     0.026 C
BRANCH  15  18
HETATM   18  C4  UNL     1      -3.497 -18.069  17.456  1.00  0.00    -0.005 C
BRANCH  18  19
HETATM   19  C2  UNL     1      -4.079 -17.451  18.620  1.00  0.00    -0.074 C
HETATM   20  C1  UNL     1      -4.451 -18.328  19.617  1.00  0.00     0.018 C
HETATM   21  C3  UNL     1      -4.355 -16.032  18.887  1.00  0.00     0.047 C
ENDBRANCH  18  19
ENDBRANCH  15  18
ENDBRANCH   1  15
BRANCH   4  22
HETATM   22  O2  UNL     1       0.868 -14.276  15.630  1.00  0.00    -0.353 OA
HETATM   23  C11 UNL     1       1.742 -13.252  15.936  1.00  0.00     0.210 C
ENDBRANCH   4  22
BRANCH   7  24
HETATM   24  O3  UNL     1       1.606 -17.895  11.609  1.00  0.00    -0.357 OA
ATOM     25  H3  UNL     1       0.843 -18.095  11.078  1.00  0.00     0.217 HD
ENDBRANCH   7  24
BRANCH   6  26
HETATM   26  C14 UNL     1       3.562 -16.131  12.116  1.00  0.00     0.013 C
HETATM   27  C15 UNL     1       3.626 -14.919  11.178  1.00  0.00     0.015 C
HETATM   28  C16 UNL     1       4.722 -15.774  13.132  1.00  0.00     0.015 C
ENDBRANCH   6  26
TORSDOF 6
ENDMDL