MODEL 3
REMARK VINA RESULT: -7.484653987      8.384     10.441
REMARK  6 active torsions:
REMARK  status: ('A' for Active; 'I' for Inactive)
REMARK    1  A    between atoms: O1_2  and  C2_3
REMARK    2  A    between atoms: C2_3  and  C3_5
REMARK    3  A    between atoms: C3_5  and  C4_6
REMARK    4  A    between atoms: C4_6  and  C5_7
REMARK    5  A    between atoms: C12_15  and  C13_16
REMARK    6  A    between atoms: C16_20  and  O4_21
ROOT
HETATM    1  C5  UNL     1       3.836 -15.419  13.232  1.00  0.00    -0.023 C
HETATM    2  C6  UNL     1       4.828 -16.149  14.200  1.00  0.00     0.017 C
HETATM    3  C7  UNL     1       2.615 -16.380  13.415  1.00  0.00     0.057 C
HETATM    4  C8  UNL     1       1.380 -15.932  12.766  1.00  0.00     0.031 C
HETATM    5  C9  UNL     1       1.183 -14.960  13.958  1.00  0.00     0.053 C
HETATM    6  S1  UNL     1       1.883 -16.200  15.024  1.00  0.00    -0.158 SA
HETATM    7  C10 UNL     1       2.034 -13.797  13.638  1.00  0.00     0.009 C
HETATM    8  C11 UNL     1       1.629 -12.549  14.367  1.00  0.00     0.016 C
HETATM    9  C12 UNL     1       2.531 -11.405  13.977  1.00  0.00     0.024 C
HETATM   10  C17 UNL     1       3.168 -11.723  12.681  1.00  0.00     0.010 C
HETATM   11  C18 UNL     1       4.059 -12.938  12.731  1.00  0.00     0.011 C
HETATM   12  C19 UNL     1       3.541 -14.049  13.646  1.00  0.00    -0.031 C
HETATM   13  C20 UNL     1       4.107 -13.718  15.027  1.00  0.00     0.016 C
ENDROOT
BRANCH   1  14
HETATM   14  C4  UNL     1       4.266 -15.704  11.831  1.00  0.00     0.021 C
BRANCH  14  15
HETATM   15  C3  UNL     1       5.675 -16.203  11.660  1.00  0.00     0.112 C
BRANCH  15  16
HETATM   16  C2  UNL     1       6.601 -15.053  11.349  1.00  0.00     0.258 C
HETATM   17  O2  UNL     1       7.416 -14.732  12.250  1.00  0.00    -0.265 OA
BRANCH  16  18
HETATM   18  O1  UNL     1       6.597 -14.363  10.171  1.00  0.00    -0.326 OA
HETATM   19  C1  UNL     1       6.962 -12.982  10.072  1.00  0.00     0.213 C
ENDBRANCH  16  18
ENDBRANCH  15  16
ENDBRANCH  14  15
ENDBRANCH   1  14
BRANCH   9  20
HETATM   20  C13 UNL     1       1.732 -10.151  13.944  1.00  0.00     0.006 A
HETATM   21  C14 UNL     1       0.542  -9.911  14.564  1.00  0.00     0.037 A
HETATM   22  C15 UNL     1       0.172  -8.602  14.265  1.00  0.00     0.145 A
HETATM   23  O3  UNL     1       1.097  -8.109  13.511  1.00  0.00    -0.300 OA
HETATM   24  C16 UNL     1       2.051  -8.984  13.287  1.00  0.00     0.189 A
BRANCH  24  25
HETATM   25  O4  UNL     1       3.149  -8.725  12.522  1.00  0.00    -0.340 OA
ATOM     26  H4  UNL     1       3.710  -9.346  12.073  1.00  0.00     0.220 HD
ENDBRANCH  24  25
ENDBRANCH   9  20
TORSDOF 6
ENDMDL