MODEL 3
REMARK VINA RESULT: -7.746649838      1.171      1.513
REMARK  7 active torsions:
REMARK  status: ('A' for Active; 'I' for Inactive)
REMARK    1  A    between atoms: O1_2  and  C2_3
REMARK    2  A    between atoms: C5_8  and  N2_9
REMARK    3  A    between atoms: N2_9  and  N3_11
REMARK    4  A    between atoms: N3_11  and  N4_12
REMARK    5  A    between atoms: C8_17  and  N5_18
REMARK    6  A    between atoms: N5_18  and  C9_20
REMARK    7  A    between atoms: C17_29  and  O2_30
ROOT
HETATM    1  C2  UNL     1       4.168 -14.826  12.770  1.00  0.00     0.103 A
HETATM    2  C3  UNL     1       5.178 -14.131  12.141  1.00  0.00     0.070 A
HETATM    3  C4  UNL     1       5.082 -12.757  12.023  1.00  0.00     0.049 A
HETATM    4  N1  UNL     1       6.070 -12.088  11.408  1.00  0.00    -0.339 N
ATOM      5  H1  UNL     1       6.871 -12.601  11.041  1.00  0.00     0.167 HD
HETATM    6  C5  UNL     1       6.021 -10.756  11.269  1.00  0.00     0.141 A
HETATM    7  C6  UNL     1       4.958 -10.039  11.753  1.00  0.00     0.012 A
HETATM    8  C7  UNL     1       4.848  -8.565  11.629  1.00  0.00     0.055 C
HETATM    9  C8  UNL     1       3.867 -10.675  12.419  1.00  0.00     0.055 A
HETATM   10  C15 UNL     1       3.978 -12.046  12.529  1.00  0.00     0.021 A
HETATM   11  C16 UNL     1       2.984 -12.772  13.153  1.00  0.00     0.055 A
HETATM   12  C17 UNL     1       3.060 -14.141  13.282  1.00  0.00     0.102 A
ENDROOT
BRANCH   9  13
HETATM   13  N5  UNL     1       2.982  -9.999  12.811  1.00  0.00    -0.354 N
ATOM     14  H5  UNL     1       3.403  -9.524  13.610  1.00  0.00     0.166 HD
BRANCH  13  15
HETATM   15  C9  UNL     1       1.697  -9.486  12.800  1.00  0.00     0.046 A
HETATM   16  C10 UNL     1       1.137  -8.800  11.708  1.00  0.00     0.080 A
HETATM   17  S1  UNL     1      -0.408  -8.391  12.231  1.00  0.00    -0.104 SA
HETATM   18  C11 UNL     1      -0.377  -9.057  13.787  1.00  0.00    -0.013 A
HETATM   19  C12 UNL     1      -1.484  -9.037  14.814  1.00  0.00     0.057 C
HETATM   20  C13 UNL     1       0.862  -9.601  13.881  1.00  0.00    -0.022 A
HETATM   21  C14 UNL     1       1.251 -10.308  15.184  1.00  0.00     0.052 C
ENDBRANCH  13  15
ENDBRANCH   9  13
BRANCH   6  22
HETATM   22  N2  UNL     1       7.087 -10.095  10.613  1.00  0.00    -0.199 N
ATOM     23  H2  UNL     1       7.316  -9.143  10.896  1.00  0.00     0.205 HD
BRANCH  22  24
HETATM   24  N3  UNL     1       7.749 -10.615   9.720  1.00  0.00    -0.242 NA
BRANCH  24  25
HETATM   25  N4  UNL     1       8.651 -10.885   8.932  1.00  0.00    -0.260 N
ATOM     26  H42 UNL     1       8.226 -11.755   8.611  1.00  0.00     0.193 HD
ATOM     27  H41 UNL     1       9.511 -10.849   8.385  1.00  0.00     0.193 HD
ENDBRANCH  24  25
ENDBRANCH  22  24
ENDBRANCH   6  22
BRANCH  12  28
HETATM   28  O2  UNL     1       2.036 -14.809  13.915  1.00  0.00    -0.353 OA
HETATM   29  C18 UNL     1       1.917 -14.725  15.315  1.00  0.00     0.210 C
ENDBRANCH  12  28
BRANCH   1  30
HETATM   30  O1  UNL     1       4.174 -16.203  12.937  1.00  0.00    -0.353 OA
HETATM   31  C1  UNL     1       4.991 -16.816  13.927  1.00  0.00     0.210 C
ENDBRANCH   1  30
TORSDOF 7
ENDMDL