MODEL 4
REMARK VINA RESULT: -8.136197080      4.057      8.968
REMARK  5 active torsions:
REMARK  status: ('A' for Active; 'I' for Inactive)
REMARK    1  A    between atoms: C3_3  and  S1_4
REMARK    2  A    between atoms: S1_4  and  C4_5
REMARK    3  A    between atoms: C4_5  and  N1_6
REMARK       I    between atoms: N1_6  and  C5_8
REMARK    4  A    between atoms: C5_8  and  C6_10
REMARK    5  A    between atoms: C8_12  and  C9_13
ROOT
HETATM    1  N1  UNL     1       3.010 -14.623  12.790  1.00  0.00    -0.326 N
ATOM      2  H1  UNL     1       2.190 -14.305  12.275  1.00  0.00     0.169 HD
HETATM    3  C5  UNL     1       3.381 -13.869  13.903  1.00  0.00     0.262 C
HETATM    4  O1  UNL     1       4.353 -14.167  14.622  1.00  0.00    -0.267 OA
ENDROOT
BRANCH   1   5
HETATM    5  C4  UNL     1       3.657 -15.784  12.304  1.00  0.00     0.144 C
BRANCH   5   6
HETATM    6  S1  UNL     1       5.033 -15.538  11.266  1.00  0.00    -0.059 SA
BRANCH   6   7
HETATM    7  C3  UNL     1       5.615 -13.926  10.914  1.00  0.00     0.125 A
HETATM    8  C2  UNL     1       6.752 -13.555  10.200  1.00  0.00    -0.001 A
HETATM    9  C1  UNL     1       7.765 -14.397   9.551  1.00  0.00     0.053 C
HETATM   10  C17 UNL     1       6.747 -12.161  10.218  1.00  0.00     0.048 A
HETATM   11  C14 UNL     1       5.660 -11.730  10.908  1.00  0.00     0.095 A
HETATM   12  S3  UNL     1       7.513 -10.709   9.753  1.00  0.00    -0.099 SA
HETATM   13  O2  UNL     1       5.004 -12.823  11.310  1.00  0.00    -0.301 OA
HETATM   14  C15 UNL     1       5.492 -10.389  11.031  1.00  0.00     0.046 A
HETATM   15  C16 UNL     1       6.429  -9.588  10.450  1.00  0.00     0.053 A
ENDBRANCH   6   7
ENDBRANCH   5   6
ENDBRANCH   1   5
BRANCH   3  16
HETATM   16  C6  UNL     1       2.581 -12.661  14.242  1.00  0.00     0.073 A
HETATM   17  C7  UNL     1       2.443 -11.510  13.525  1.00  0.00     0.033 A
HETATM   18  C8  UNL     1       1.643 -10.557  14.062  1.00  0.00    -0.043 A
HETATM   19  C13 UNL     1       1.053 -10.820  15.248  1.00  0.00     0.058 A
HETATM   20  S2  UNL     1       1.617 -12.403  15.617  1.00  0.00    -0.096 SA
BRANCH  18  21
HETATM   21  C9  UNL     1       1.444  -9.239  13.337  1.00  0.00    -0.024 C
HETATM   22  C10 UNL     1       1.126  -8.238  14.462  1.00  0.00     0.019 C
HETATM   23  C11 UNL     1       0.254  -9.293  12.452  1.00  0.00     0.019 C
HETATM   24  C12 UNL     1       2.679  -8.855  12.591  1.00  0.00     0.019 C
ENDBRANCH  18  21
ENDBRANCH   3  16
TORSDOF 5
ENDMDL