MODEL 5
REMARK VINA RESULT: -8.227744874      2.906      6.876
REMARK  6 active torsions:
REMARK  status: ('A' for Active; 'I' for Inactive)
REMARK    1  A    between atoms: O1_2  and  C2_3
REMARK    2  A    between atoms: C4_5  and  C5_6
REMARK    3  A    between atoms: C5_6  and  C6_7
REMARK    4  A    between atoms: C15_18  and  O4_19
REMARK    5  A    between atoms: C16_21  and  C17_22
REMARK    6  A    between atoms: C20_25  and  O5_26
ROOT
HETATM    1  C2  UNL     1       4.426 -11.505  12.172  1.00  0.00     0.102 A
HETATM    2  C3  UNL     1       4.267 -12.526  13.058  1.00  0.00     0.049 A
HETATM    3  C4  UNL     1       3.258 -12.429  14.004  1.00  0.00    -0.019 A
HETATM    4  C15 UNL     1       2.450 -11.324  14.032  1.00  0.00     0.081 A
HETATM    5  C16 UNL     1       2.563 -10.273  13.156  1.00  0.00     0.015 A
HETATM    6  C20 UNL     1       3.599 -10.417  12.226  1.00  0.00     0.111 A
ENDROOT
BRANCH   3   7
HETATM    7  C5  UNL     1       3.078 -13.563  14.890  1.00  0.00     0.082 C
BRANCH   7   8
HETATM    8  C6  UNL     1       1.894 -14.412  14.758  1.00  0.00     0.099 C
HETATM    9  C7  UNL     1       1.236 -14.665  16.117  1.00  0.00     0.050 C
HETATM   10  C8  UNL     1       2.381 -15.786  14.250  1.00  0.00     0.082 C
HETATM   11  C9  UNL     1       1.057 -16.326  13.703  1.00  0.00     0.099 C
HETATM   12  C10 UNL     1       0.787 -17.633  14.367  1.00  0.00     0.041 C
HETATM   13  C14 UNL     1       1.058 -16.401  12.188  1.00  0.00     0.041 C
HETATM   14  O2  UNL     1       0.177 -15.292  14.018  1.00  0.00    -0.229 OA
HETATM   15  C11 UNL     1       1.627 -18.697  13.683  1.00  0.00     0.003 C
HETATM   16  C12 UNL     1       1.364 -18.806  12.220  1.00  0.00     0.000 C
HETATM   17  C13 UNL     1       0.357 -17.711  11.854  1.00  0.00     0.003 C
HETATM   18  O3  UNL     1       0.919 -14.163  13.863  1.00  0.00    -0.229 OA
ENDBRANCH   7   8
ENDBRANCH   3   7
BRANCH   4  19
HETATM   19  O4  UNL     1       1.440 -11.187  15.014  1.00  0.00    -0.359 OA
ATOM     20  H4  UNL     1       1.370 -10.395  15.535  1.00  0.00     0.217 HD
ENDBRANCH   4  19
BRANCH   1  21
HETATM   21  O1  UNL     1       5.415 -11.561  11.228  1.00  0.00    -0.353 OA
HETATM   22  C1  UNL     1       6.265 -12.640  10.987  1.00  0.00     0.210 C
ENDBRANCH   1  21
BRANCH   5  23
HETATM   23  C17 UNL     1       1.718  -9.077  13.112  1.00  0.00     0.016 C
HETATM   24  C18 UNL     1       0.400  -9.529  12.403  1.00  0.00     0.015 C
HETATM   25  C19 UNL     1       1.456  -8.315  14.335  1.00  0.00     0.015 C
ENDBRANCH   5  23
BRANCH   6  26
HETATM   26  O5  UNL     1       3.827  -9.381  11.296  1.00  0.00    -0.352 OA
HETATM   27  C21 UNL     1       4.848  -8.440  11.690  1.00  0.00     0.210 C
ENDBRANCH   6  26
TORSDOF 6
ENDMDL