MODEL 2
REMARK VINA RESULT: -7.552884327      1.371      1.487
REMARK  4 active torsions:
REMARK  status: ('A' for Active; 'I' for Inactive)
REMARK    1  A    between atoms: S1_2  and  C2_3
REMARK    2  A    between atoms: C2_3  and  N1_4
REMARK       I    between atoms: N1_4  and  C3_6
REMARK    3  A    between atoms: C3_6  and  C4_8
REMARK    4  A    between atoms: C6_10  and  C7_11
ROOT
HETATM    1  C4  UNL     1      -0.426  -8.893  14.764  1.00  0.00     0.073 A
HETATM    2  C5  UNL     1       0.512  -9.881  14.797  1.00  0.00     0.038 A
HETATM    3  C6  UNL     1       1.013 -10.306  13.627  1.00  0.00    -0.011 A
HETATM    4  C16 UNL     1       0.530  -9.697  12.490  1.00  0.00     0.063 A
HETATM    5  S4  UNL     1      -0.592  -8.572  13.101  1.00  0.00    -0.096 SA
ENDROOT
BRANCH   3   6
HETATM    6  C7  UNL     1       2.052 -11.385  13.516  1.00  0.00     0.016 A
HETATM    7  C8  UNL     1       3.201 -11.371  12.781  1.00  0.00     0.028 A
HETATM    8  C9  UNL     1       3.988 -12.464  12.834  1.00  0.00    -0.034 A
HETATM    9  C10 UNL     1       3.554 -13.497  13.631  1.00  0.00    -0.008 A
HETATM   10  C15 UNL     1       5.311 -12.738  12.133  1.00  0.00     0.114 C
HETATM   11  S2  UNL     1       2.088 -12.909  14.263  1.00  0.00    -0.093 SA
HETATM   12  C11 UNL     1       4.332 -14.780  13.784  1.00  0.00     0.066 C
HETATM   13  C12 UNL     1       4.470 -15.504  12.467  1.00  0.00     0.005 C
HETATM   14  C13 UNL     1       3.193 -16.150  12.041  1.00  0.00     0.027 C
HETATM   15  C14 UNL     1       5.591 -16.521  12.626  1.00  0.00     0.027 C
HETATM   16  S3  UNL     1       5.069 -14.293  11.226  1.00  0.00    -0.155 SA
ENDBRANCH   3   6
BRANCH   1  17
HETATM   17  C3  UNL     1      -1.114  -8.264  15.898  1.00  0.00     0.259 C
HETATM   18  N1  UNL     1      -2.247  -7.465  15.699  1.00  0.00    -0.348 N
ATOM     19  H1  UNL     1      -2.589  -7.324  14.749  1.00  0.00     0.163 HD
HETATM   20  O1  UNL     1      -0.669  -8.459  17.037  1.00  0.00    -0.267 OA
BRANCH  18  21
HETATM   21  C2  UNL     1      -2.952  -6.829  16.797  1.00  0.00     0.196 C
BRANCH  21  22
HETATM   22  S1  UNL     1      -4.533  -7.655  17.132  1.00  0.00    -0.154 SA
HETATM   23  C1  UNL     1      -4.303  -8.673  18.615  1.00  0.00     0.091 C
ENDBRANCH  21  22
ENDBRANCH  18  21
ENDBRANCH   1  17
TORSDOF 4
ENDMDL