MODEL 3
REMARK VINA RESULT: -6.621833961      1.893      3.878
REMARK  4 active torsions:
REMARK  status: ('A' for Active; 'I' for Inactive)
REMARK    1  A    between atoms: C3_3  and  C4_4
REMARK    2  A    between atoms: C4_4  and  S1_5
REMARK    3  A    between atoms: S1_5  and  C5_6
REMARK    4  A    between atoms: C8_10  and  C9_11
ROOT
HETATM    1  C5  UNL     1      -2.517 -18.024  15.398  1.00  0.00     0.001 C
HETATM    2  C6  UNL     1      -1.372 -17.860  14.722  1.00  0.00     0.050 C
HETATM    3  C7  UNL     1      -1.331 -16.707  13.807  1.00  0.00     0.097 C
HETATM    4  N1  UNL     1      -1.275 -15.803  13.079  1.00  0.00    -0.192 NA
HETATM    5  C8  UNL     1      -0.162 -18.634  14.686  1.00  0.00     0.116 C
HETATM    6  C13 UNL     1       0.215 -19.502  15.817  1.00  0.00     0.059 C
HETATM    7  C14 UNL     1       1.013 -18.855  16.832  1.00  0.00     0.098 C
HETATM    8  N2  UNL     1       1.659 -18.350  17.675  1.00  0.00    -0.192 NA
HETATM    9  C15 UNL     1      -0.863 -20.365  16.345  1.00  0.00     0.029 C
HETATM   10  N3  UNL     1      -0.376 -21.417  16.935  1.00  0.00    -0.401 N
ATOM     11  H31 UNL     1      -1.119 -22.012  17.300  1.00  0.00     0.156 HD
ATOM     12  H32 UNL     1       0.643 -21.440  16.924  1.00  0.00     0.156 HD
HETATM   13  C16 UNL     1      -2.312 -20.332  16.362  1.00  0.00     0.007 C
HETATM   14  C17 UNL     1      -3.006 -21.417  15.567  1.00  0.00     0.022 C
HETATM   15  C18 UNL     1      -2.765 -20.425  17.830  1.00  0.00     0.017 C
HETATM   16  C19 UNL     1      -2.683 -18.886  17.795  1.00  0.00     0.012 C
HETATM   17  C20 UNL     1      -2.984 -19.000  16.354  1.00  0.00     0.041 C
ENDROOT
BRANCH   1  18
HETATM   18  S1  UNL     1      -3.673 -16.751  14.959  1.00  0.00    -0.129 SA
BRANCH  18  19
HETATM   19  C4  UNL     1      -4.224 -15.655  16.218  1.00  0.00     0.106 C
BRANCH  19  20
HETATM   20  C3  UNL     1      -5.429 -16.184  16.906  1.00  0.00    -0.021 C
HETATM   21  C2  UNL     1      -5.400 -16.231  18.269  1.00  0.00    -0.034 C
HETATM   22  C1  UNL     1      -4.232 -15.779  19.033  1.00  0.00     0.036 C
ENDBRANCH  19  20
ENDBRANCH  18  19
ENDBRANCH   1  18
BRANCH   5  23
HETATM   23  C9  UNL     1       0.986 -17.664  14.467  1.00  0.00    -0.003 A
HETATM   24  C10 UNL     1       2.069 -17.823  13.639  1.00  0.00     0.016 A
HETATM   25  C11 UNL     1       2.964 -16.810  13.609  1.00  0.00     0.008 A
HETATM   26  C12 UNL     1       2.709 -15.724  14.403  1.00  0.00     0.050 A
HETATM   27  S2  UNL     1       1.245 -16.138  15.163  1.00  0.00    -0.105 SA
ENDBRANCH   5  23
TORSDOF 4
ENDMDL