MODEL 1
REMARK VINA RESULT: -8.815254788      0.000      0.000
REMARK  7 active torsions:
REMARK  status: ('A' for Active; 'I' for Inactive)
REMARK    1  A    between atoms: C2_2  and  C4_4
REMARK    2  A    between atoms: C4_4  and  S1_5
REMARK    3  A    between atoms: S1_5  and  C5_6
REMARK    4  A    between atoms: C8_11  and  C9_12
REMARK    5  A    between atoms: C11_14  and  C12_15
REMARK    6  A    between atoms: C16_19  and  O1_20
REMARK    7  A    between atoms: C17_22  and  C18_23
ROOT
HETATM    1  C9  UNL     1       1.898 -10.219  13.094  1.00  0.00     0.060 A
HETATM    2  C10 UNL     1       2.078 -11.553  13.292  1.00  0.00     0.042 A
HETATM    3  C11 UNL     1       3.262 -12.230  12.968  1.00  0.00    -0.013 A
HETATM    4  C16 UNL     1       4.275 -11.481  12.425  1.00  0.00     0.096 A
HETATM    5  C17 UNL     1       4.098 -10.118  12.220  1.00  0.00     0.051 A
HETATM    6  N2  UNL     1       2.942  -9.539  12.554  1.00  0.00    -0.355 N
ATOM      7  H2  UNL     1       2.837  -8.537  12.394  1.00  0.00     0.166 HD
ENDROOT
BRANCH   1   8
HETATM    8  C8  UNL     1       0.650  -9.500  13.425  1.00  0.00     0.062 A
HETATM    9  C7  UNL     1      -0.216  -9.094  12.441  1.00  0.00     0.049 A
HETATM   10  C6  UNL     1      -1.396  -8.402  12.773  1.00  0.00     0.092 A
HETATM   11  N1  UNL     1      -1.604  -8.178  14.069  1.00  0.00    -0.347 N
HETATM   12  C5  UNL     1      -0.791  -8.553  15.063  1.00  0.00     0.144 A
ATOM     13  H1  UNL     1      -2.455  -7.679  14.325  1.00  0.00     0.167 HD
HETATM   14  N3  UNL     1       0.341  -9.223  14.677  1.00  0.00    -0.335 N
ATOM     15  H3  UNL     1       0.987  -9.527  15.406  1.00  0.00     0.168 HD
BRANCH  12  16
HETATM   16  S1  UNL     1      -1.074  -8.248  16.788  1.00  0.00    -0.093 SA
BRANCH  16  17
HETATM   17  C4  UNL     1      -1.911  -6.750  17.165  1.00  0.00     0.086 C
BRANCH  17  18
HETATM   18  C2  UNL     1      -3.260  -6.795  17.775  1.00  0.00    -0.013 C
HETATM   19  C1  UNL     1      -4.086  -7.875  17.041  1.00  0.00     0.010 C
HETATM   20  C3  UNL     1      -3.337  -7.098  19.228  1.00  0.00     0.010 C
ENDBRANCH  17  18
ENDBRANCH  16  17
ENDBRANCH  12  16
ENDBRANCH   1   8
BRANCH   3  21
HETATM   21  C12 UNL     1       3.335 -13.667  13.228  1.00  0.00    -0.021 C
HETATM   22  C13 UNL     1       2.037 -14.142  13.843  1.00  0.00     0.019 C
HETATM   23  C14 UNL     1       4.449 -14.059  14.162  1.00  0.00     0.019 C
HETATM   24  C15 UNL     1       3.502 -14.420  11.917  1.00  0.00     0.019 C
ENDBRANCH   3  21
BRANCH   5  25
HETATM   25  C18 UNL     1       5.193  -9.300  11.632  1.00  0.00    -0.006 C
HETATM   26  C19 UNL     1       6.556  -9.673  12.156  1.00  0.00     0.021 C
HETATM   27  C20 UNL     1       4.958  -7.833  11.990  1.00  0.00     0.021 C
HETATM   28  C21 UNL     1       5.193  -9.365  10.126  1.00  0.00     0.021 C
ENDBRANCH   5  25
BRANCH   4  29
HETATM   29  O1  UNL     1       5.450 -12.085  12.089  1.00  0.00    -0.358 OA
ATOM     30  H1  UNL     1       6.184 -12.045  12.689  1.00  0.00     0.217 HD
ENDBRANCH   4  29
TORSDOF 7
ENDMDL