MODEL 2
REMARK VINA RESULT: -7.151625877      4.384      7.106
REMARK  4 active torsions:
REMARK  status: ('A' for Active; 'I' for Inactive)
REMARK    1  A    between atoms: C2_2  and  C4_4
REMARK    2  A    between atoms: C6_6  and  O1_7
REMARK    3  A    between atoms: O1_7  and  C7_8
REMARK       I    between atoms: C7_8  and  N1_10
REMARK    4  A    between atoms: C17_21  and  O3_22
ROOT
HETATM    1  C4  UNL     1       3.754  17.128 -35.614  1.00  0.00     0.019 C
HETATM    2  C5  UNL     1       3.086  18.463 -35.478  1.00  0.00     0.045 C
HETATM    3  C6  UNL     1       2.752  18.874 -34.067  1.00  0.00     0.157 C
HETATM    4  C9  UNL     1       3.730  18.345 -33.082  1.00  0.00     0.008 C
HETATM    5  C10 UNL     1       3.372  17.553 -32.082  1.00  0.00    -0.085 C
HETATM    6  C11 UNL     1       4.471  17.105 -31.177  1.00  0.00     0.043 C
HETATM    7  C12 UNL     1       2.012  17.094 -31.798  1.00  0.00     0.037 C
HETATM    8  C13 UNL     1       1.548  15.936 -32.629  1.00  0.00     0.032 C
HETATM    9  C14 UNL     1       2.614  15.054 -33.088  1.00  0.00    -0.021 C
HETATM   10  C15 UNL     1       2.918  14.688 -34.319  1.00  0.00    -0.059 C
HETATM   11  C16 UNL     1       4.081  13.747 -34.587  1.00  0.00     0.046 C
HETATM   12  C17 UNL     1       2.202  15.123 -35.530  1.00  0.00     0.147 C
HETATM   13  C18 UNL     1       2.986  16.107 -36.369  1.00  0.00     0.045 C
ENDROOT
BRANCH   3  14
HETATM   14  O1  UNL     1       2.747  20.311 -34.018  1.00  0.00    -0.295 OA
BRANCH  14  15
HETATM   15  C7  UNL     1       1.679  21.030 -33.497  1.00  0.00     0.360 C
HETATM   16  O2  UNL     1       1.539  20.977 -32.247  1.00  0.00    -0.239 OA
HETATM   17  N1  UNL     1       0.790  21.780 -34.293  1.00  0.00    -0.341 N
HETATM   18  C8  UNL     1      -0.291  22.494 -33.673  1.00  0.00     0.151 C
ATOM     19  H1  UNL     1       0.913  21.815 -35.305  1.00  0.00     0.164 HD
ENDBRANCH  14  15
ENDBRANCH   3  14
BRANCH   1  20
HETATM   20  C2  UNL     1       5.075  17.354 -36.270  1.00  0.00    -0.089 C
HETATM   21  C1  UNL     1       5.177  17.719 -37.540  1.00  0.00     0.014 C
HETATM   22  C3  UNL     1       6.322  17.170 -35.482  1.00  0.00     0.043 C
ENDBRANCH   1  20
BRANCH  12  23
HETATM   23  O3  UNL     1       1.919  13.956 -36.288  1.00  0.00    -0.391 OA
ATOM     24  H3  UNL     1       1.891  14.216 -37.202  1.00  0.00     0.210 HD
ENDBRANCH  12  23
TORSDOF 4
ENDMDL