MODEL 3
REMARK VINA RESULT: -7.030560339      3.084      4.269
REMARK  3 active torsions:
REMARK  status: ('A' for Active; 'I' for Inactive)
REMARK    1  A    between atoms: C2_2  and  C5_7
REMARK    2  A    between atoms: C3_3  and  C4_4
REMARK    3  A    between atoms: C4_4  and  O1_5
ROOT
HETATM    1  C5  UNL     1       5.371  14.543 -33.095  1.00  0.00     0.019 C
HETATM    2  C6  UNL     1       3.928  14.285 -33.399  1.00  0.00     0.010 C
HETATM    3  C7  UNL     1       3.383  15.718 -33.265  1.00  0.00     0.010 C
HETATM    4  C8  UNL     1       4.557  16.645 -33.496  1.00  0.00    -0.035 C
HETATM    5  C9  UNL     1       5.004  17.164 -32.144  1.00  0.00     0.016 C
HETATM    6  C10 UNL     1       5.670  15.708 -33.966  1.00  0.00     0.002 C
HETATM    7  C11 UNL     1       5.591  15.480 -35.441  1.00  0.00     0.007 C
HETATM    8  C12 UNL     1       5.719  16.834 -36.136  1.00  0.00     0.011 C
HETATM    9  C13 UNL     1       4.476  17.604 -35.846  1.00  0.00    -0.026 C
HETATM   10  C14 UNL     1       3.302  17.035 -36.583  1.00  0.00     0.016 C
HETATM   11  C15 UNL     1       4.669  19.016 -36.431  1.00  0.00     0.067 C
HETATM   12  S1  UNL     1       6.166  19.755 -35.713  1.00  0.00    -0.092 SA
HETATM   13  C16 UNL     1       3.498  19.895 -36.112  1.00  0.00     0.017 C
HETATM   14  C17 UNL     1       2.988  19.796 -34.717  1.00  0.00     0.002 C
HETATM   15  C18 UNL     1       2.915  18.385 -34.174  1.00  0.00     0.006 C
HETATM   16  C19 UNL     1       4.305  17.784 -34.388  1.00  0.00     0.003 C
ENDROOT
BRANCH   1  17
HETATM   17  C2  UNL     1       6.269  13.427 -33.017  1.00  0.00    -0.081 C
HETATM   18  C1  UNL     1       7.457  13.570 -32.086  1.00  0.00     0.043 C
HETATM   19  C3  UNL     1       6.169  12.282 -33.647  1.00  0.00     0.002 C
BRANCH  19  20
HETATM   20  C4  UNL     1       7.173  11.205 -33.442  1.00  0.00     0.191 C
BRANCH  20  21
HETATM   21  O1  UNL     1       6.464  10.125 -32.867  1.00  0.00    -0.397 OA
ATOM     22  H1  UNL     1       6.785  10.051 -31.976  1.00  0.00     0.209 HD
ENDBRANCH  20  21
ENDBRANCH  19  20
ENDBRANCH   1  17
TORSDOF 3
ENDMDL