MODEL 3
REMARK VINA RESULT: -6.454946952      1.848      4.630
REMARK  4 active torsions:
REMARK  status: ('A' for Active; 'I' for Inactive)
REMARK    1  A    between atoms: C6_6  and  C7_7
REMARK    2  A    between atoms: C7_7  and  C8_8
REMARK    3  A    between atoms: C8_8  and  O1_10
REMARK    4  A    between atoms: C17_19  and  O2_20
ROOT
HETATM    1  C1  UNL     1       1.561  15.494 -32.963  1.00  0.00     0.015 C
HETATM    2  C2  UNL     1       2.619  16.223 -33.284  1.00  0.00    -0.080 C
HETATM    3  C3  UNL     1       2.577  17.602 -32.777  1.00  0.00     0.034 C
HETATM    4  C4  UNL     1       3.550  18.565 -33.273  1.00  0.00     0.010 C
HETATM    5  C5  UNL     1       4.335  18.214 -34.520  1.00  0.00     0.001 C
HETATM    6  C6  UNL     1       5.391  17.267 -34.146  1.00  0.00     0.002 C
HETATM    7  C10 UNL     1       4.971  15.911 -33.681  1.00  0.00    -0.028 C
HETATM    8  C11 UNL     1       5.048  15.740 -32.160  1.00  0.00     0.016 C
HETATM    9  C12 UNL     1       5.856  14.799 -34.250  1.00  0.00     0.011 C
HETATM   10  C13 UNL     1       5.069  13.567 -33.884  1.00  0.00     0.002 C
HETATM   11  C14 UNL     1       3.633  13.992 -33.687  1.00  0.00     0.015 C
HETATM   12  C15 UNL     1       3.620  15.470 -34.094  1.00  0.00    -0.008 C
HETATM   13  C16 UNL     1       3.391  15.557 -35.564  1.00  0.00     0.047 C
HETATM   14  C17 UNL     1       2.644  16.836 -35.817  1.00  0.00     0.127 C
HETATM   15  C18 UNL     1       3.487  18.043 -35.692  1.00  0.00    -0.018 C
HETATM   16  C19 UNL     1       2.486  19.227 -35.659  1.00  0.00     0.018 C
HETATM   17  C20 UNL     1       4.196  18.242 -37.038  1.00  0.00     0.018 C
ENDROOT
BRANCH   6  18
HETATM   18  C7  UNL     1       6.616  17.223 -35.037  1.00  0.00     0.037 C
BRANCH  18  19
HETATM   19  C8  UNL     1       7.554  18.389 -34.783  1.00  0.00     0.114 C
HETATM   20  C9  UNL     1       8.590  18.439 -35.915  1.00  0.00     0.039 C
BRANCH  19  21
HETATM   21  O1  UNL     1       8.273  18.230 -33.612  1.00  0.00    -0.396 OA
ATOM     22  H1  UNL     1       9.180  17.998 -33.779  1.00  0.00     0.210 HD
ENDBRANCH  19  21
ENDBRANCH  18  19
ENDBRANCH   6  18
BRANCH  14  23
HETATM   23  O2  UNL     1       2.200  16.767 -37.162  1.00  0.00    -0.395 OA
ATOM     24  H2  UNL     1       1.941  15.864 -37.304  1.00  0.00     0.210 HD
ENDBRANCH  14  23
TORSDOF 4
ENDMDL