MODEL 1
REMARK VINA RESULT: -8.220278758      0.000      0.000
REMARK  5 active torsions:
REMARK  status: ('A' for Active; 'I' for Inactive)
REMARK    1  A    between atoms: C2_2  and  O1_3
REMARK    2  A    between atoms: O1_3  and  C3_4
REMARK    3  A    between atoms: C3_4  and  O2_5
REMARK    4  A    between atoms: C3_4  and  C4_7
REMARK    5  A    between atoms: C12_15  and  O3_16
ROOT
HETATM    1  C4  UNL     1       3.847  15.290 -33.922  1.00  0.00     0.010 C
HETATM    2  C5  UNL     1       4.261  16.410 -34.883  1.00  0.00     0.020 C
HETATM    3  C6  UNL     1       5.100  14.669 -33.369  1.00  0.00     0.041 C
HETATM    4  C7  UNL     1       5.467  13.408 -34.019  1.00  0.00    -0.022 C
HETATM    5  C8  UNL     1       4.554  12.533 -34.452  1.00  0.00    -0.068 C
HETATM    6  C9  UNL     1       3.133  12.936 -34.222  1.00  0.00     0.016 C
HETATM    7  C10 UNL     1       2.129  12.004 -34.798  1.00  0.00     0.012 C
HETATM    8  C11 UNL     1       2.645  10.561 -34.887  1.00  0.00     0.044 C
HETATM    9  C12 UNL     1       3.827  10.588 -35.775  1.00  0.00     0.092 C
HETATM   10  C13 UNL     1       4.342   9.257 -36.182  1.00  0.00    -0.054 C
HETATM   11  C14 UNL     1       3.869   8.115 -35.765  1.00  0.00     0.017 C
HETATM   12  C15 UNL     1       5.493   9.296 -37.147  1.00  0.00     0.036 C
HETATM   13  C16 UNL     1       6.545  10.281 -36.767  1.00  0.00     0.006 C
HETATM   14  C17 UNL     1       6.007  11.552 -36.198  1.00  0.00     0.017 C
HETATM   15  C18 UNL     1       5.000  11.300 -35.090  1.00  0.00     0.015 C
HETATM   16  C19 UNL     1       5.570  10.395 -34.008  1.00  0.00     0.023 C
HETATM   17  C20 UNL     1       2.992  14.346 -34.691  1.00  0.00     0.023 C
ENDROOT
BRANCH   1  18
HETATM   18  C3  UNL     1       3.062  15.940 -32.817  1.00  0.00     0.270 C
BRANCH  18  19
HETATM   19  O1  UNL     1       3.414  17.271 -32.597  1.00  0.00    -0.333 OA
BRANCH  19  20
HETATM   20  C2  UNL     1       3.108  17.959 -31.454  1.00  0.00     0.128 C
HETATM   21  C1  UNL     1       2.358  19.037 -31.468  1.00  0.00     0.037 C
ENDBRANCH  19  20
ENDBRANCH  18  19
BRANCH  18  22
HETATM   22  O2  UNL     1       1.699  15.914 -33.132  1.00  0.00    -0.370 OA
ATOM     23  H2  UNL     1       1.534  15.114 -33.616  1.00  0.00     0.212 HD
ENDBRANCH  18  22
ENDBRANCH   1  18
BRANCH   9  24
HETATM   24  O3  UNL     1       3.514  11.287 -36.945  1.00  0.00    -0.384 OA
ATOM     25  H3  UNL     1       3.609  12.220 -36.791  1.00  0.00     0.211 HD
ENDBRANCH   9  24
TORSDOF 5
ENDMDL