MODEL 4
REMARK VINA RESULT: -6.734130594      2.637      5.615
REMARK  4 active torsions:
REMARK  status: ('A' for Active; 'I' for Inactive)
REMARK    1  A    between atoms: C3_3  and  O1_4
REMARK    2  A    between atoms: C13_15  and  C14_16
REMARK    3  A    between atoms: C17_19  and  C19_21
REMARK    4  A    between atoms: N1_22  and  O2_24
ROOT
HETATM    1  C1  UNL     1       8.202  13.843 -32.228  1.00  0.00     0.017 C
HETATM    2  C2  UNL     1       7.423  12.818 -32.276  1.00  0.00    -0.052 C
HETATM    3  C3  UNL     1       7.984  11.494 -31.793  1.00  0.00     0.147 C
HETATM    4  C4  UNL     1       7.227  10.367 -32.477  1.00  0.00     0.037 C
HETATM    5  C5  UNL     1       6.838  10.748 -33.866  1.00  0.00     0.013 C
HETATM    6  C6  UNL     1       5.890  11.919 -33.971  1.00  0.00    -0.032 C
HETATM    7  C7  UNL     1       4.490  11.379 -34.064  1.00  0.00     0.016 C
HETATM    8  C8  UNL     1       6.227  12.607 -35.261  1.00  0.00     0.014 C
HETATM    9  C9  UNL     1       5.593  13.899 -35.533  1.00  0.00     0.036 C
HETATM   10  C10 UNL     1       5.368  14.687 -34.325  1.00  0.00    -0.063 C
HETATM   11  C11 UNL     1       5.580  14.221 -33.107  1.00  0.00    -0.067 C
HETATM   12  C12 UNL     1       5.241  15.306 -32.105  1.00  0.00     0.041 C
HETATM   13  C13 UNL     1       4.167  16.066 -32.908  1.00  0.00     0.010 C
HETATM   14  C17 UNL     1       4.870  16.124 -34.231  1.00  0.00     0.018 C
HETATM   15  C18 UNL     1       6.083  16.991 -34.269  1.00  0.00     0.026 C
HETATM   16  C20 UNL     1       6.039  12.873 -32.789  1.00  0.00     0.053 C
ENDROOT
BRANCH  14  17
HETATM   17  C19 UNL     1       3.958  16.412 -35.365  1.00  0.00     0.101 C
HETATM   18  N1  UNL     1       2.758  15.973 -35.320  1.00  0.00    -0.283 N
ATOM     19  H1  UNL     1       2.475  15.438 -34.500  1.00  0.00     0.192 HD
BRANCH  18  20
HETATM   20  O2  UNL     1       1.832  16.177 -36.305  1.00  0.00    -0.291 OA
ATOM     21  H2  UNL     1       1.997  16.678 -37.095  1.00  0.00     0.244 HD
ENDBRANCH  18  20
ENDBRANCH  14  17
BRANCH  13  22
HETATM   22  C14 UNL     1       3.881  17.404 -32.301  1.00  0.00    -0.017 C
HETATM   23  C15 UNL     1       4.583  17.500 -30.950  1.00  0.00     0.010 C
HETATM   24  C16 UNL     1       2.400  17.497 -32.005  1.00  0.00     0.010 C
ENDBRANCH  13  22
BRANCH   3  25
HETATM   25  O1  UNL     1       7.746  11.408 -30.439  1.00  0.00    -0.391 OA
ATOM     26  H1  UNL     1       7.356  10.559 -30.269  1.00  0.00     0.210 HD
ENDBRANCH   3  25
TORSDOF 4
ENDMDL