MODEL 5
REMARK VINA RESULT: -7.307093700      3.248      6.580
REMARK  2 active torsions:
REMARK  status: ('A' for Active; 'I' for Inactive)
REMARK    1  A    between atoms: C3_3  and  S1_4
REMARK    2  A    between atoms: S1_4  and  C4_5
ROOT
HETATM    1  C1  UNL     1       5.326  13.604 -33.479  1.00  0.00     0.021 C
HETATM    2  C2  UNL     1       4.493  14.543 -33.839  1.00  0.00    -0.042 C
HETATM    3  C3  UNL     1       3.337  14.231 -34.649  1.00  0.00     0.011 C
HETATM    4  C8  UNL     1       3.008  15.158 -35.525  1.00  0.00    -0.066 C
HETATM    5  C9  UNL     1       1.810  14.885 -36.397  1.00  0.00     0.044 C
HETATM    6  C10 UNL     1       3.730  16.387 -35.684  1.00  0.00     0.041 C
HETATM    7  C11 UNL     1       4.571  16.920 -34.556  1.00  0.00     0.010 C
HETATM    8  C12 UNL     1       5.771  17.674 -35.051  1.00  0.00    -0.043 C
HETATM    9  C13 UNL     1       5.340  19.119 -35.429  1.00  0.00     0.015 C
HETATM   10  C14 UNL     1       6.280  17.130 -36.386  1.00  0.00     0.015 C
HETATM   11  C15 UNL     1       6.960  17.805 -34.184  1.00  0.00     0.009 C
HETATM   12  C16 UNL     1       6.592  17.486 -32.766  1.00  0.00     0.002 C
HETATM   13  C17 UNL     1       6.121  16.028 -32.802  1.00  0.00     0.014 C
HETATM   14  C18 UNL     1       4.767  15.960 -33.445  1.00  0.00    -0.012 C
HETATM   15  C19 UNL     1       3.784  16.261 -32.322  1.00  0.00     0.021 C
ENDROOT
BRANCH   3  16
HETATM   16  S1  UNL     1       2.388  12.786 -34.487  1.00  0.00    -0.096 SA
BRANCH  16  17
HETATM   17  C4  UNL     1       3.131  11.214 -34.781  1.00  0.00     0.255 C
HETATM   18  C5  UNL     1       2.072  10.218 -35.283  1.00  0.00     0.072 C
HETATM   19  C6  UNL     1       2.779   8.908 -35.546  1.00  0.00     0.237 C
HETATM   20  N1  UNL     1       3.853   9.052 -36.483  1.00  0.00    -0.051 N
HETATM   21  C7  UNL     1       4.711  10.165 -36.225  1.00  0.00     0.464 C
ATOM     22  H12 UNL     1       4.395   8.189 -36.540  1.00  0.00     0.279 HD
ATOM     23  H11 UNL     1       3.492   9.094 -37.436  1.00  0.00     0.279 HD
HETATM   24  N2  UNL     1       3.993  11.390 -35.997  1.00  0.00    -0.038 N
ATOM     25  H22 UNL     1       3.462  11.691 -36.814  1.00  0.00     0.280 HD
ATOM     26  H21 UNL     1       4.609  12.199 -35.927  1.00  0.00     0.280 HD
ENDBRANCH  16  17
ENDBRANCH   3  16
TORSDOF 2
ENDMDL