MODEL 4
REMARK VINA RESULT: -7.113991679      2.820      6.399
REMARK  1 active torsions:
REMARK  status: ('A' for Active; 'I' for Inactive)
REMARK    1  A    between atoms: C15_16  and  C16_17
ROOT
HETATM    1  C1  UNL     1       5.290  11.532 -36.203  1.00  0.00     0.020 C
HETATM    2  C2  UNL     1       4.663  11.565 -34.818  1.00  0.00    -0.020 C
HETATM    3  C3  UNL     1       3.616  10.494 -34.785  1.00  0.00     0.020 C
HETATM    4  C4  UNL     1       5.766  11.288 -33.833  1.00  0.00    -0.062 C
HETATM    5  C5  UNL     1       5.779  10.103 -33.248  1.00  0.00     0.097 C
HETATM    6  C6  UNL     1       6.809   9.779 -32.297  1.00  0.00     0.088 C
HETATM    7  N1  UNL     1       7.634   9.523 -31.510  1.00  0.00    -0.192 NA
HETATM    8  C7  UNL     1       6.757  12.323 -33.567  1.00  0.00     0.036 C
HETATM    9  C8  UNL     1       6.229  13.728 -33.536  1.00  0.00     0.010 C
HETATM   10  C9  UNL     1       5.215  13.932 -34.666  1.00  0.00    -0.004 C
HETATM   11  C10 UNL     1       4.142  12.914 -34.441  1.00  0.00     0.002 C
HETATM   12  C11 UNL     1       2.850  13.314 -35.058  1.00  0.00     0.007 C
HETATM   13  C12 UNL     1       2.466  14.553 -34.191  1.00  0.00     0.015 C
HETATM   14  C13 UNL     1       3.367  15.697 -34.473  1.00  0.00    -0.008 C
HETATM   15  C14 UNL     1       2.673  16.378 -35.684  1.00  0.00     0.021 C
HETATM   16  C15 UNL     1       3.253  16.699 -33.386  1.00  0.00     0.012 C
HETATM   17  C17 UNL     1       4.195  17.631 -33.215  1.00  0.00    -0.014 C
HETATM   18  C18 UNL     1       5.351  17.651 -34.121  1.00  0.00     0.028 C
HETATM   19  C19 UNL     1       5.823  16.195 -34.172  1.00  0.00     0.010 C
HETATM   20  C20 UNL     1       4.769  15.327 -34.835  1.00  0.00     0.003 C
ENDROOT
BRANCH  16  21
HETATM   21  C16 UNL     1       2.155  16.791 -32.439  1.00  0.00     0.261 C
HETATM   22  N2  UNL     1       1.976  17.924 -31.580  1.00  0.00    -0.057 NA
HETATM   23  O1  UNL     1       1.312  15.887 -32.328  1.00  0.00    -0.271 OA
ENDBRANCH  16  21
TORSDOF 1
ENDMDL