MODEL 1
REMARK VINA RESULT: -7.803137928      0.000      0.000
REMARK  3 active torsions:
REMARK  status: ('A' for Active; 'I' for Inactive)
REMARK    1  A    between atoms: C2_2  and  C3_3
REMARK    2  A    between atoms: C11_14  and  C12_15
REMARK    3  A    between atoms: C12_15  and  O1_17
ROOT
HETATM    1  C3  UNL     1       0.850  13.084 -35.152  1.00  0.00     0.075 C
HETATM    2  C4  UNL     1      -0.223  13.131 -34.049  1.00  0.00     0.050 C
HETATM    3  C5  UNL     1       0.866  11.670 -35.648  1.00  0.00     0.042 C
HETATM    4  C6  UNL     1       1.870  10.952 -34.767  1.00  0.00     0.011 C
HETATM    5  C7  UNL     1       3.211  11.608 -35.165  1.00  0.00     0.025 C
HETATM    6  C8  UNL     1       4.249  10.704 -34.622  1.00  0.00     0.059 C
HETATM    7  C9  UNL     1       5.596  10.793 -35.176  1.00  0.00    -0.019 C
HETATM    8  N1  UNL     1       5.760  10.464 -36.407  1.00  0.00    -0.406 N
ATOM      9  H11 UNL     1       6.702  10.526 -36.794  1.00  0.00     0.155 HD
ATOM     10  H12 UNL     1       4.904  10.169 -36.876  1.00  0.00     0.155 HD
HETATM   11  C10 UNL     1       6.842  11.221 -34.494  1.00  0.00     0.063 C
HETATM   12  C11 UNL     1       6.712  11.463 -33.017  1.00  0.00     0.047 C
HETATM   13  C14 UNL     1       7.033  12.868 -32.656  1.00  0.00    -0.081 C
HETATM   14  C15 UNL     1       8.214  13.101 -31.736  1.00  0.00     0.043 C
HETATM   15  C16 UNL     1       6.426  13.956 -33.078  1.00  0.00    -0.024 C
HETATM   16  C17 UNL     1       5.290  14.117 -34.004  1.00  0.00     0.030 C
HETATM   17  C18 UNL     1       4.005  13.477 -33.633  1.00  0.00     0.042 C
HETATM   18  C19 UNL     1       3.193  13.030 -34.861  1.00  0.00     0.063 C
HETATM   19  C20 UNL     1       3.713  13.795 -36.100  1.00  0.00     0.046 C
HETATM   20  O2  UNL     1       1.957  13.616 -34.700  1.00  0.00    -0.366 OA
ENDROOT
BRANCH  12  21
HETATM   21  C12 UNL     1       7.667  10.449 -32.357  1.00  0.00     0.122 C
HETATM   22  C13 UNL     1       7.023   9.169 -31.979  1.00  0.00     0.040 C
BRANCH  21  23
HETATM   23  O1  UNL     1       8.611  10.169 -33.365  1.00  0.00    -0.395 OA
ATOM     24  H1  UNL     1       8.666   9.221 -33.367  1.00  0.00     0.210 HD
ENDBRANCH  21  23
ENDBRANCH  12  21
BRANCH   1  25
HETATM   25  C2  UNL     1       0.281  13.918 -36.265  1.00  0.00     0.000 C
HETATM   26  C1  UNL     1      -1.010  13.977 -36.469  1.00  0.00     0.010 C
ENDBRANCH   1  25
TORSDOF 3
ENDMDL