MODEL 3
REMARK VINA RESULT: -7.967922038      2.137      4.232
REMARK  3 active torsions:
REMARK  status: ('A' for Active; 'I' for Inactive)
REMARK    1  A    between atoms: C2_2  and  C3_3
REMARK    2  A    between atoms: C10_10  and  C11_11
REMARK    3  A    between atoms: C19_22  and  O1_23
ROOT
HETATM    1  C11 UNL     1       3.329  13.843 -33.982  1.00  0.00     0.072 C
HETATM    2  C12 UNL     1       4.435  14.843 -33.945  1.00  0.00     0.017 C
HETATM    3  C13 UNL     1       4.094  16.189 -33.428  1.00  0.00    -0.018 C
HETATM    4  C14 UNL     1       4.429  16.330 -31.952  1.00  0.00     0.010 C
HETATM    5  C15 UNL     1       2.688  16.629 -33.621  1.00  0.00     0.009 C
HETATM    6  C16 UNL     1       1.656  15.571 -33.396  1.00  0.00     0.070 C
HETATM    7  C17 UNL     1       1.977  14.417 -34.297  1.00  0.00     0.235 C
HETATM    8  N1  UNL     1       1.887  14.724 -35.691  1.00  0.00    -0.038 N
ATOM      9  H11 UNL     1       2.733  14.495 -36.213  1.00  0.00     0.281 HD
ATOM     10  H12 UNL     1       1.887  15.725 -35.888  1.00  0.00     0.281 HD
HETATM   11  C18 UNL     1       0.702  14.038 -36.175  1.00  0.00     0.296 C
HETATM   12  C19 UNL     1      -0.025  13.765 -34.874  1.00  0.00     0.285 C
HETATM   13  O2  UNL     1       1.023  13.417 -34.039  1.00  0.00    -0.321 OA
ENDROOT
BRANCH   1  14
HETATM   14  C10 UNL     1       3.626  12.817 -35.017  1.00  0.00    -0.014 C
HETATM   15  C9  UNL     1       4.633  11.955 -34.950  1.00  0.00    -0.079 C
HETATM   16  C7  UNL     1       4.845  10.971 -36.029  1.00  0.00     0.010 C
HETATM   17  C20 UNL     1       5.507  12.052 -33.738  1.00  0.00     0.043 C
HETATM   18  C6  UNL     1       6.212  10.415 -36.140  1.00  0.00     0.009 C
HETATM   19  C8  UNL     1       3.794   9.865 -35.971  1.00  0.00     0.015 C
HETATM   20  C5  UNL     1       7.186  10.793 -35.104  1.00  0.00     0.010 C
HETATM   21  C3  UNL     1       6.649  11.094 -33.754  1.00  0.00    -0.041 C
HETATM   22  C4  UNL     1       7.789  11.757 -32.965  1.00  0.00     0.015 C
BRANCH  21  23
HETATM   23  C2  UNL     1       6.325   9.825 -32.954  1.00  0.00     0.005 C
HETATM   24  C1  UNL     1       7.339   9.629 -31.851  1.00  0.00     0.006 C
ENDBRANCH  21  23
ENDBRANCH   1  14
BRANCH  12  25
HETATM   25  O1  UNL     1      -0.959  12.746 -35.006  1.00  0.00    -0.369 OA
ATOM     26  H1  UNL     1      -1.263  12.431 -34.163  1.00  0.00     0.212 HD
ENDBRANCH  12  25
TORSDOF 3
ENDMDL