MODEL 5
REMARK VINA RESULT: -7.103454319      3.662      5.574
REMARK  2 active torsions:
REMARK  status: ('A' for Active; 'I' for Inactive)
REMARK       I    between atoms: C1_2  and  N1_3
REMARK    1  A    between atoms: C1_2  and  C5_12
REMARK    2  A    between atoms: N1_3  and  N2_5
ROOT
HETATM    1  C5  UNL     1       3.024  18.381 -35.320  1.00  0.00     0.141 C
HETATM    2  C6  UNL     1       3.140  18.007 -33.837  1.00  0.00     0.025 C
HETATM    3  C7  UNL     1       3.553  16.591 -33.638  1.00  0.00     0.002 C
HETATM    4  C8  UNL     1       5.012  16.381 -33.426  1.00  0.00     0.000 C
HETATM    5  C9  UNL     1       5.657  17.450 -32.577  1.00  0.00     0.000 C
HETATM    6  C10 UNL     1       7.053  17.026 -32.197  1.00  0.00     0.000 C
HETATM    7  C11 UNL     1       8.005  17.089 -33.365  1.00  0.00     0.000 C
HETATM    8  C12 UNL     1       8.316  18.472 -33.819  1.00  0.00     0.000 C
HETATM    9  C13 UNL     1       8.717  18.434 -35.267  1.00  0.00     0.000 C
HETATM   10  C14 UNL     1       7.547  18.384 -36.210  1.00  0.00     0.001 C
HETATM   11  C15 UNL     1       6.930  19.724 -36.475  1.00  0.00     0.010 C
HETATM   12  C16 UNL     1       5.534  19.861 -35.920  1.00  0.00     0.075 C
HETATM   13  S1  UNL     1       4.615  18.318 -36.152  1.00  0.00    -0.155 SA
ENDROOT
BRANCH   1  14
HETATM   14  C1  UNL     1       2.428  19.747 -35.392  1.00  0.00     0.249 C
HETATM   15  O1  UNL     1       1.893  20.179 -36.446  1.00  0.00    -0.271 OA
HETATM   16  N1  UNL     1       2.454  20.601 -34.254  1.00  0.00    -0.268 N
ATOM     17  H1  UNL     1       2.885  20.262 -33.393  1.00  0.00     0.190 HD
BRANCH  16  18
HETATM   18  N2  UNL     1       1.918  21.868 -34.275  1.00  0.00    -0.287 N
HETATM   19  C2  UNL     1       0.810  22.210 -33.741  1.00  0.00     0.093 C
HETATM   20  C3  UNL     1      -0.025  23.425 -33.582  1.00  0.00     0.097 C
HETATM   21  N3  UNL     1      -0.177  21.493 -33.010  1.00  0.00    -0.378 N
HETATM   22  C4  UNL     1      -1.164  22.411 -33.559  1.00  0.00     0.128 C
ATOM     23  H3  UNL     1      -0.188  20.691 -32.379  1.00  0.00     0.160 HD
ATOM     24  H2  UNL     1       2.449  22.594 -34.756  1.00  0.00     0.188 HD
ENDBRANCH  16  18
ENDBRANCH   1  14
TORSDOF 2
ENDMDL