MODEL 5
REMARK VINA RESULT: -8.862598240      3.557      5.100
REMARK  6 active torsions:
REMARK  status: ('A' for Active; 'I' for Inactive)
REMARK    1  A    between atoms: C2_2  and  C3_3
REMARK    2  A    between atoms: C3_3  and  C4_4
REMARK    3  A    between atoms: C5_5  and  C7_7
REMARK       I    between atoms: N1_11  and  C11_12
REMARK    4  A    between atoms: C11_12  and  C12_14
REMARK    5  A    between atoms: C12_14  and  C13_15
REMARK    6  A    between atoms: C13_15  and  C14_16
ROOT
HETATM    1  C7  UNL     1     -11.481   0.101 -20.094  1.00  0.00     0.024 C
HETATM    2  C8  UNL     1     -10.578  -0.601 -19.070  1.00  0.00     0.012 C
HETATM    3  C9  UNL     1     -11.337  -0.281 -17.797  1.00  0.00     0.027 C
HETATM    4  C10 UNL     1     -12.095   0.993 -18.096  1.00  0.00     0.096 C
HETATM    5  N1  UNL     1     -12.015   1.939 -17.058  1.00  0.00    -0.347 N
HETATM    6  C11 UNL     1     -12.602   1.609 -15.786  1.00  0.00     0.220 C
HETATM    7  O1  UNL     1     -13.133   0.464 -15.662  1.00  0.00    -0.273 OA
HETATM    8  C19 UNL     1     -11.376   3.191 -17.230  1.00  0.00     0.126 C
HETATM    9  C20 UNL     1     -10.183   3.068 -18.100  1.00  0.00     0.021 C
HETATM   10  C21 UNL     1     -10.356   2.268 -19.364  1.00  0.00     0.013 C
HETATM   11  C22 UNL     1     -11.570   1.458 -19.443  1.00  0.00    -0.016 C
HETATM   12  C23 UNL     1     -12.701   2.224 -20.123  1.00  0.00     0.018 C
ENDROOT
BRANCH   6  13
HETATM   13  C12 UNL     1     -12.535   2.627 -14.731  1.00  0.00     0.106 C
BRANCH  13  14
HETATM   14  C13 UNL     1     -13.376   3.831 -14.842  1.00  0.00     0.046 C
BRANCH  14  15
HETATM   15  C14 UNL     1     -12.812   5.079 -14.263  1.00  0.00     0.155 C
HETATM   16  C15 UNL     1     -12.984   6.213 -15.253  1.00  0.00     0.002 C
HETATM   17  C16 UNL     1     -12.097   7.179 -15.294  1.00  0.00    -0.018 C
HETATM   18  C17 UNL     1     -10.891   7.296 -14.449  1.00  0.00     0.138 C
HETATM   19  C18 UNL     1     -10.621   6.036 -13.716  1.00  0.00     0.262 C
HETATM   20  O2  UNL     1      -9.684   5.945 -12.892  1.00  0.00    -0.265 OA
HETATM   21  O3  UNL     1     -11.449   4.955 -13.980  1.00  0.00    -0.312 OA
ENDBRANCH  14  15
ENDBRANCH  13  14
ENDBRANCH   6  13
BRANCH   1  22
HETATM   22  C5  UNL     1     -11.021   0.014 -21.445  1.00  0.00    -0.083 C
HETATM   23  C4  UNL     1     -11.818  -0.160 -22.476  1.00  0.00    -0.024 C
HETATM   24  C6  UNL     1      -9.541   0.089 -21.754  1.00  0.00     0.043 C
BRANCH  23  25
HETATM   25  C3  UNL     1     -13.287  -0.264 -22.454  1.00  0.00     0.027 C
BRANCH  25  26
HETATM   26  C2  UNL     1     -13.790  -1.522 -23.135  1.00  0.00    -0.001 C
HETATM   27  C1  UNL     1     -12.714  -2.269 -23.848  1.00  0.00     0.005 C
ENDBRANCH  25  26
ENDBRANCH  23  25
ENDBRANCH   1  22
TORSDOF 6
ENDMDL