MODEL 2
REMARK VINA RESULT: -7.835008188      0.738      1.563
REMARK  8 active torsions:
REMARK  status: ('A' for Active; 'I' for Inactive)
REMARK    1  A    between atoms: C2_2  and  C3_3
REMARK    2  A    between atoms: C3_3  and  C4_4
REMARK    3  A    between atoms: C4_4  and  C5_5
REMARK    4  A    between atoms: C5_5  and  C6_6
REMARK    5  A    between atoms: C6_6  and  C7_7
REMARK    6  A    between atoms: C7_7  and  N1_8
REMARK    7  A    between atoms: C10_11  and  C11_12
REMARK    8  A    between atoms: C11_12  and  O2_14
ROOT
HETATM    1  N1  UNL     1     -13.745   2.939 -17.990  1.00  0.00    -0.378 N
HETATM    2  C8  UNL     1     -12.972   2.129 -18.911  1.00  0.00     0.016 C
HETATM    3  C9  UNL     1     -13.437   1.791 -20.279  1.00  0.00     0.068 C
HETATM    4  C10 UNL     1     -11.826   1.775 -18.299  1.00  0.00     0.045 C
HETATM    5  C13 UNL     1     -11.861   2.351 -16.937  1.00  0.00     0.050 C
HETATM    6  C14 UNL     1     -10.509   2.690 -16.462  1.00  0.00     0.014 C
HETATM    7  C15 UNL     1     -10.287   2.375 -14.990  1.00  0.00     0.036 C
HETATM    8  C16 UNL     1     -10.899   3.431 -14.091  1.00  0.00     0.225 A
HETATM    9  C17 UNL     1     -12.366   3.034 -13.922  1.00  0.00     0.072 A
HETATM   10  C18 UNL     1     -12.660   4.195 -14.676  1.00  0.00     0.231 A
HETATM   11  C19 UNL     1     -13.168   4.343 -16.024  1.00  0.00     0.042 C
HETATM   12  C20 UNL     1     -12.822   5.824 -16.343  1.00  0.00     0.010 C
HETATM   13  C21 UNL     1     -12.286   6.587 -15.178  1.00  0.00     0.031 C
HETATM   14  C22 UNL     1     -11.115   5.872 -14.484  1.00  0.00     0.273 C
HETATM   15  N2  UNL     1     -11.234   4.524 -14.865  1.00  0.00     0.098 N
HETATM   16  C23 UNL     1     -12.736   3.557 -17.160  1.00  0.00     0.099 C
ENDROOT
BRANCH   1  17
HETATM   17  C7  UNL     1     -15.186   3.023 -18.029  1.00  0.00     0.123 C
BRANCH  17  18
HETATM   18  C6  UNL     1     -15.735   4.242 -18.658  1.00  0.00     0.020 C
BRANCH  18  19
HETATM   19  C5  UNL     1     -16.577   4.153 -19.849  1.00  0.00     0.002 C
BRANCH  19  20
HETATM   20  C4  UNL     1     -17.969   4.558 -19.919  1.00  0.00     0.000 C
BRANCH  20  21
HETATM   21  C3  UNL     1     -19.032   3.543 -19.923  1.00  0.00    -0.000 C
BRANCH  21  22
HETATM   22  C2  UNL     1     -18.803   2.400 -18.972  1.00  0.00    -0.005 C
HETATM   23  C1  UNL     1     -19.107   2.923 -17.577  1.00  0.00     0.005 C
ENDBRANCH  21  22
ENDBRANCH  20  21
ENDBRANCH  19  20
ENDBRANCH  18  19
ENDBRANCH  17  18
ENDBRANCH   1  17
BRANCH   4  24
HETATM   24  C11 UNL     1     -10.831   0.948 -18.974  1.00  0.00     0.291 C
HETATM   25  O1  UNL     1     -10.780  -0.296 -18.684  1.00  0.00    -0.260 OA
BRANCH  24  26
HETATM   26  O2  UNL     1      -9.921   1.372 -19.903  1.00  0.00    -0.323 OA
HETATM   27  C12 UNL     1      -9.403   0.510 -20.890  1.00  0.00     0.213 C
ENDBRANCH  24  26
ENDBRANCH   4  24
TORSDOF 8
ENDMDL