MODEL 4
REMARK VINA RESULT: -8.462537194      0.941      1.491
REMARK  6 active torsions:
REMARK  status: ('A' for Active; 'I' for Inactive)
REMARK    1  A    between atoms: N1_16  and  C16_17
REMARK    2  A    between atoms: C16_17  and  C17_18
REMARK    3  A    between atoms: C17_18  and  N2_19
REMARK    4  A    between atoms: N2_19  and  C18_20
REMARK    5  A    between atoms: N2_19  and  C20_22
REMARK    6  A    between atoms: C20_22  and  C21_23
ROOT
HETATM    1  C1  UNL     1     -10.929   7.402 -14.151  1.00  0.00     0.013 C
HETATM    2  C2  UNL     1     -11.395   6.359 -14.557  1.00  0.00    -0.107 C
HETATM    3  C3  UNL     1     -11.952   5.038 -15.063  1.00  0.00     0.026 C
HETATM    4  C4  UNL     1     -13.011   4.724 -14.184  1.00  0.00     0.030 C
HETATM    5  C5  UNL     1     -12.083   5.283 -16.528  1.00  0.00     0.023 C
HETATM    6  C6  UNL     1     -12.566   4.758 -17.812  1.00  0.00     0.006 C
HETATM    7  C7  UNL     1     -11.576   3.409 -18.263  1.00  0.00     0.035 C
HETATM    8  C8  UNL     1     -11.420   3.263 -16.798  1.00  0.00    -0.073 C
HETATM    9  C9  UNL     1     -10.521   4.073 -16.245  1.00  0.00    -0.017 C
HETATM   10  C10 UNL     1     -10.562   4.069 -14.764  1.00  0.00     0.028 C
HETATM   11  C11 UNL     1     -10.850   2.990 -13.979  1.00  0.00     0.010 C
HETATM   12  C12 UNL     1     -10.795   1.555 -14.559  1.00  0.00     0.006 C
HETATM   13  C13 UNL     1     -12.176   1.351 -15.215  1.00  0.00     0.001 C
HETATM   14  C14 UNL     1     -12.535  -0.102 -15.262  1.00  0.00     0.036 C
HETATM   15  C15 UNL     1     -12.325  -0.864 -16.495  1.00  0.00     0.273 C
HETATM   16  N1  UNL     1     -12.449  -0.101 -17.688  1.00  0.00     0.091 N
HETATM   17  C23 UNL     1     -11.512   1.017 -17.526  1.00  0.00     0.286 C
HETATM   18  C24 UNL     1     -12.224   2.049 -16.552  1.00  0.00     0.009 C
HETATM   19  C25 UNL     1     -13.620   2.034 -16.924  1.00  0.00     0.022 C
ENDROOT
BRANCH  16  20
HETATM   20  C16 UNL     1     -12.111  -0.723 -18.916  1.00  0.00     0.302 C
BRANCH  20  21
HETATM   21  C17 UNL     1     -11.084  -0.111 -19.778  1.00  0.00     0.302 C
BRANCH  21  22
HETATM   22  N2  UNL     1     -11.477   0.388 -21.046  1.00  0.00     0.090 N
BRANCH  22  23
HETATM   23  C18 UNL     1     -12.885   0.388 -21.272  1.00  0.00     0.268 C
HETATM   24  C19 UNL     1     -13.509   1.686 -20.783  1.00  0.00     0.037 C
ENDBRANCH  22  23
BRANCH  22  25
HETATM   25  C20 UNL     1     -10.708  -0.197 -22.114  1.00  0.00     0.286 C
BRANCH  25  26
HETATM   26  C21 UNL     1     -11.490  -0.254 -23.411  1.00  0.00     0.154 C
HETATM   27  C22 UNL     1     -11.587  -1.621 -23.913  1.00  0.00     0.060 C
HETATM   28  N3  UNL     1     -11.683  -2.717 -24.319  1.00  0.00    -0.197 NA
ENDBRANCH  25  26
ENDBRANCH  22  25
ENDBRANCH  21  22
ENDBRANCH  20  21
ENDBRANCH  16  20
TORSDOF 6
ENDMDL