MODEL 3
REMARK VINA RESULT: -8.368094786      2.871      5.463
REMARK  6 active torsions:
REMARK  status: ('A' for Active; 'I' for Inactive)
REMARK    1  A    between atoms: N1_3  and  C3_4
REMARK       I    between atoms: N1_3  and  C17_19
REMARK    2  A    between atoms: C3_4  and  C4_5
REMARK    3  A    between atoms: N2_8  and  C7_9
REMARK    4  A    between atoms: C7_9  and  C8_10
REMARK    5  A    between atoms: C8_10  and  C9_11
REMARK    6  A    between atoms: C17_19  and  C18_21
ROOT
HETATM    1  C1  UNL     1      -8.934   3.492 -13.882  1.00  0.00     0.123 C
HETATM    2  C2  UNL     1     -10.018   2.921 -13.755  1.00  0.00    -0.070 C
HETATM    3  N1  UNL     1     -11.263   2.310 -13.632  1.00  0.00    -0.282 N
HETATM    4  C17 UNL     1     -11.447   1.064 -13.074  1.00  0.00     0.272 C
HETATM    5  O1  UNL     1     -12.597   0.562 -13.018  1.00  0.00    -0.266 OA
ENDROOT
BRANCH   3   6
HETATM    6  C3  UNL     1     -12.388   3.094 -14.106  1.00  0.00     0.146 C
BRANCH   6   7
HETATM    7  C4  UNL     1     -12.312   3.356 -15.575  1.00  0.00     0.008 C
HETATM    8  C5  UNL     1     -13.040   2.303 -16.397  1.00  0.00     0.036 C
HETATM    9  C6  UNL     1     -14.308   2.809 -16.982  1.00  0.00     0.273 C
HETATM   10  N2  UNL     1     -14.165   3.976 -17.851  1.00  0.00     0.088 N
HETATM   11  C15 UNL     1     -12.957   4.708 -17.487  1.00  0.00     0.273 C
HETATM   12  C16 UNL     1     -12.920   4.667 -15.934  1.00  0.00     0.036 C
BRANCH  10  13
HETATM   13  C7  UNL     1     -14.162   3.562 -19.215  1.00  0.00     0.272 C
BRANCH  13  14
HETATM   14  C8  UNL     1     -14.013   2.132 -19.531  1.00  0.00     0.034 C
BRANCH  14  15
HETATM   15  C9  UNL     1     -12.734   1.712 -20.185  1.00  0.00    -0.013 C
HETATM   16  C10 UNL     1     -11.469   2.032 -19.483  1.00  0.00     0.005 C
HETATM   17  C11 UNL     1     -10.279   1.274 -19.965  1.00  0.00     0.000 C
HETATM   18  C12 UNL     1     -10.393   0.508 -21.220  1.00  0.00     0.000 C
HETATM   19  C13 UNL     1     -11.731   0.199 -21.762  1.00  0.00     0.000 C
HETATM   20  C14 UNL     1     -12.763   0.264 -20.661  1.00  0.00     0.005 C
ENDBRANCH  14  15
ENDBRANCH  13  14
ENDBRANCH  10  13
ENDBRANCH   6   7
ENDBRANCH   3   6
BRANCH   4  21
HETATM   21  C18 UNL     1     -10.357   0.265 -12.529  1.00  0.00     0.079 A
HETATM   22  S1  UNL     1      -9.365  -0.883 -13.300  1.00  0.00    -0.096 SA
HETATM   23  C19 UNL     1      -8.372  -1.341 -12.001  1.00  0.00     0.051 A
HETATM   24  C20 UNL     1      -8.846  -0.572 -10.974  1.00  0.00     0.015 A
HETATM   25  C21 UNL     1      -9.869   0.258 -11.240  1.00  0.00    -0.039 A
HETATM   26  C22 UNL     1     -10.480   1.160 -10.181  1.00  0.00     0.050 C
ENDBRANCH   4  21
TORSDOF 6
ENDMDL