MODEL 3
REMARK VINA RESULT: -8.284208248      2.386      4.886
REMARK  6 active torsions:
REMARK  status: ('A' for Active; 'I' for Inactive)
REMARK    1  A    between atoms: C2_2  and  C3_3
REMARK    2  A    between atoms: C3_3  and  C4_4
REMARK    3  A    between atoms: C4_4  and  C5_5
REMARK    4  A    between atoms: C5_5  and  N1_6
REMARK    5  A    between atoms: C17_20  and  C18_21
REMARK    6  A    between atoms: C18_21  and  C19_22
ROOT
HETATM    1  N1  UNL     1     -11.579   0.715 -18.310  1.00  0.00    -0.315 N
HETATM    2  C6  UNL     1     -12.660   1.502 -18.446  1.00  0.00     0.056 A
HETATM    3  C7  UNL     1     -13.215   1.687 -19.734  1.00  0.00     0.002 A
HETATM    4  C8  UNL     1     -12.683   1.100 -20.836  1.00  0.00    -0.036 A
HETATM    5  C9  UNL     1     -11.582   0.306 -20.688  1.00  0.00     0.017 A
HETATM    6  C10 UNL     1     -11.076   0.145 -19.432  1.00  0.00     0.254 A
HETATM    7  O1  UNL     1     -10.066  -0.582 -19.284  1.00  0.00    -0.267 OA
HETATM    8  C11 UNL     1     -10.981  -0.341 -21.866  1.00  0.00     0.045 C
HETATM    9  C12 UNL     1     -11.933  -0.713 -22.941  1.00  0.00     0.005 C
HETATM   10  C13 UNL     1     -13.220   0.019 -22.978  1.00  0.00     0.005 C
HETATM   11  C14 UNL     1     -13.255   1.292 -22.178  1.00  0.00     0.040 C
HETATM   12  C15 UNL     1     -14.475   2.482 -19.646  1.00  0.00     0.314 C
HETATM   13  N2  UNL     1     -14.821   2.238 -18.261  1.00  0.00     0.098 N
HETATM   14  C16 UNL     1     -15.773   3.185 -17.764  1.00  0.00     0.311 C
HETATM   15  C17 UNL     1     -13.514   2.372 -17.601  1.00  0.00     0.273 C
ENDROOT
BRANCH  15  16
HETATM   16  C18 UNL     1     -13.091   3.786 -17.677  1.00  0.00     0.046 C
BRANCH  16  17
HETATM   17  C19 UNL     1     -12.289   4.413 -16.616  1.00  0.00    -0.012 C
HETATM   18  C20 UNL     1     -12.177   3.630 -15.332  1.00  0.00     0.005 C
HETATM   19  C21 UNL     1     -12.722   4.455 -14.171  1.00  0.00     0.000 C
HETATM   20  C22 UNL     1     -11.893   5.689 -14.091  1.00  0.00     0.000 C
HETATM   21  C23 UNL     1     -12.161   6.547 -15.295  1.00  0.00     0.000 C
HETATM   22  C24 UNL     1     -12.862   5.797 -16.363  1.00  0.00     0.005 C
ENDBRANCH  16  17
ENDBRANCH  15  16
BRANCH   1  23
HETATM   23  C5  UNL     1     -11.063   0.442 -17.024  1.00  0.00     0.132 C
BRANCH  23  24
HETATM   24  C4  UNL     1     -11.631  -0.782 -16.353  1.00  0.00     0.020 C
BRANCH  24  25
HETATM   25  C3  UNL     1     -12.660  -0.272 -15.347  1.00  0.00     0.001 C
BRANCH  25  26
HETATM   26  C2  UNL     1     -13.997  -0.856 -15.788  1.00  0.00    -0.004 C
HETATM   27  C1  UNL     1     -13.815  -2.154 -16.536  1.00  0.00     0.005 C
ENDBRANCH  25  26
ENDBRANCH  24  25
ENDBRANCH  23  24
ENDBRANCH   1  23
TORSDOF 6
ENDMDL