MODEL 2
REMARK VINA RESULT: -8.227004325      1.033      1.625
REMARK  7 active torsions:
REMARK  status: ('A' for Active; 'I' for Inactive)
REMARK    1  A    between atoms: C9_9  and  C10_10
REMARK    2  A    between atoms: C10_10  and  C11_11
REMARK    3  A    between atoms: C11_11  and  C12_12
REMARK    4  A    between atoms: C12_12  and  C13_14
REMARK    5  A    between atoms: C13_14  and  C14_15
REMARK    6  A    between atoms: C14_15  and  C15_16
REMARK    7  A    between atoms: C15_16  and  C16_17
ROOT
HETATM    1  C1  UNL     1     -12.824   0.587 -21.802  1.00  0.00     0.018 C
HETATM    2  C2  UNL     1     -12.670   1.517 -20.609  1.00  0.00     0.051 C
HETATM    3  C3  UNL     1     -13.881   1.389 -19.736  1.00  0.00     0.017 C
HETATM    4  C4  UNL     1     -14.334   2.819 -19.397  1.00  0.00    -0.001 C
HETATM    5  C5  UNL     1     -15.603   2.826 -18.631  1.00  0.00     0.008 C
HETATM    6  C6  UNL     1     -16.459   3.995 -19.137  1.00  0.00     0.014 C
HETATM    7  C7  UNL     1     -15.473   2.923 -17.182  1.00  0.00    -0.025 C
HETATM    8  C8  UNL     1     -14.359   3.414 -16.648  1.00  0.00    -0.016 C
HETATM    9  C9  UNL     1     -13.200   3.888 -17.408  1.00  0.00     0.003 A
HETATM   10  C21 UNL     1     -12.319   2.792 -17.914  1.00  0.00     0.008 A
HETATM   11  C22 UNL     1     -10.854   3.030 -18.205  1.00  0.00     0.013 C
HETATM   12  C23 UNL     1     -10.316   2.050 -19.223  1.00  0.00     0.079 C
HETATM   13  C24 UNL     1     -11.389   1.280 -19.893  1.00  0.00     0.130 C
HETATM   14  O2  UNL     1     -11.160   0.085 -19.845  1.00  0.00    -0.298 OA
HETATM   15  C25 UNL     1     -13.186   3.538 -18.838  1.00  0.00     0.012 A
ENDROOT
BRANCH   9  16
HETATM   16  C10 UNL     1     -12.637   5.214 -17.071  1.00  0.00    -0.009 C
BRANCH  16  17
HETATM   17  C11 UNL     1     -12.814   5.831 -15.765  1.00  0.00     0.047 C
BRANCH  17  18
HETATM   18  C12 UNL     1     -11.776   6.564 -15.091  1.00  0.00     0.149 C
HETATM   19  O1  UNL     1     -11.573   7.746 -15.292  1.00  0.00    -0.293 OA
BRANCH  18  20
HETATM   20  C13 UNL     1     -10.878   5.894 -14.078  1.00  0.00     0.083 C
BRANCH  20  21
HETATM   21  C14 UNL     1     -10.039   4.846 -14.740  1.00  0.00     0.008 C
BRANCH  21  22
HETATM   22  C15 UNL     1     -10.158   3.538 -14.025  1.00  0.00     0.005 C
BRANCH  22  23
HETATM   23  C16 UNL     1     -11.294   2.720 -14.533  1.00  0.00    -0.014 C
HETATM   24  C17 UNL     1     -12.355   2.641 -13.425  1.00  0.00     0.004 C
HETATM   25  C18 UNL     1     -12.097   1.288 -12.766  1.00  0.00     0.000 C
HETATM   26  C19 UNL     1     -11.824   0.441 -14.011  1.00  0.00     0.000 C
HETATM   27  C20 UNL     1     -10.887   1.294 -14.818  1.00  0.00     0.004 C
ENDBRANCH  22  23
ENDBRANCH  21  22
ENDBRANCH  20  21
ENDBRANCH  18  20
ENDBRANCH  17  18
ENDBRANCH  16  17
ENDBRANCH   9  16
TORSDOF 7
ENDMDL