MODEL 3
REMARK VINA RESULT: -9.047709379      2.297      4.999
REMARK  6 active torsions:
REMARK  status: ('A' for Active; 'I' for Inactive)
REMARK    1  A    between atoms: C2_2  and  O1_3
REMARK    2  A    between atoms: O1_3  and  C3_4
REMARK    3  A    between atoms: C3_4  and  C4_5
REMARK    4  A    between atoms: C4_5  and  C5_6
REMARK    5  A    between atoms: C5_6  and  N1_7
REMARK    6  A    between atoms: N2_17  and  C15_18
ROOT
HETATM    1  C3  UNL     1     -13.193   1.991 -19.326  1.00  0.00     0.073 C
HETATM    2  C11 UNL     1     -13.541   0.929 -18.256  1.00  0.00     0.118 C
HETATM    3  C12 UNL     1     -12.633   1.146 -17.206  1.00  0.00    -0.179 C
HETATM    4  C13 UNL     1     -11.969   1.053 -15.968  1.00  0.00     0.099 C
HETATM    5  C14 UNL     1     -10.898   2.209 -16.060  1.00  0.00     0.128 C
HETATM    6  N2  UNL     1     -11.341   3.338 -16.750  1.00  0.00    -0.407 N
HETATM    7  C23 UNL     1     -11.307   3.440 -18.199  1.00  0.00     0.120 C
HETATM    8  C24 UNL     1     -12.671   3.279 -18.813  1.00  0.00     0.058 C
ENDROOT
BRANCH   1   9
HETATM    9  O1  UNL     1     -14.388   2.227 -19.942  1.00  0.00    -0.380 OA
BRANCH   9  10
HETATM   10  C2  UNL     1     -14.947   3.445 -19.952  1.00  0.00     0.164 C
HETATM   11  C1  UNL     1     -16.305   3.319 -19.229  1.00  0.00     0.033 C
ENDBRANCH   9  10
ENDBRANCH   1   9
BRANCH   1  12
HETATM   12  C4  UNL     1     -12.237   1.446 -20.333  1.00  0.00     0.069 C
BRANCH  12  13
HETATM   13  C5  UNL     1     -12.813   0.695 -21.478  1.00  0.00     0.275 C
BRANCH  13  14
HETATM   14  N1  UNL     1     -11.800  -0.243 -22.003  1.00  0.00     0.088 N
HETATM   15  C6  UNL     1     -11.806  -0.228 -23.425  1.00  0.00     0.272 C
HETATM   16  C7  UNL     1     -10.546  -0.767 -24.051  1.00  0.00     0.030 C
HETATM   17  C8  UNL     1      -9.282  -0.225 -23.440  1.00  0.00     0.003 C
HETATM   18  C9  UNL     1      -9.356  -0.545 -21.946  1.00  0.00     0.030 C
HETATM   19  C10 UNL     1     -10.549   0.194 -21.413  1.00  0.00     0.272 C
ENDBRANCH  13  14
ENDBRANCH  12  13
ENDBRANCH   1  12
BRANCH   6  20
HETATM   20  C15 UNL     1     -11.151   4.596 -16.073  1.00  0.00     0.079 C
HETATM   21  C16 UNL     1     -10.768   4.313 -14.657  1.00  0.00     0.029 C
HETATM   22  C17 UNL     1     -11.029   5.454 -13.710  1.00  0.00    -0.012 C
HETATM   23  C18 UNL     1     -10.541   6.781 -14.202  1.00  0.00     0.005 C
HETATM   24  C21 UNL     1     -12.549   5.669 -13.722  1.00  0.00     0.009 C
HETATM   25  C19 UNL     1     -11.658   7.407 -15.011  1.00  0.00     0.005 C
HETATM   26  C20 UNL     1     -12.713   6.315 -15.084  1.00  0.00    -0.012 C
HETATM   27  C22 UNL     1     -12.406   5.396 -16.216  1.00  0.00     0.029 C
ENDBRANCH   6  20
TORSDOF 6
ENDMDL