MODEL 5
REMARK VINA RESULT: -7.571975188      1.102      1.586
REMARK  7 active torsions:
REMARK  status: ('A' for Active; 'I' for Inactive)
REMARK    1  A    between atoms: N1_10  and  C10_11
REMARK    2  A    between atoms: C10_11  and  C11_12
REMARK    3  A    between atoms: C11_12  and  C12_13
REMARK    4  A    between atoms: C12_13  and  N2_14
REMARK    5  A    between atoms: N2_14  and  C13_15
REMARK    6  A    between atoms: N2_14  and  C15_17
REMARK    7  A    between atoms: C24_26  and  O1_27
ROOT
HETATM    1  C1  UNL     1     -12.072   7.180 -15.639  1.00  0.00     0.017 C
HETATM    2  C2  UNL     1     -12.378   5.960 -15.279  1.00  0.00    -0.054 C
HETATM    3  C3  UNL     1     -13.486   5.147 -15.891  1.00  0.00     0.039 C
HETATM    4  C4  UNL     1     -13.119   4.340 -17.060  1.00  0.00     0.039 C
HETATM    5  C5  UNL     1     -13.708   2.908 -17.084  1.00  0.00     0.050 C
HETATM    6  C6  UNL     1     -15.202   3.147 -17.243  1.00  0.00     0.035 C
HETATM    7  C7  UNL     1     -15.727   3.418 -18.570  1.00  0.00     0.004 C
HETATM    8  C8  UNL     1     -14.843   3.376 -19.760  1.00  0.00     0.020 C
HETATM    9  C9  UNL     1     -13.417   3.000 -19.461  1.00  0.00     0.123 C
HETATM   10  N1  UNL     1     -13.282   2.239 -18.249  1.00  0.00    -0.381 N
HETATM   11  C17 UNL     1     -13.518   2.168 -15.823  1.00  0.00     0.000 C
HETATM   12  C18 UNL     1     -12.250   1.658 -15.356  1.00  0.00    -0.028 C
HETATM   13  C19 UNL     1     -10.959   2.136 -15.880  1.00  0.00     0.032 C
HETATM   14  C20 UNL     1     -10.360   3.284 -15.150  1.00  0.00    -0.003 C
HETATM   15  C21 UNL     1     -11.062   4.190 -14.761  1.00  0.00     0.036 A
HETATM   16  C22 UNL     1     -10.162   5.159 -14.131  1.00  0.00     0.033 A
HETATM   17  C23 UNL     1      -9.261   3.981 -14.419  1.00  0.00     0.014 C
HETATM   18  C24 UNL     1     -11.593   5.310 -14.190  1.00  0.00     0.089 A
ENDROOT
BRANCH  10  19
HETATM   19  C10 UNL     1     -13.340   0.864 -18.392  1.00  0.00     0.061 C
BRANCH  19  20
HETATM   20  C11 UNL     1     -12.511   0.176 -19.444  1.00  0.00     0.074 C
BRANCH  20  21
HETATM   21  C12 UNL     1     -11.174  -0.182 -18.753  1.00  0.00     0.277 C
BRANCH  21  22
HETATM   22  N2  UNL     1     -10.043   0.199 -19.548  1.00  0.00     0.088 N
BRANCH  22  23
HETATM   23  C13 UNL     1     -10.146   1.525 -20.088  1.00  0.00     0.268 C
HETATM   24  C14 UNL     1      -9.849   2.520 -18.991  1.00  0.00     0.037 C
ENDBRANCH  22  23
BRANCH  22  25
HETATM   25  C15 UNL     1      -9.605  -0.787 -20.478  1.00  0.00     0.268 C
HETATM   26  C16 UNL     1      -9.463  -0.223 -21.884  1.00  0.00     0.037 C
ENDBRANCH  22  25
ENDBRANCH  21  22
ENDBRANCH  20  21
ENDBRANCH  19  20
ENDBRANCH  10  19
BRANCH  18  27
HETATM   27  O1  UNL     1     -12.230   5.357 -12.918  1.00  0.00    -0.384 OA
ATOM     28  H1  UNL     1     -11.927   4.689 -12.314  1.00  0.00     0.211 HD
ENDBRANCH  18  27
TORSDOF 7
ENDMDL