MODEL 3
REMARK VINA RESULT: -7.512057596      2.228      2.770
REMARK  7 active torsions:
REMARK  status: ('A' for Active; 'I' for Inactive)
REMARK    1  A    between atoms: C2_2  and  O1_3
REMARK    2  A    between atoms: O1_3  and  C3_4
REMARK    3  A    between atoms: C12_15  and  C13_16
REMARK    4  A    between atoms: C14_17  and  C15_18
REMARK    5  A    between atoms: C15_18  and  C16_19
REMARK    6  A    between atoms: C16_19  and  C18_21
REMARK    7  A    between atoms: C19_22  and  C20_23
ROOT
HETATM    1  C3  UNL     1      -9.298   4.420 -14.989  1.00  0.00     0.134 C
HETATM    2  C4  UNL     1      -9.709   5.724 -14.290  1.00  0.00     0.112 C
HETATM    3  C5  UNL     1     -11.142   5.490 -14.001  1.00  0.00     0.145 C
HETATM    4  O2  UNL     1     -11.756   5.745 -13.026  1.00  0.00    -0.297 OA
HETATM    5  C6  UNL     1     -11.667   4.836 -15.247  1.00  0.00     0.084 C
HETATM    6  C7  UNL     1     -12.078   6.011 -16.150  1.00  0.00     0.032 C
HETATM    7  C8  UNL     1     -12.882   4.102 -14.901  1.00  0.00     0.143 C
HETATM    8  O3  UNL     1     -13.901   4.752 -14.662  1.00  0.00    -0.297 OA
HETATM    9  C9  UNL     1     -12.996   2.620 -14.812  1.00  0.00     0.084 C
HETATM   10  C10 UNL     1     -11.590   2.101 -14.654  1.00  0.00    -0.004 C
HETATM   11  C11 UNL     1     -11.496   0.640 -14.474  1.00  0.00     0.011 C
HETATM   12  C12 UNL     1     -10.710   2.549 -15.832  1.00  0.00     0.021 C
HETATM   13  C24 UNL     1     -10.561   4.039 -15.810  1.00  0.00     0.046 C
ENDROOT
BRANCH  12  14
HETATM   14  C13 UNL     1     -11.210   1.984 -17.088  1.00  0.00    -0.013 C
HETATM   15  C14 UNL     1     -11.052   2.494 -18.324  1.00  0.00     0.052 C
BRANCH  15  16
HETATM   16  C15 UNL     1     -11.567   1.841 -19.413  1.00  0.00    -0.122 C
BRANCH  16  17
HETATM   17  C16 UNL     1     -12.049   1.234 -20.418  1.00  0.00    -0.017 C
HETATM   18  C17 UNL     1     -13.455   1.581 -20.905  1.00  0.00     0.057 C
BRANCH  17  19
HETATM   19  C18 UNL     1     -11.362   0.237 -21.218  1.00  0.00     0.011 C
HETATM   20  C19 UNL     1     -11.714  -0.142 -22.423  1.00  0.00    -0.021 C
BRANCH  20  21
HETATM   21  C20 UNL     1     -10.870  -1.186 -23.099  1.00  0.00     0.012 A
HETATM   22  C21 UNL     1     -11.298  -1.959 -24.266  1.00  0.00     0.013 A
HETATM   23  C22 UNL     1     -10.481  -0.718 -24.495  1.00  0.00    -0.010 A
HETATM   24  C23 UNL     1      -9.043  -0.883 -24.900  1.00  0.00     0.010 C
ENDBRANCH  20  21
ENDBRANCH  17  19
ENDBRANCH  16  17
ENDBRANCH  15  16
ENDBRANCH  12  14
BRANCH   1  25
HETATM   25  O1  UNL     1      -9.001   3.441 -14.118  1.00  0.00    -0.385 OA
BRANCH  25  26
HETATM   26  C2  UNL     1      -7.975   3.520 -13.255  1.00  0.00     0.163 C
HETATM   27  C1  UNL     1      -8.133   2.350 -12.277  1.00  0.00     0.033 C
ENDBRANCH  25  26
ENDBRANCH   1  25
TORSDOF 7
ENDMDL