MODEL 5
REMARK VINA RESULT: -8.344818207      1.820      3.773
REMARK  8 active torsions:
REMARK  status: ('A' for Active; 'I' for Inactive)
REMARK    1  A    between atoms: C2_2  and  C3_3
REMARK    2  A    between atoms: C3_3  and  N1_4
REMARK    3  A    between atoms: N1_4  and  C4_5
REMARK    4  A    between atoms: N1_4  and  C6_7
REMARK    5  A    between atoms: C6_7  and  C7_8
REMARK    6  A    between atoms: N2_13  and  C12_14
REMARK    7  A    between atoms: C12_14  and  O1_15
REMARK    8  A    between atoms: C12_14  and  C13_17
ROOT
HETATM    1  C12 UNL     1     -11.655   1.519 -19.065  1.00  0.00     0.156 C
ENDROOT
BRANCH   1   2
HETATM    2  N2  UNL     1     -12.677   2.264 -18.477  1.00  0.00    -0.354 N
HETATM    3  C7  UNL     1     -12.816   2.266 -16.995  1.00  0.00     0.114 C
HETATM    4  C8  UNL     1     -14.320   2.011 -16.769  1.00  0.00     0.027 C
HETATM    5  C9  UNL     1     -15.059   3.236 -17.196  1.00  0.00     0.004 C
HETATM    6  C10 UNL     1     -14.808   3.554 -18.606  1.00  0.00     0.020 C
HETATM    7  C11 UNL     1     -13.618   2.982 -19.279  1.00  0.00     0.125 C
BRANCH   3   8
HETATM    8  C6  UNL     1     -12.469   3.580 -16.388  1.00  0.00     0.297 C
BRANCH   8   9
HETATM    9  N1  UNL     1     -12.307   3.598 -14.950  1.00  0.00     0.090 N
BRANCH   9  10
HETATM   10  C3  UNL     1     -12.722   4.799 -14.340  1.00  0.00     0.272 C
BRANCH  10  11
HETATM   11  C2  UNL     1     -12.890   6.015 -15.173  1.00  0.00     0.026 C
HETATM   12  C1  UNL     1     -11.850   7.063 -15.099  1.00  0.00     0.007 C
ENDBRANCH  10  11
ENDBRANCH   9  10
BRANCH   9  13
HETATM   13  C4  UNL     1     -11.039   3.054 -14.543  1.00  0.00     0.268 C
HETATM   14  C5  UNL     1      -9.936   3.731 -15.330  1.00  0.00     0.037 C
ENDBRANCH   9  13
ENDBRANCH   8   9
ENDBRANCH   3   8
ENDBRANCH   1   2
BRANCH   1  15
HETATM   15  O1  UNL     1     -10.564   1.343 -18.372  1.00  0.00    -0.345 OA
ATOM     16  H1  UNL     1      -9.965   0.665 -18.663  1.00  0.00     0.219 HD
ENDBRANCH   1  15
BRANCH   1  17
HETATM   17  C13 UNL     1     -11.580   0.871 -20.372  1.00  0.00     0.056 A
HETATM   18  C14 UNL     1     -12.515   0.497 -21.284  1.00  0.00     0.031 A
HETATM   19  C15 UNL     1     -12.108  -0.119 -22.423  1.00  0.00    -0.044 A
HETATM   20  C16 UNL     1     -10.767  -0.321 -22.574  1.00  0.00    -0.010 A
HETATM   21  C22 UNL     1     -13.199  -0.542 -23.405  1.00  0.00     0.040 C
HETATM   22  S1  UNL     1     -10.114   0.342 -21.147  1.00  0.00    -0.090 SA
HETATM   23  C17 UNL     1      -9.814  -0.922 -23.577  1.00  0.00     0.046 C
HETATM   24  C18 UNL     1     -10.445  -0.996 -24.908  1.00  0.00     0.005 C
HETATM   25  C19 UNL     1     -11.392  -2.105 -25.139  1.00  0.00     0.000 C
HETATM   26  C20 UNL     1     -12.032  -2.716 -23.942  1.00  0.00     0.000 C
HETATM   27  C21 UNL     1     -13.286  -2.045 -23.495  1.00  0.00     0.005 C
ENDBRANCH   1  17
TORSDOF 8
ENDMDL