MODEL 5
REMARK VINA RESULT: -6.979830510      4.561      6.847
REMARK  2 active torsions:
REMARK  status: ('A' for Active; 'I' for Inactive)
REMARK    1  A    between atoms: C7_8  and  C8_9
REMARK    2  A    between atoms: C8_9  and  C9_10
REMARK       I    between atoms: C9_10  and  N1_12
ROOT
HETATM    1  C9  UNL     1       2.716  20.689 -34.992  1.00  0.00     0.220 C
HETATM    2  O1  UNL     1       3.167  20.610 -36.153  1.00  0.00    -0.273 OA
HETATM    3  N1  UNL     1       2.721  19.515 -34.203  1.00  0.00    -0.348 N
HETATM    4  C10 UNL     1       2.202  19.610 -32.853  1.00  0.00     0.145 C
HETATM    5  C11 UNL     1       3.163  19.193 -31.779  1.00  0.00     0.141 C
HETATM    6  N2  UNL     1       3.234  17.790 -31.602  1.00  0.00    -0.389 N
HETATM    7  C12 UNL     1       4.165  17.287 -30.699  1.00  0.00     0.058 C
HETATM    8  C13 UNL     1       5.603  17.259 -31.097  1.00  0.00     0.046 C
HETATM    9  C14 UNL     1       5.971  16.196 -32.088  1.00  0.00     0.031 C
HETATM   10  C15 UNL     1       6.040  16.643 -33.505  1.00  0.00     0.168 C
HETATM   11  O2  UNL     1       4.864  16.620 -34.215  1.00  0.00    -0.383 OA
HETATM   12  C16 UNL     1       4.055  17.627 -33.808  1.00  0.00     0.157 C
HETATM   13  C17 UNL     1       3.049  17.072 -32.819  1.00  0.00     0.155 C
HETATM   14  C18 UNL     1       3.262  18.329 -34.880  1.00  0.00     0.159 C
ENDROOT
BRANCH   1  15
HETATM   15  C8  UNL     1       2.203  21.972 -34.487  1.00  0.00     0.109 C
BRANCH  15  16
HETATM   16  C7  UNL     1       0.876  22.398 -35.050  1.00  0.00     0.011 C
HETATM   17  C2  UNL     1       1.018  23.721 -35.819  1.00  0.00    -0.042 C
HETATM   18  C1  UNL     1       0.904  24.915 -34.915  1.00  0.00     0.015 C
HETATM   19  C3  UNL     1       2.434  23.785 -36.418  1.00  0.00     0.015 C
HETATM   20  C4  UNL     1       0.082  23.801 -36.974  1.00  0.00     0.019 C
HETATM   21  C5  UNL     1      -1.336  23.499 -36.682  1.00  0.00     0.074 C
HETATM   22  S1  UNL     1      -1.711  23.075 -34.998  1.00  0.00    -0.169 SA
HETATM   23  C6  UNL     1      -0.201  22.634 -34.049  1.00  0.00     0.079 C
ENDBRANCH  15  16
ENDBRANCH   1  15
TORSDOF 2
ENDMDL