MODEL 3
REMARK VINA RESULT: -6.472278094      2.268      6.010
REMARK  5 active torsions:
REMARK  status: ('A' for Active; 'I' for Inactive)
REMARK    1  A    between atoms: S1_2  and  C2_3
REMARK    2  A    between atoms: C2_3  and  N1_5
REMARK    3  A    between atoms: C8_11  and  C9_12
REMARK    4  A    between atoms: C9_12  and  S3_13
REMARK    5  A    between atoms: S3_13  and  C10_16
ROOT
HETATM    1  N1  UNL     1       1.477  15.251 -35.197  1.00  0.00    -0.366 N
HETATM    2  C3  UNL     1       1.244  15.632 -33.833  1.00  0.00     0.124 C
HETATM    3  C4  UNL     1       2.340  16.337 -33.144  1.00  0.00     0.025 C
HETATM    4  C5  UNL     1       3.700  16.279 -33.753  1.00  0.00    -0.002 C
HETATM    5  C6  UNL     1       4.397  14.990 -33.366  1.00  0.00     0.006 C
HETATM    6  C7  UNL     1       4.021  14.446 -34.724  1.00  0.00     0.013 C
HETATM    7  C8  UNL     1       3.780  15.875 -35.158  1.00  0.00    -0.007 C
HETATM    8  C14 UNL     1       2.487  15.970 -35.927  1.00  0.00     0.135 C
ENDROOT
BRANCH   7   9
HETATM    9  C9  UNL     1       4.953  16.371 -35.927  1.00  0.00     0.152 C
BRANCH   9  10
HETATM   10  S3  UNL     1       4.963  18.046 -36.384  1.00  0.00     0.152 S
HETATM   11  O1  UNL     1       4.522  18.134 -37.840  1.00  0.00    -0.227 OA
HETATM   12  O2  UNL     1       4.113  18.954 -35.596  1.00  0.00    -0.227 OA
BRANCH  10  13
HETATM   13  C10 UNL     1       6.677  18.589 -36.391  1.00  0.00     0.053 C
HETATM   14  C11 UNL     1       6.811  19.957 -36.979  1.00  0.00     0.031 C
HETATM   15  C12 UNL     1       7.263  18.503 -35.003  1.00  0.00     0.031 C
HETATM   16  C13 UNL     1       7.432  17.626 -37.284  1.00  0.00     0.031 C
ENDBRANCH  10  13
ENDBRANCH   9  10
ENDBRANCH   7   9
BRANCH   1  17
HETATM   17  C2  UNL     1       0.706  14.183 -35.788  1.00  0.00     0.136 C
HETATM   18  S2  UNL     1       0.948  12.637 -35.401  1.00  0.00    -0.053 SA
BRANCH  17  19
HETATM   19  S1  UNL     1      -0.539  14.655 -36.977  1.00  0.00    -0.105 SA
HETATM   20  C1  UNL     1       0.258  14.920 -38.563  1.00  0.00     0.098 C
ENDBRANCH  17  19
ENDBRANCH   1  17
TORSDOF 5
ENDMDL