MODEL 5
REMARK VINA RESULT: -9.090637644      2.477      7.123
REMARK  2 active torsions:
REMARK  status: ('A' for Active; 'I' for Inactive)
REMARK    1  A    between atoms: C10_14  and  O2_15
REMARK    2  A    between atoms: O2_15  and  C11_16
ROOT
HETATM    1  O1  UNL     1      -2.395  13.718 -37.234  1.00  0.00    -0.298 OA
HETATM    2  C1  UNL     1      -1.373  13.860 -36.614  1.00  0.00     0.127 C
HETATM    3  C2  UNL     1      -0.668  15.186 -36.486  1.00  0.00     0.083 C
HETATM    4  C3  UNL     1       0.848  14.965 -36.512  1.00  0.00    -0.005 C
HETATM    5  C4  UNL     1       1.064  13.653 -37.238  1.00  0.00     0.010 C
HETATM    6  C5  UNL     1       0.705  12.520 -36.307  1.00  0.00    -0.005 C
HETATM    7  C6  UNL     1      -0.747  12.689 -35.927  1.00  0.00     0.083 C
HETATM    8  C7  UNL     1       1.602  12.517 -35.074  1.00  0.00     0.048 C
HETATM    9  C8  UNL     1       2.373  13.811 -34.941  1.00  0.00     0.180 A
HETATM   10  C9  UNL     1       1.412  14.944 -35.116  1.00  0.00     0.048 C
HETATM   11  N1  UNL     1       3.639  13.922 -35.643  1.00  0.00    -0.033 N
ATOM     12  H11 UNL     1       4.012  14.557 -36.349  1.00  0.00     0.281 HD
ATOM     13  H12 UNL     1       4.108  13.373 -36.362  1.00  0.00     0.281 HD
HETATM   14  C10 UNL     1       3.633  13.906 -34.229  1.00  0.00     0.360 A
ENDROOT
BRANCH  14  15
HETATM   15  O2  UNL     1       3.880  15.008 -33.452  1.00  0.00    -0.317 OA
BRANCH  15  16
HETATM   16  C11 UNL     1       5.118  15.580 -33.631  1.00  0.00     0.394 C
HETATM   17  C12 UNL     1       6.048  15.418 -32.483  1.00  0.00     0.075 C
HETATM   18  C13 UNL     1       7.000  16.588 -32.304  1.00  0.00    -0.007 C
HETATM   19  C14 UNL     1       7.378  17.060 -33.684  1.00  0.00     0.041 C
HETATM   20  C20 UNL     1       6.415  17.715 -31.530  1.00  0.00     0.010 C
HETATM   21  C15 UNL     1       6.207  17.569 -34.449  1.00  0.00     0.315 C
HETATM   22  N2  UNL     1       4.949  16.936 -34.090  1.00  0.00     0.041 N
HETATM   23  O3  UNL     1       4.260  16.819 -35.279  1.00  0.00    -0.062 OA
HETATM   24  C16 UNL     1       4.166  17.769 -33.246  1.00  0.00     0.320 C
HETATM   25  C17 UNL     1       3.958  17.306 -31.860  1.00  0.00     0.024 A
HETATM   26  C18 UNL     1       4.045  18.392 -30.737  1.00  0.00     0.012 A
HETATM   27  C19 UNL     1       5.085  17.355 -30.946  1.00  0.00    -0.007 A
ENDBRANCH  15  16
ENDBRANCH  14  15
TORSDOF 2
ENDMDL