MODEL 5
REMARK VINA RESULT: -6.576656838      6.681      8.344
REMARK  2 active torsions:
REMARK  status: ('A' for Active; 'I' for Inactive)
REMARK    1  A    between atoms: C1_2  and  C2_3
REMARK       I    between atoms: C1_2  and  N2_9
REMARK       I    between atoms: N3_17  and  C12_18
REMARK    2  A    between atoms: C12_18  and  C13_20
ROOT
HETATM    1  O1  UNL     1       0.286  20.048 -31.934  1.00  0.00    -0.266 OA
HETATM    2  C1  UNL     1       1.393  20.218 -32.502  1.00  0.00     0.271 C
HETATM    3  N2  UNL     1       1.477  21.116 -33.600  1.00  0.00    -0.340 N
HETATM    4  C5  UNL     1       2.683  21.409 -34.347  1.00  0.00     0.129 C
HETATM    5  C6  UNL     1       2.231  22.354 -35.471  1.00  0.00     0.047 C
HETATM    6  C7  UNL     1       0.793  22.003 -35.590  1.00  0.00     0.111 C
HETATM    7  C8  UNL     1       0.370  21.887 -34.154  1.00  0.00     0.110 C
HETATM    8  C9  UNL     1       0.101  23.142 -33.437  1.00  0.00     0.029 C
HETATM    9  C10 UNL     1      -0.315  24.325 -34.219  1.00  0.00     0.022 C
HETATM   10  C11 UNL     1       0.003  24.293 -35.682  1.00  0.00     0.126 C
HETATM   11  N3  UNL     1      -0.048  22.959 -36.240  1.00  0.00    -0.345 N
HETATM   12  C12 UNL     1      -0.834  22.563 -37.339  1.00  0.00     0.224 C
HETATM   13  O2  UNL     1      -0.737  21.346 -37.718  1.00  0.00    -0.273 OA
ENDROOT
BRANCH   2  14
HETATM   14  C2  UNL     1       2.570  19.468 -31.997  1.00  0.00     0.107 A
HETATM   15  C3  UNL     1       2.904  18.222 -32.465  1.00  0.00     0.086 A
HETATM   16  S1  UNL     1       4.299  17.867 -31.552  1.00  0.00    -0.094 SA
HETATM   17  C4  UNL     1       4.383  19.302 -30.636  1.00  0.00     0.138 A
HETATM   18  N1  UNL     1       3.341  19.980 -31.075  1.00  0.00    -0.355 N
ATOM     19  H1  UNL     1       3.136  20.904 -30.695  1.00  0.00     0.166 HD
ENDBRANCH   2  14
BRANCH  12  20
HETATM   20  C13 UNL     1      -1.761  23.415 -38.096  1.00  0.00     0.078 C
HETATM   21  C14 UNL     1      -3.201  23.259 -37.751  1.00  0.00     0.014 C
HETATM   22  C15 UNL     1      -3.901  23.783 -39.012  1.00  0.00     0.001 C
HETATM   23  C16 UNL     1      -2.902  23.729 -40.120  1.00  0.00     0.001 C
HETATM   24  C17 UNL     1      -1.728  23.003 -39.552  1.00  0.00     0.014 C
ENDBRANCH  12  20
TORSDOF 2
ENDMDL