MODEL 4
REMARK VINA RESULT: -7.845402644      2.404      3.872
REMARK  3 active torsions:
REMARK  status: ('A' for Active; 'I' for Inactive)
REMARK    1  A    between atoms: C2_2  and  N2_5
REMARK       I    between atoms: N3_11  and  C9_12
REMARK    2  A    between atoms: C9_12  and  C10_14
REMARK    3  A    between atoms: N5_18  and  C12_19
ROOT
HETATM    1  C1  UNL     1       1.994   9.787 -36.560  1.00  0.00     0.059 C
HETATM    2  C2  UNL     1       3.408  10.216 -36.189  1.00  0.00     0.324 C
HETATM    3  C3  UNL     1       4.389   9.775 -37.156  1.00  0.00     0.095 C
HETATM    4  N1  UNL     1       5.183   9.422 -37.920  1.00  0.00    -0.195 NA
ENDROOT
BRANCH   2   5
HETATM    5  N2  UNL     1       3.425  11.647 -36.062  1.00  0.00     0.106 N
HETATM    6  C4  UNL     1       2.439  12.276 -36.860  1.00  0.00     0.275 C
HETATM    7  C5  UNL     1       1.572  13.266 -36.193  1.00  0.00     0.041 C
HETATM    8  C6  UNL     1       2.266  14.168 -35.210  1.00  0.00    -0.019 C
HETATM    9  C7  UNL     1       1.257  14.513 -34.139  1.00  0.00     0.031 C
HETATM   10  C17 UNL     1       2.608  15.512 -35.802  1.00  0.00     0.135 C
HETATM   11  C18 UNL     1       3.476  13.568 -34.594  1.00  0.00     0.041 C
HETATM   12  C8  UNL     1       1.558  15.912 -33.739  1.00  0.00     0.127 C
HETATM   13  N3  UNL     1       2.416  16.480 -34.716  1.00  0.00    -0.347 N
HETATM   14  C9  UNL     1       3.014  17.759 -34.707  1.00  0.00     0.256 C
HETATM   15  O1  UNL     1       3.768  18.047 -35.718  1.00  0.00    -0.267 OA
HETATM   16  C19 UNL     1       3.508  12.068 -34.706  1.00  0.00     0.275 C
BRANCH  14  17
HETATM   17  C10 UNL     1       2.883  18.792 -33.696  1.00  0.00     0.066 A
HETATM   18  C11 UNL     1       2.103  19.918 -33.662  1.00  0.00     0.126 A
HETATM   19  N4  UNL     1       2.339  20.561 -32.491  1.00  0.00    -0.308 N
HETATM   20  N5  UNL     1       3.228  19.897 -31.784  1.00  0.00    -0.294 N
ATOM     21  H4  UNL     1       1.893  21.431 -32.200  1.00  0.00     0.186 HD
HETATM   22  C16 UNL     1       3.582  18.819 -32.481  1.00  0.00     0.129 A
BRANCH  20  23
HETATM   23  C12 UNL     1       3.740  20.276 -30.463  1.00  0.00     0.042 C
HETATM   24  C13 UNL     1       4.684  21.453 -30.584  1.00  0.00     0.039 C
HETATM   25  C14 UNL     1       4.512  19.121 -29.874  1.00  0.00     0.039 C
HETATM   26  C15 UNL     1       2.574  20.696 -29.608  1.00  0.00     0.039 C
ENDBRANCH  20  23
ENDBRANCH  14  17
ENDBRANCH   2   5
TORSDOF 3
ENDMDL