MODEL 4
REMARK VINA RESULT: -6.677564927      2.052      3.229
REMARK  4 active torsions:
REMARK  status: ('A' for Active; 'I' for Inactive)
REMARK       I    between atoms: N1_5  and  C5_6
REMARK    1  A    between atoms: C5_6  and  O2_8
REMARK    2  A    between atoms: O2_8  and  C6_9
REMARK    3  A    between atoms: N2_15  and  S1_16
REMARK    4  A    between atoms: S1_16  and  C12_19
ROOT
HETATM    1  C1  UNL     1       5.900  13.759 -33.509  1.00  0.00     0.027 C
HETATM    2  C2  UNL     1       4.767  14.478 -34.135  1.00  0.00     0.071 C
HETATM    3  C3  UNL     1       4.193  13.512 -35.178  1.00  0.00     0.040 C
HETATM    4  C4  UNL     1       2.705  13.719 -35.351  1.00  0.00     0.129 C
HETATM    5  N1  UNL     1       2.497  14.721 -36.407  1.00  0.00    -0.327 N
HETATM    6  C5  UNL     1       1.390  14.628 -37.253  1.00  0.00     0.363 C
HETATM    7  O1  UNL     1       1.252  15.500 -38.136  1.00  0.00    -0.238 OA
HETATM    8  C10 UNL     1       3.446  15.836 -36.592  1.00  0.00     0.143 C
HETATM    9  C11 UNL     1       3.778  16.311 -35.227  1.00  0.00     0.127 C
HETATM   10  N2  UNL     1       4.990  15.772 -34.639  1.00  0.00    -0.204 NA
ENDROOT
BRANCH   6  11
HETATM   11  O2  UNL     1       0.489  13.613 -37.117  1.00  0.00    -0.294 OA
BRANCH  11  12
HETATM   12  C6  UNL     1      -0.699  13.808 -36.361  1.00  0.00     0.061 C
HETATM   13  C7  UNL     1      -1.605  12.599 -36.420  1.00  0.00     0.046 C
HETATM   14  C8  UNL     1      -0.311  14.075 -34.936  1.00  0.00     0.046 C
HETATM   15  C9  UNL     1      -1.478  14.973 -36.963  1.00  0.00     0.046 C
ENDBRANCH  11  12
ENDBRANCH   6  11
BRANCH  10  16
HETATM   16  S1  UNL     1       5.818  16.923 -33.753  1.00  0.00     0.219 S
HETATM   17  O3  UNL     1       7.311  16.831 -33.969  1.00  0.00    -0.210 OA
HETATM   18  O4  UNL     1       5.463  18.284 -34.381  1.00  0.00    -0.210 OA
BRANCH  16  19
HETATM   19  C12 UNL     1       5.411  17.101 -32.056  1.00  0.00     0.067 C
HETATM   20  C13 UNL     1       3.929  17.024 -31.794  1.00  0.00     0.033 C
HETATM   21  C14 UNL     1       5.792  18.519 -31.560  1.00  0.00     0.033 C
HETATM   22  C15 UNL     1       6.239  16.194 -31.206  1.00  0.00     0.033 C
ENDBRANCH  16  19
ENDBRANCH  10  16
TORSDOF 4
ENDMDL