MODEL 1
REMARK VINA RESULT: -8.725084883      0.000      0.000
REMARK  2 active torsions:
REMARK  status: ('A' for Active; 'I' for Inactive)
REMARK    1  A    between atoms: C2_2  and  C3_4
REMARK       I    between atoms: N2_7  and  C4_8
REMARK       I    between atoms: N3_14  and  C9_15
REMARK    2  A    between atoms: C9_15  and  C10_17
ROOT
HETATM    1  C3  UNL     1       1.514  12.845 -35.528  1.00  0.00     0.073 C
HETATM    2  N1  UNL     1       2.604  12.184 -35.599  1.00  0.00    -0.296 N
ATOM      3  H1  UNL     1       2.693  11.264 -36.029  1.00  0.00     0.187 HD
HETATM    4  N2  UNL     1       3.676  12.900 -35.001  1.00  0.00    -0.251 N
HETATM    5  C4  UNL     1       4.804  12.259 -34.448  1.00  0.00     0.235 C
HETATM    6  C5  UNL     1       4.962  10.773 -34.437  1.00  0.00     0.119 C
HETATM    7  O2  UNL     1       5.730  12.912 -33.936  1.00  0.00    -0.272 OA
HETATM    8  C6  UNL     1       3.278  14.275 -35.140  1.00  0.00     0.065 C
HETATM    9  C7  UNL     1       3.320  14.702 -36.606  1.00  0.00     0.053 C
HETATM   10  C8  UNL     1       3.208  16.192 -36.644  1.00  0.00     0.128 C
HETATM   11  N3  UNL     1       4.447  16.760 -36.126  1.00  0.00    -0.352 N
HETATM   12  C9  UNL     1       5.019  17.904 -36.730  1.00  0.00     0.224 C
HETATM   13  O3  UNL     1       4.429  18.424 -37.732  1.00  0.00    -0.273 OA
HETATM   14  C16 UNL     1       5.015  16.077 -34.983  1.00  0.00     0.128 C
HETATM   15  C17 UNL     1       3.933  15.262 -34.260  1.00  0.00     0.053 C
HETATM   16  C18 UNL     1       1.780  14.124 -34.828  1.00  0.00     0.095 C
ENDROOT
BRANCH   1  17
HETATM   17  C2  UNL     1       0.241  12.363 -36.059  1.00  0.00     0.169 C
HETATM   18  C1  UNL     1      -0.933  13.252 -36.012  1.00  0.00     0.098 C
HETATM   19  O1  UNL     1       0.133  11.223 -36.548  1.00  0.00    -0.292 OA
ENDBRANCH   1  17
BRANCH  12  20
HETATM   20  C10 UNL     1       6.263  18.531 -36.266  1.00  0.00     0.078 C
HETATM   21  C11 UNL     1       7.433  17.843 -36.888  1.00  0.00     0.014 C
HETATM   22  C12 UNL     1       8.570  18.747 -37.220  1.00  0.00     0.001 C
HETATM   23  C13 UNL     1       8.227  19.972 -37.992  1.00  0.00     0.000 C
HETATM   24  C14 UNL     1       6.720  20.115 -38.038  1.00  0.00     0.001 C
HETATM   25  C15 UNL     1       6.260  20.031 -36.577  1.00  0.00     0.014 C
ENDBRANCH  12  20
TORSDOF 2
ENDMDL