MODEL 4
REMARK VINA RESULT: -6.916277502      3.036      6.024
REMARK  3 active torsions:
REMARK  status: ('A' for Active; 'I' for Inactive)
REMARK    1  A    between atoms: C2_2  and  N1_5
REMARK       I    between atoms: N2_11  and  C9_13
REMARK    2  A    between atoms: C9_13  and  C10_15
REMARK    3  A    between atoms: C10_15  and  C11_16
ROOT
HETATM    1  N1  UNL     1       2.089  13.211 -35.901  1.00  0.00    -0.353 N
HETATM    2  C5  UNL     1       2.356  11.895 -36.448  1.00  0.00     0.126 C
HETATM    3  C6  UNL     1       2.690  10.989 -35.285  1.00  0.00     0.030 C
HETATM    4  C7  UNL     1       4.045  11.224 -34.708  1.00  0.00     0.084 C
HETATM    5  S1  UNL     1       4.569  12.960 -34.776  1.00  0.00    -0.094 SA
HETATM    6  C8  UNL     1       3.167  13.899 -35.337  1.00  0.00     0.145 C
HETATM    7  N2  UNL     1       3.147  15.153 -35.229  1.00  0.00    -0.307 N
ATOM      8  H2  UNL     1       2.336  15.678 -35.556  1.00  0.00     0.171 HD
HETATM    9  C9  UNL     1       4.248  15.838 -34.654  1.00  0.00     0.225 C
HETATM   10  O1  UNL     1       4.828  15.295 -33.685  1.00  0.00    -0.273 OA
ENDROOT
BRANCH   9  11
HETATM   11  C10 UNL     1       4.700  17.142 -35.175  1.00  0.00     0.134 C
BRANCH  11  12
HETATM   12  C11 UNL     1       5.670  16.894 -36.305  1.00  0.00     0.178 C
HETATM   13  S2  UNL     1       4.740  16.948 -37.867  1.00  0.00    -0.147 SA
HETATM   14  C12 UNL     1       5.015  18.594 -38.493  1.00  0.00     0.090 C
HETATM   15  C13 UNL     1       5.745  19.391 -37.480  1.00  0.00     0.151 C
HETATM   16  S3  UNL     1       6.757  18.301 -36.532  1.00  0.00     0.158 S
HETATM   17  O2  UNL     1       8.009  17.928 -37.233  1.00  0.00    -0.227 OA
HETATM   18  O3  UNL     1       6.999  18.877 -35.161  1.00  0.00    -0.227 OA
ENDBRANCH  11  12
ENDBRANCH   9  11
BRANCH   1  19
HETATM   19  C2  UNL     1       0.784  13.725 -35.962  1.00  0.00     0.023 C
HETATM   20  C1  UNL     1       0.272  14.549 -34.850  1.00  0.00     0.037 C
HETATM   21  C3  UNL     1       0.693  14.592 -37.226  1.00  0.00     0.037 C
HETATM   22  C4  UNL     1      -0.259  12.617 -36.197  1.00  0.00     0.037 C
ENDBRANCH   1  19
TORSDOF 3
ENDMDL