MODEL 1
REMARK VINA RESULT: -8.810906244      0.000      0.000
REMARK  4 active torsions:
REMARK  status: ('A' for Active; 'I' for Inactive)
REMARK    1  A    between atoms: O1_1  and  C1_3
REMARK    2  A    between atoms: C1_3  and  C2_4
REMARK    3  A    between atoms: C1_3  and  N1_13
REMARK    4  A    between atoms: N2_17  and  C12_18
ROOT
HETATM    1  N1  UNL     1       4.797  16.301 -34.053  1.00  0.00    -0.362 N
HETATM    2  C9  UNL     1       4.114  15.857 -32.845  1.00  0.00     0.126 C
HETATM    3  C10 UNL     1       2.967  16.821 -32.623  1.00  0.00     0.039 C
HETATM    4  C11 UNL     1       1.707  16.272 -33.291  1.00  0.00     0.119 C
HETATM    5  N2  UNL     1       2.099  15.543 -34.438  1.00  0.00    -0.406 N
HETATM    6  C18 UNL     1       2.780  16.259 -35.455  1.00  0.00     0.137 C
HETATM    7  C19 UNL     1       4.270  16.037 -35.380  1.00  0.00     0.144 C
ENDROOT
BRANCH   1   8
HETATM    8  C1  UNL     1       5.994  16.996 -34.016  1.00  0.00     0.143 C
BRANCH   8   9
HETATM    9  O1  UNL     1       6.396  17.329 -32.824  1.00  0.00    -0.347 OA
ATOM     10  H1  UNL     1       6.774  18.200 -32.787  1.00  0.00     0.219 HD
ENDBRANCH   8   9
BRANCH   8  11
HETATM   11  C2  UNL     1       6.903  17.430 -35.070  1.00  0.00     0.198 C
HETATM   12  C3  UNL     1       6.559  18.688 -35.762  1.00  0.00     0.080 C
HETATM   13  C4  UNL     1       7.318  18.540 -37.070  1.00  0.00     0.085 C
HETATM   14  C5  UNL     1       8.720  19.030 -36.934  1.00  0.00     0.042 C
HETATM   15  O2  UNL     1       6.803  19.334 -38.074  1.00  0.00    -0.378 OA
HETATM   16  C8  UNL     1       7.169  17.067 -37.294  1.00  0.00     0.207 C
HETATM   17  C6  UNL     1       8.504  20.547 -37.016  1.00  0.00     0.029 C
HETATM   18  C7  UNL     1       7.122  20.621 -37.621  1.00  0.00     0.169 C
HETATM   19  O3  UNL     1       7.031  16.478 -36.070  1.00  0.00    -0.375 OA
ENDBRANCH   8  11
ENDBRANCH   1   8
BRANCH   5  20
HETATM   20  C12 UNL     1       1.290  14.461 -34.846  1.00  0.00     0.079 C
HETATM   21  C13 UNL     1       2.091  13.238 -35.265  1.00  0.00     0.025 C
HETATM   22  C14 UNL     1       1.130  12.071 -35.291  1.00  0.00     0.002 C
HETATM   23  C15 UNL     1      -0.029  12.285 -36.213  1.00  0.00     0.000 C
HETATM   24  C16 UNL     1      -0.684  13.631 -36.007  1.00  0.00     0.002 C
HETATM   25  C17 UNL     1       0.322  14.772 -35.949  1.00  0.00     0.025 C
ENDBRANCH   5  20
TORSDOF 4
ENDMDL