MODEL 3
REMARK VINA RESULT: -8.195716214      2.528      7.365
REMARK  5 active torsions:
REMARK  status: ('A' for Active; 'I' for Inactive)
REMARK    1  A    between atoms: C2_2  and  C3_4
REMARK    2  A    between atoms: N1_9  and  C8_10
REMARK    3  A    between atoms: C8_10  and  O2_11
REMARK    4  A    between atoms: C8_10  and  N2_13
REMARK    5  A    between atoms: N3_18  and  C13_19
ROOT
HETATM    1  N2  UNL     1       4.757  17.028 -34.670  1.00  0.00    -0.347 N
HETATM    2  C9  UNL     1       3.864  17.340 -33.621  1.00  0.00     0.127 C
HETATM    3  C10 UNL     1       2.607  16.542 -33.497  1.00  0.00     0.027 C
HETATM    4  C11 UNL     1       2.458  15.382 -34.439  1.00  0.00     0.021 C
HETATM    5  C12 UNL     1       1.058  14.913 -34.505  1.00  0.00     0.278 C
HETATM    6  N3  UNL     1       0.618  14.337 -35.710  1.00  0.00     0.092 N
HETATM    7  C16 UNL     1       1.608  13.947 -36.646  1.00  0.00     0.273 C
HETATM    8  C17 UNL     1       2.687  14.929 -36.906  1.00  0.00     0.037 C
HETATM    9  C18 UNL     1       3.051  15.796 -35.753  1.00  0.00     0.011 C
HETATM   10  C19 UNL     1       4.550  15.800 -35.470  1.00  0.00     0.131 C
ENDROOT
BRANCH   1  11
HETATM   11  C8  UNL     1       5.852  17.826 -34.998  1.00  0.00     0.217 C
BRANCH  11  12
HETATM   12  N1  UNL     1       6.438  18.244 -36.162  1.00  0.00    -0.336 N
HETATM   13  C3  UNL     1       5.696  19.168 -37.055  1.00  0.00     0.157 C
HETATM   14  C4  UNL     1       6.572  20.224 -37.609  1.00  0.00     0.033 C
HETATM   15  C5  UNL     1       7.915  20.403 -36.977  1.00  0.00     0.004 C
HETATM   16  C6  UNL     1       8.612  19.145 -36.587  1.00  0.00     0.020 C
HETATM   17  C7  UNL     1       7.712  17.921 -36.693  1.00  0.00     0.127 C
BRANCH  13  18
HETATM   18  C2  UNL     1       5.090  18.376 -38.153  1.00  0.00     0.145 C
HETATM   19  C1  UNL     1       5.482  16.967 -38.425  1.00  0.00     0.093 C
HETATM   20  O1  UNL     1       4.243  18.898 -38.856  1.00  0.00    -0.296 OA
ENDBRANCH  13  18
ENDBRANCH  11  12
BRANCH  11  21
HETATM   21  O2  UNL     1       6.467  18.282 -33.914  1.00  0.00    -0.332 OA
ATOM     22  H2  UNL     1       7.409  18.171 -33.947  1.00  0.00     0.220 HD
ENDBRANCH  11  21
ENDBRANCH   1  11
BRANCH   6  23
HETATM   23  C13 UNL     1      -0.195  13.147 -35.415  1.00  0.00     0.215 C
HETATM   24  C14 UNL     1      -1.382  13.158 -36.342  1.00  0.00     0.042 C
HETATM   25  C15 UNL     1       0.686  11.937 -35.658  1.00  0.00     0.042 C
ENDBRANCH   6  23
TORSDOF 5
ENDMDL