MODEL 5
REMARK VINA RESULT: -8.582138685      1.524      3.606
REMARK  7 active torsions:
REMARK  status: ('A' for Active; 'I' for Inactive)
REMARK    1  A    between atoms: O1_2  and  N1_3
REMARK    2  A    between atoms: C2_5  and  N2_6
REMARK    3  A    between atoms: C2_5  and  C5_17
REMARK       I    between atoms: C3_8  and  N3_9
REMARK       I    between atoms: C3_8  and  N4_13
REMARK    4  A    between atoms: N3_9  and  O2_11
REMARK    5  A    between atoms: N8_22  and  C6_23
REMARK    6  A    between atoms: C7_26  and  N10_27
REMARK    7  A    between atoms: C8_32  and  N12_33
ROOT
HETATM    1  N2  UNL     1      18.957  36.156  39.035  1.00  0.00    -0.169 N
ATOM      2  H2  UNL     1      18.004  35.957  39.336  1.00  0.00     0.186 HD
HETATM    3  C3  UNL     1      19.680  35.203  38.572  1.00  0.00     0.712 C
HETATM    4  N3  UNL     1      21.011  35.387  38.131  1.00  0.00    -0.098 N
ATOM      5  H3  UNL     1      21.228  35.375  37.134  1.00  0.00     0.213 HD
HETATM    6  N4  UNL     1      19.123  33.903  38.497  1.00  0.00    -0.124 N
ATOM      7  H4  UNL     1      19.651  33.079  38.785  1.00  0.00     0.197 HD
HETATM    8  C4  UNL     1      17.811  33.799  38.011  1.00  0.00     0.196 C
HETATM    9  N5  UNL     1      16.718  33.703  37.608  1.00  0.00    -0.171 NA
ENDROOT
BRANCH   1  10
HETATM   10  C2  UNL     1      19.456  37.490  39.139  1.00  0.00     0.188 C
HETATM   11  N1  UNL     1      20.324  37.709  40.066  1.00  0.00    -0.247 N
ATOM     12  H1  UNL     1      20.589  36.919  40.654  1.00  0.00     0.196 HD
BRANCH  11  13
HETATM   13  O1  UNL     1      20.911  38.900  40.324  1.00  0.00    -0.284 OA
HETATM   14  C1  UNL     1      22.053  38.967  41.186  1.00  0.00     0.237 C
ENDBRANCH  11  13
BRANCH  10  15
HETATM   15  C5  UNL     1      19.004  38.530  38.245  1.00  0.00     0.185 A
HETATM   16  N6  UNL     1      19.691  39.677  38.023  1.00  0.00    -0.265 N
HETATM   17  N7  UNL     1      19.008  40.401  37.163  1.00  0.00    -0.204 N
ATOM     18  H6  UNL     1      20.582  39.935  38.448  1.00  0.00     0.190 HD
HETATM   19  N8  UNL     1      17.894  39.762  36.813  1.00  0.00    -0.003 N
ATOM     20  H7  UNL     1      19.291  41.317  36.815  1.00  0.00     0.211 HD
HETATM   21  N14 UNL     1      17.917  38.624  37.487  1.00  0.00    -0.243 N
ATOM     22  H14 UNL     1      17.191  37.910  37.432  1.00  0.00     0.191 HD
BRANCH  19  23
HETATM   23  C6  UNL     1      16.951  40.280  35.903  1.00  0.00     0.749 A
HETATM   24  N9  UNL     1      15.711  40.673  36.255  1.00  0.00    -0.018 N
HETATM   25  C7  UNL     1      14.812  41.166  35.396  1.00  0.00     0.705 A
ATOM     26  H9  UNL     1      15.443  40.589  37.236  1.00  0.00     0.203 HD
HETATM   27  N11 UNL     1      15.146  41.282  34.105  1.00  0.00    -0.022 N
HETATM   28  C8  UNL     1      16.375  40.900  33.711  1.00  0.00     0.705 A
ATOM     29  H11 UNL     1      14.478  41.653  33.429  1.00  0.00     0.203 HD
HETATM   30  N13 UNL     1      17.271  40.406  34.586  1.00  0.00    -0.018 N
ATOM     31  H13 UNL     1      18.196  40.126  34.260  1.00  0.00     0.203 HD
BRANCH  25  32
HETATM   32  N10 UNL     1      13.624  41.527  35.812  1.00  0.00    -0.234 N
ATOM     33 2H10 UNL     1      13.450  41.698  36.802  1.00  0.00     0.174 HD
ATOM     34 1H10 UNL     1      12.857  41.644  35.150  1.00  0.00     0.174 HD
ENDBRANCH  25  32
BRANCH  28  35
HETATM   35  N12 UNL     1      16.666  41.025  32.473  1.00  0.00    -0.234 N
ATOM     36 2H12 UNL     1      16.506  40.260  31.818  1.00  0.00     0.174 HD
ATOM     37 1H12 UNL     1      17.063  41.912  32.167  1.00  0.00     0.174 HD
ENDBRANCH  28  35
ENDBRANCH  19  23
ENDBRANCH  10  15
ENDBRANCH   1  10
BRANCH   4  38
HETATM   38  O2  UNL     1      21.925  35.567  38.977  1.00  0.00    -0.276 OA
ATOM     39  H2  UNL     1      21.852  36.277  39.603  1.00  0.00     0.245 HD
ENDBRANCH   4  38
TORSDOF 7
ENDMDL