MODEL 4
REMARK VINA RESULT: -6.817064459      0.991      1.750
REMARK  6 active torsions:
REMARK  status: ('A' for Active; 'I' for Inactive)
REMARK    1  A    between atoms: N1_2  and  C2_3
REMARK       I    between atoms: N1_2  and  C6_16
REMARK    2  A    between atoms: C2_3  and  C3_4
REMARK    3  A    between atoms: C5_8  and  N3_9
REMARK       I    between atoms: C6_16  and  N12_29
REMARK    4  A    between atoms: N6_17  and  N7_19
REMARK    5  A    between atoms: C7_25  and  N11_26
REMARK    6  A    between atoms: N12_29  and  S1_31
ROOT
HETATM    1  C1  UNL     1      20.434  38.854  37.366  1.00  0.00     0.169 C
HETATM    2  N1  UNL     1      19.240  38.180  37.820  1.00  0.00    -0.213 N
HETATM    3  C6  UNL     1      19.269  36.782  38.040  1.00  0.00     0.708 C
HETATM    4  N6  UNL     1      19.936  36.346  39.046  1.00  0.00    -0.097 N
ATOM      5  H6  UNL     1      19.956  35.338  39.203  1.00  0.00     0.208 HD
HETATM    6  N12 UNL     1      18.611  35.828  37.225  1.00  0.00    -0.096 N
ATOM      7  H12 UNL     1      18.404  36.089  36.261  1.00  0.00     0.200 HD
ENDROOT
BRANCH   2   8
HETATM    8  C2  UNL     1      18.045  38.924  38.045  1.00  0.00     0.218 C
BRANCH   8   9
HETATM    9  C3  UNL     1      17.442  39.545  36.862  1.00  0.00     0.114 A
HETATM   10  N2  UNL     1      16.278  40.201  37.028  1.00  0.00    -0.350 N
HETATM   11  C4  UNL     1      15.631  40.804  36.023  1.00  0.00     0.138 A
ATOM     12  H2  UNL     1      15.871  40.241  37.963  1.00  0.00     0.166 HD
HETATM   13  C5  UNL     1      16.176  40.753  34.757  1.00  0.00     0.129 A
HETATM   14  N4  UNL     1      17.324  40.104  34.597  1.00  0.00    -0.283 N
HETATM   15  N5  UNL     1      17.945  39.513  35.620  1.00  0.00    -0.286 N
ATOM     16  H4  UNL     1      17.743  40.055  33.668  1.00  0.00     0.188 HD
ATOM     17  H5  UNL     1      18.825  39.025  35.453  1.00  0.00     0.188 HD
BRANCH  13  18
HETATM   18  N3  UNL     1      15.559  41.335  33.761  1.00  0.00    -0.383 N
ATOM     19  H32 UNL     1      15.365  42.337  33.751  1.00  0.00     0.157 HD
ATOM     20  H31 UNL     1      15.255  40.780  32.961  1.00  0.00     0.157 HD
ENDBRANCH  13  18
ENDBRANCH   8   9
ENDBRANCH   2   8
BRANCH   4  21
HETATM   21  N7  UNL     1      20.636  37.155  39.939  1.00  0.00     0.012 N
HETATM   22  N8  UNL     1      21.917  37.474  39.993  1.00  0.00     0.034 NA
HETATM   23  N9  UNL     1      22.150  38.286  41.026  1.00  0.00    -0.210 N
HETATM   24  N10 UNL     1      21.015  38.496  41.647  1.00  0.00    -0.117 N
ATOM     25  H9  UNL     1      23.056  38.676  41.287  1.00  0.00     0.206 HD
HETATM   26  C7  UNL     1      20.079  37.801  40.980  1.00  0.00     0.726 A
ATOM     27  H10 UNL     1      20.870  39.074  42.475  1.00  0.00     0.207 HD
BRANCH  26  28
HETATM   28  N11 UNL     1      18.836  37.766  41.302  1.00  0.00    -0.231 N
ATOM     29 2H11 UNL     1      18.070  37.968  40.660  1.00  0.00     0.174 HD
ATOM     30 1H11 UNL     1      18.469  37.538  42.225  1.00  0.00     0.174 HD
ENDBRANCH  26  28
ENDBRANCH   4  21
BRANCH   6  31
HETATM   31  S1  UNL     1      18.144  34.276  37.745  1.00  0.00     0.223 S
HETATM   32  O1  UNL     1      17.459  34.308  39.074  1.00  0.00    -0.577 OA
HETATM   33  O2  UNL     1      19.383  33.420  37.894  1.00  0.00    -0.577 OA
HETATM   34  O3  UNL     1      17.159  33.577  36.586  1.00  0.00    -0.577 OA
ENDBRANCH   6  31
TORSDOF 6
ENDMDL