MODEL 1
REMARK VINA RESULT: -7.773570737      0.000      0.000
REMARK  6 active torsions:
REMARK  status: ('A' for Active; 'I' for Inactive)
REMARK    1  A    between atoms: O1_2  and  C2_3
REMARK    2  A    between atoms: N3_9  and  C4_10
REMARK    3  A    between atoms: C4_10  and  C5_11
REMARK    4  A    between atoms: C5_11  and  N4_12
REMARK       I    between atoms: N4_12  and  C6_14
REMARK       I    between atoms: C6_14  and  N6_18
REMARK    5  A    between atoms: N6_18  and  N7_20
REMARK    6  A    between atoms: C8_26  and  N9_27
ROOT
HETATM    1  C2  UNL     1      21.232  38.307  40.032  1.00  0.00     0.228 A
HETATM    2  N1  UNL     1      20.913  39.358  39.256  1.00  0.00    -0.261 N
ATOM      3  H1  UNL     1      21.264  40.285  39.498  1.00  0.00     0.190 HD
HETATM    4  N2  UNL     1      20.151  39.209  38.181  1.00  0.00    -0.129 N
ATOM      5  H2  UNL     1      19.921  40.020  37.605  1.00  0.00     0.205 HD
HETATM    6  C3  UNL     1      19.677  37.989  37.843  1.00  0.00     0.711 A
HETATM    7  N3  UNL     1      18.883  37.587  36.793  1.00  0.00    -0.162 N
HETATM    8  C7  UNL     1      18.668  36.262  36.862  1.00  0.00     0.168 A
HETATM    9  N8  UNL     1      18.004  35.334  36.133  1.00  0.00    -0.174 N
ATOM     10  H8  UNL     1      17.499  35.639  35.300  1.00  0.00     0.186 HD
HETATM   11  C8  UNL     1      17.979  34.036  36.453  1.00  0.00     0.677 A
HETATM   12  N10 UNL     1      18.630  33.602  37.540  1.00  0.00    -0.200 N
ATOM     13  H10 UNL     1      18.616  32.614  37.793  1.00  0.00     0.183 HD
HETATM   14  C9  UNL     1      19.307  34.498  38.296  1.00  0.00     0.140 A
HETATM   15  C10 UNL     1      19.350  35.837  37.991  1.00  0.00     0.121 A
HETATM   16  N11 UNL     1      19.950  36.896  38.564  1.00  0.00    -0.101 N
HETATM   17  C11 UNL     1      20.726  37.067  39.653  1.00  0.00     0.319 A
HETATM   18  O2  UNL     1      20.990  36.045  40.340  1.00  0.00    -0.262 OA
ENDROOT
BRANCH   7  19
HETATM   19  C4  UNL     1      18.419  38.489  35.783  1.00  0.00     0.169 C
BRANCH  19  20
HETATM   20  C5  UNL     1      17.343  39.429  36.173  1.00  0.00     0.159 C
BRANCH  20  21
HETATM   21  N4  UNL     1      16.887  40.233  35.072  1.00  0.00    -0.224 N
HETATM   22  C6  UNL     1      15.542  40.730  35.133  1.00  0.00     0.685 C
HETATM   23  N5  UNL     1      15.131  41.565  34.249  1.00  0.00    -0.234 N
HETATM   24  N6  UNL     1      14.675  40.297  36.163  1.00  0.00    -0.139 N
ATOM     25  H52 UNL     1      15.756  41.877  33.506  1.00  0.00     0.174 HD
ATOM     26  H51 UNL     1      14.175  41.919  34.292  1.00  0.00     0.174 HD
ATOM     27  H6  UNL     1      15.041  39.751  36.943  1.00  0.00     0.205 HD
ATOM     28  H4  UNL     1      17.495  40.441  34.280  1.00  0.00     0.177 HD
BRANCH  24  29
HETATM   29  N7  UNL     1      13.307  40.623  36.108  1.00  0.00    -0.331 N
ATOM     30  H72 UNL     1      12.842  40.662  35.201  1.00  0.00     0.177 HD
ATOM     31  H71 UNL     1      12.797  40.816  36.970  1.00  0.00     0.177 HD
ENDBRANCH  24  29
ENDBRANCH  20  21
ENDBRANCH  19  20
ENDBRANCH   7  19
BRANCH  11  32
HETATM   32  N9  UNL     1      17.331  33.155  35.730  1.00  0.00    -0.234 N
ATOM     33  H92 UNL     1      17.775  32.252  35.563  1.00  0.00     0.174 HD
ATOM     34  H91 UNL     1      16.411  33.352  35.337  1.00  0.00     0.174 HD
ENDBRANCH  11  32
BRANCH   1  35
HETATM   35  O1  UNL     1      22.034  38.423  41.176  1.00  0.00    -0.336 OA
HETATM   36  C1  UNL     1      21.466  38.338  42.458  1.00  0.00     0.212 C
ENDBRANCH   1  35
TORSDOF 6
ENDMDL