MODEL 4
REMARK VINA RESULT: -8.236141409      3.638      6.676
REMARK  8 active torsions:
REMARK  status: ('A' for Active; 'I' for Inactive)
REMARK    1  A    between atoms: N1_2  and  C2_4
REMARK    2  A    between atoms: C3_7  and  N3_8
REMARK    3  A    between atoms: N3_8  and  C4_10
REMARK    4  A    between atoms: C4_10  and  C5_11
REMARK    5  A    between atoms: C5_11  and  C6_12
REMARK    6  A    between atoms: N5_18  and  C8_19
REMARK    7  A    between atoms: C9_26  and  N9_27
REMARK    8  A    between atoms: N9_27  and  N10_29
ROOT
HETATM    1  C2  UNL     1      19.800  40.845  37.093  1.00  0.00     0.681 A
HETATM    2  N2  UNL     1      18.730  41.094  36.320  1.00  0.00    -0.175 N
ATOM      3  H2  UNL     1      18.491  42.053  36.066  1.00  0.00     0.186 HD
HETATM    4  C3  UNL     1      17.964  40.054  35.874  1.00  0.00     0.149 A
HETATM    5  C7  UNL     1      18.279  38.762  36.211  1.00  0.00     0.140 A
HETATM    6  N4  UNL     1      17.781  37.553  35.969  1.00  0.00    -0.271 N
ATOM      7  H4  UNL     1      16.951  37.386  35.401  1.00  0.00     0.189 HD
HETATM    8  N5  UNL     1      18.488  36.586  36.551  1.00  0.00    -0.172 N
HETATM    9  N11 UNL     1      19.478  37.232  37.188  1.00  0.00    -0.260 N
ATOM     10  H11 UNL     1      20.204  36.773  37.738  1.00  0.00     0.191 HD
HETATM   11  C10 UNL     1      19.390  38.549  37.010  1.00  0.00     0.169 A
HETATM   12  N12 UNL     1      20.144  39.585  37.448  1.00  0.00    -0.173 N
ATOM     13  H12 UNL     1      20.960  39.419  38.037  1.00  0.00     0.186 HD
ENDROOT
BRANCH   8  14
HETATM   14  C8  UNL     1      18.263  35.191  36.518  1.00  0.00     0.208 A
HETATM   15  N6  UNL     1      17.844  34.479  35.473  1.00  0.00    -0.265 N
HETATM   16  N7  UNL     1      17.763  33.203  35.861  1.00  0.00    -0.239 N
ATOM     17  H6  UNL     1      17.625  34.842  34.545  1.00  0.00     0.190 HD
HETATM   18  N8  UNL     1      18.115  33.063  37.123  1.00  0.00    -0.267 N
ATOM     19  H7  UNL     1      17.466  32.437  35.258  1.00  0.00     0.208 HD
HETATM   20  C9  UNL     1      18.437  34.319  37.557  1.00  0.00     0.185 A
ATOM     21  H8  UNL     1      18.142  32.198  37.663  1.00  0.00     0.190 HD
BRANCH  20  22
HETATM   22  N9  UNL     1      18.876  34.667  38.860  1.00  0.00    -0.288 N
ATOM     23  H9  UNL     1      18.207  34.726  39.627  1.00  0.00     0.188 HD
BRANCH  22  24
HETATM   24  N10 UNL     1      20.211  34.926  39.085  1.00  0.00    -0.343 N
ATOM     25 2H10 UNL     1      20.609  35.806  38.759  1.00  0.00     0.176 HD
ATOM     26 1H10 UNL     1      20.785  34.238  39.573  1.00  0.00     0.176 HD
ENDBRANCH  22  24
ENDBRANCH  20  22
ENDBRANCH   8  14
BRANCH   4  27
HETATM   27  N3  UNL     1      16.980  40.330  35.159  1.00  0.00    -0.373 N
ATOM     28  H3  UNL     1      17.130  40.150  34.166  1.00  0.00     0.161 HD
BRANCH  27  29
HETATM   29  C4  UNL     1      15.696  40.846  35.459  1.00  0.00     0.132 C
BRANCH  29  30
HETATM   30  C5  UNL     1      14.931  41.315  34.242  1.00  0.00     0.132 C
BRANCH  30  31
HETATM   31  C6  UNL     1      15.845  41.589  33.106  1.00  0.00     0.174 C
HETATM   32  O1  UNL     1      15.991  42.777  32.738  1.00  0.00    -0.648 OA
HETATM   33  O2  UNL     1      16.535  40.586  32.443  1.00  0.00    -0.648 OA
ENDBRANCH  30  31
ENDBRANCH  29  30
ENDBRANCH  27  29
ENDBRANCH   4  27
BRANCH   1  34
HETATM   34  N1  UNL     1      20.536  41.809  37.524  1.00  0.00    -0.230 N
HETATM   35  C1  UNL     1      21.560  42.444  36.738  1.00  0.00     0.165 C
ATOM     36  H1  UNL     1      20.384  42.142  38.476  1.00  0.00     0.177 HD
ENDBRANCH   1  34
TORSDOF 8
ENDMDL