MODEL 2
REMARK VINA RESULT: -4.336867600      2.638      7.212
REMARK  4 active torsions:
REMARK  status: ('A' for Active; 'I' for Inactive)
REMARK    1  A    between atoms: C2_2  and  N1_3
REMARK    2  A    between atoms: N4_14  and  O1_15
REMARK    3  A    between atoms: O1_15  and  N5_16
REMARK    4  A    between atoms: C9_20  and  C10_21
REMARK       I    between atoms: C10_21  and  N6_23
REMARK       I    between atoms: N6_23  and  C11_25
REMARK       I    between atoms: C11_25  and  N7_26
REMARK       I    between atoms: C11_25  and  N8_30
ROOT
HETATM    1  N1  UNL     1      16.300  40.601  34.003  1.00  0.00    -0.226 N
ATOM      2  H1  UNL     1      15.698  39.926  33.531  1.00  0.00     0.177 HD
HETATM    3  C3  UNL     1      17.086  40.197  34.933  1.00  0.00     0.680 A
HETATM    4  N2  UNL     1      17.924  40.975  35.633  1.00  0.00    -0.194 N
ATOM      5  H2  UNL     1      17.943  41.975  35.430  1.00  0.00     0.184 HD
HETATM    6  C4  UNL     1      18.738  40.501  36.589  1.00  0.00     0.055 A
HETATM    7  C5  UNL     1      19.655  41.368  37.382  1.00  0.00     0.071 C
HETATM    8  C6  UNL     1      18.695  39.151  36.847  1.00  0.00     0.128 A
HETATM    9  C7  UNL     1      17.849  38.291  36.162  1.00  0.00     0.183 A
HETATM   10  N3  UNL     1      17.065  38.866  35.214  1.00  0.00    -0.172 N
ATOM     11  H3  UNL     1      16.429  38.269  34.685  1.00  0.00     0.186 HD
HETATM   12  N4  UNL     1      18.030  37.031  36.621  1.00  0.00    -0.159 N
HETATM   13  C8  UNL     1      18.986  37.131  37.583  1.00  0.00     0.176 A
HETATM   14  C9  UNL     1      19.716  36.369  38.472  1.00  0.00     0.097 A
HETATM   15  C12 UNL     1      20.553  37.260  39.120  1.00  0.00     0.128 A
HETATM   16  N9  UNL     1      20.325  38.497  38.636  1.00  0.00    -0.302 N
ATOM     17  H9  UNL     1      20.794  39.355  38.927  1.00  0.00     0.186 HD
HETATM   18  N10 UNL     1      19.390  38.395  37.723  1.00  0.00    -0.231 N
ENDROOT
BRANCH  14  19
HETATM   19  C10 UNL     1      19.564  34.918  38.737  1.00  0.00     0.259 C
HETATM   20  O2  UNL     1      20.123  34.398  39.724  1.00  0.00    -0.267 OA
HETATM   21  N6  UNL     1      18.761  34.210  37.810  1.00  0.00    -0.307 N
HETATM   22  C11 UNL     1      18.497  32.772  37.888  1.00  0.00     0.483 C
ATOM     23  H6  UNL     1      18.342  34.733  37.040  1.00  0.00     0.166 HD
HETATM   24  N7  UNL     1      17.228  32.559  38.578  1.00  0.00    -0.033 N
HETATM   25  N8  UNL     1      18.311  32.260  36.549  1.00  0.00    -0.033 N
ATOM     26  H73 UNL     1      17.203  33.010  39.493  1.00  0.00     0.278 HD
ATOM     27  H72 UNL     1      16.460  33.072  38.146  1.00  0.00     0.278 HD
ATOM     28  H71 UNL     1      17.043  31.558  38.633  1.00  0.00     0.278 HD
ATOM     29  H83 UNL     1      17.586  32.763  36.037  1.00  0.00     0.278 HD
ATOM     30  H82 UNL     1      19.095  32.480  35.935  1.00  0.00     0.278 HD
ATOM     31  H81 UNL     1      18.126  31.258  36.603  1.00  0.00     0.278 HD
ENDBRANCH  14  19
BRANCH  12  32
HETATM   32  O1  UNL     1      17.366  35.934  36.142  1.00  0.00    -0.153 OA
BRANCH  32  33
HETATM   33  N5  UNL     1      17.838  35.119  35.173  1.00  0.00    -0.285 N
ATOM     34  H52 UNL     1      18.166  34.198  35.466  1.00  0.00     0.186 HD
ATOM     35  H51 UNL     1      17.885  35.366  34.184  1.00  0.00     0.186 HD
ENDBRANCH  32  33
ENDBRANCH  12  32
BRANCH   1  36
HETATM   36  C2  UNL     1      16.248  41.990  33.609  1.00  0.00     0.133 C
HETATM   37  C1  UNL     1      15.990  42.153  32.141  1.00  0.00     0.027 C
ENDBRANCH   1  36
TORSDOF 4
ENDMDL