MODEL 5
REMARK VINA RESULT: -6.019749180      2.652      7.495
REMARK  5 active torsions:
REMARK  status: ('A' for Active; 'I' for Inactive)
REMARK    1  A    between atoms: C3_5  and  C4_6
REMARK    2  A    between atoms: C5_9  and  N3_10
REMARK    3  A    between atoms: C6_14  and  C7_15
REMARK       I    between atoms: C7_15  and  N6_17
REMARK    4  A    between atoms: N6_17  and  N7_19
REMARK    5  A    between atoms: C9_26  and  N11_27
ROOT
HETATM    1  N3  UNL     1      17.585  37.956  37.175  1.00  0.00    -0.172 N
HETATM    2  N4  UNL     1      17.774  36.824  36.522  1.00  0.00     0.003 NA
HETATM    3  N5  UNL     1      18.656  36.059  37.165  1.00  0.00    -0.262 N
ATOM      4  H5  UNL     1      18.975  35.137  36.870  1.00  0.00     0.186 HD
HETATM    5  C6  UNL     1      19.049  36.713  38.268  1.00  0.00     0.205 A
HETATM    6  N10 UNL     1      18.376  37.876  38.251  1.00  0.00    -0.260 N
ATOM      7  H10 UNL     1      18.458  38.602  38.963  1.00  0.00     0.190 HD
ENDROOT
BRANCH   1   8
HETATM    8  C5  UNL     1      16.728  39.019  36.775  1.00  0.00     0.148 A
HETATM    9  C3  UNL     1      17.161  40.301  36.561  1.00  0.00     0.133 A
HETATM   10  N1  UNL     1      16.230  41.213  36.182  1.00  0.00    -0.340 N
HETATM   11  C2  UNL     1      14.944  40.969  36.002  1.00  0.00     0.079 A
ATOM     12  H1  UNL     1      16.550  42.167  36.022  1.00  0.00     0.167 HD
HETATM   13  C1  UNL     1      13.957  42.004  35.584  1.00  0.00     0.089 C
HETATM   14  N12 UNL     1      14.493  39.720  36.205  1.00  0.00    -0.331 N
HETATM   15  C9  UNL     1      15.358  38.774  36.580  1.00  0.00     0.133 A
ATOM     16  H12 UNL     1      13.506  39.497  36.075  1.00  0.00     0.168 HD
BRANCH   9  17
HETATM   17  C4  UNL     1      18.542  40.704  36.721  1.00  0.00     0.284 C
HETATM   18  N2  UNL     1      19.340  40.580  37.858  1.00  0.00    -0.056 NA
HETATM   19  O1  UNL     1      19.102  41.241  35.695  1.00  0.00    -0.269 OA
ENDBRANCH   9  17
BRANCH  15  20
HETATM   20  N11 UNL     1      14.977  37.549  36.791  1.00  0.00    -0.383 N
ATOM     21 2H11 UNL     1      15.392  36.767  36.284  1.00  0.00     0.157 HD
ATOM     22 1H11 UNL     1      14.244  37.434  37.492  1.00  0.00     0.157 HD
ENDBRANCH  15  20
ENDBRANCH   1   8
BRANCH   5  23
HETATM   23  C7  UNL     1      20.007  36.245  39.268  1.00  0.00     0.306 C
HETATM   24  O2  UNL     1      20.325  35.032  39.366  1.00  0.00    -0.262 OA
HETATM   25  N6  UNL     1      20.591  37.176  40.148  1.00  0.00    -0.261 N
ATOM     26  H6  UNL     1      20.346  38.164  40.084  1.00  0.00     0.190 HD
BRANCH  25  27
HETATM   27  N7  UNL     1      21.502  36.745  41.102  1.00  0.00    -0.273 N
HETATM   28  C8  UNL     1      21.680  37.435  42.169  1.00  0.00     0.215 C
HETATM   29  N8  UNL     1      20.947  38.628  42.364  1.00  0.00    -0.065 NA
HETATM   30  N9  UNL     1      22.618  36.968  43.126  1.00  0.00    -0.065 NA
ATOM     31  H7  UNL     1      22.028  35.883  40.957  1.00  0.00     0.189 HD
ENDBRANCH  25  27
ENDBRANCH   5  23
TORSDOF 5
ENDMDL