MODEL 1
REMARK VINA RESULT: -8.673601953      0.000      0.000
REMARK  7 active torsions:
REMARK  status: ('A' for Active; 'I' for Inactive)
REMARK    1  A    between atoms: C2_2  and  C3_3
REMARK    2  A    between atoms: C2_2  and  N7_20
REMARK    3  A    between atoms: C2_2  and  C10_32
REMARK    4  A    between atoms: C3_3  and  N1_4
REMARK    5  A    between atoms: C5_10  and  N4_11
REMARK    6  A    between atoms: N7_20  and  C8_22
REMARK    7  A    between atoms: N10_28  and  N11_29
ROOT
HETATM    1  C1  UNL     1      16.928  38.813  36.990  1.00  0.00     0.053 C
HETATM    2  C2  UNL     1      18.133  39.296  36.144  1.00  0.00     0.149 C
ENDROOT
BRANCH   2   3
HETATM    3  C3  UNL     1      19.002  38.147  35.764  1.00  0.00     0.195 C
BRANCH   3   4
HETATM    4  N1  UNL     1      19.187  37.123  36.740  1.00  0.00    -0.257 N
HETATM    5  N2  UNL     1      19.873  37.149  37.870  1.00  0.00    -0.238 N
HETATM    6  N3  UNL     1      19.851  36.023  38.514  1.00  0.00    -0.279 N
ATOM      7  H2  UNL     1      20.372  37.974  38.204  1.00  0.00     0.208 HD
HETATM    8  C4  UNL     1      19.108  35.160  37.795  1.00  0.00     0.139 A
ATOM      9  H3  UNL     1      20.311  35.827  39.403  1.00  0.00     0.189 HD
HETATM   10  C5  UNL     1      18.767  33.842  38.015  1.00  0.00     0.132 A
HETATM   11  C7  UNL     1      18.683  35.856  36.663  1.00  0.00     0.157 A
HETATM   12  N5  UNL     1      18.001  33.204  37.115  1.00  0.00    -0.337 N
HETATM   13  C6  UNL     1      17.598  33.894  36.022  1.00  0.00     0.183 A
ATOM     14  H5  UNL     1      17.731  32.229  37.251  1.00  0.00     0.168 HD
HETATM   15  N6  UNL     1      17.929  35.176  35.806  1.00  0.00    -0.335 N
ATOM     16  H6  UNL     1      17.593  35.641  34.963  1.00  0.00     0.168 HD
BRANCH  10  17
HETATM   17  N4  UNL     1      19.180  33.236  39.074  1.00  0.00    -0.383 N
ATOM     18  H42 UNL     1      19.702  33.739  39.791  1.00  0.00     0.157 HD
ATOM     19  H41 UNL     1      18.987  32.242  39.202  1.00  0.00     0.157 HD
ENDBRANCH  10  17
ENDBRANCH   3   4
ENDBRANCH   2   3
BRANCH   2  20
HETATM   20  N7  UNL     1      17.559  39.827  34.957  1.00  0.00    -0.202 N
ATOM     21  H7  UNL     1      18.122  39.621  34.131  1.00  0.00     0.179 HD
BRANCH  20  22
HETATM   22  C8  UNL     1      16.548  40.475  34.683  1.00  0.00     0.716 A
HETATM   23  N8  UNL     1      15.528  40.826  35.464  1.00  0.00    -0.184 N
HETATM   24  C9  UNL     1      14.621  41.545  34.735  1.00  0.00     0.217 A
ATOM     25  H8  UNL     1      15.438  40.595  36.454  1.00  0.00     0.185 HD
HETATM   26  N9  UNL     1      15.134  41.605  33.509  1.00  0.00    -0.260 N
HETATM   27  N10 UNL     1      16.291  40.974  33.437  1.00  0.00    -0.026 N
ATOM     28  H9  UNL     1      14.689  42.078  32.722  1.00  0.00     0.190 HD
BRANCH  27  29
HETATM   29  N11 UNL     1      17.049  40.876  32.279  1.00  0.00    -0.309 N
ATOM     30 2H11 UNL     1      17.068  40.051  31.679  1.00  0.00     0.179 HD
ATOM     31 1H11 UNL     1      17.673  41.563  31.857  1.00  0.00     0.179 HD
ENDBRANCH  27  29
ENDBRANCH  20  22
ENDBRANCH   2  20
BRANCH   2  32
HETATM   32  C10 UNL     1      18.812  40.279  36.988  1.00  0.00     0.204 C
HETATM   33  O1  UNL     1      19.384  41.326  36.587  1.00  0.00    -0.646 OA
HETATM   34  O2  UNL     1      18.853  40.089  38.356  1.00  0.00    -0.646 OA
ENDBRANCH   2  32
TORSDOF 7
ENDMDL