MODEL 4
REMARK VINA RESULT: -7.639683733      1.029      1.219
REMARK  9 active torsions:
REMARK  status: ('A' for Active; 'I' for Inactive)
REMARK    1  A    between atoms: C2_2  and  C3_3
REMARK    2  A    between atoms: C3_3  and  N1_4
REMARK    3  A    between atoms: C3_3  and  C4_8
REMARK    4  A    between atoms: C4_8  and  O1_9
REMARK    5  A    between atoms: C4_8  and  N2_11
REMARK    6  A    between atoms: N2_11  and  C5_13
REMARK    7  A    between atoms: C6_16  and  N4_17
REMARK    8  A    between atoms: C9_26  and  N7_27
REMARK    9  A    between atoms: N7_27  and  O2_29
ROOT
HETATM    1  C5  UNL     1      18.096  39.716  36.488  1.00  0.00     0.149 A
HETATM    2  N3  UNL     1      18.826  40.825  36.645  1.00  0.00    -0.175 N
ATOM      3  H3  UNL     1      18.498  41.696  36.228  1.00  0.00     0.186 HD
HETATM    4  C6  UNL     1      19.998  40.827  37.345  1.00  0.00     0.679 A
HETATM    5  N5  UNL     1      20.432  39.680  37.893  1.00  0.00    -0.173 N
ATOM      6  H5  UNL     1      21.307  39.683  38.415  1.00  0.00     0.186 HD
HETATM    7  C7  UNL     1      19.749  38.532  37.776  1.00  0.00     0.173 A
HETATM    8  C8  UNL     1      18.552  38.552  37.055  1.00  0.00     0.125 A
HETATM    9  N6  UNL     1      17.871  37.392  36.941  1.00  0.00    -0.332 N
ATOM     10  H6  UNL     1      16.997  37.396  36.417  1.00  0.00     0.168 HD
HETATM   11  C9  UNL     1      18.280  36.243  37.476  1.00  0.00     0.173 A
HETATM   12  C11 UNL     1      19.469  36.260  38.182  1.00  0.00     0.186 A
HETATM   13  N8  UNL     1      20.084  35.232  38.810  1.00  0.00    -0.267 N
ATOM     14  H8  UNL     1      19.775  34.261  38.870  1.00  0.00     0.185 HD
HETATM   15  N9  UNL     1      21.189  35.775  39.333  1.00  0.00    -0.006 NA
HETATM   16  N10 UNL     1      21.242  37.064  39.040  1.00  0.00     0.002 NA
HETATM   17  N11 UNL     1      20.179  37.385  38.323  1.00  0.00    -0.202 N
ENDROOT
BRANCH   1  18
HETATM   18  N2  UNL     1      17.001  39.703  35.836  1.00  0.00    -0.346 N
ATOM     19  H2  UNL     1      17.040  39.429  34.854  1.00  0.00     0.163 HD
BRANCH  18  20
HETATM   20  C4  UNL     1      15.712  40.045  36.381  1.00  0.00     0.253 C
BRANCH  20  21
HETATM   21  C3  UNL     1      15.004  41.098  35.553  1.00  0.00     0.253 C
BRANCH  21  22
HETATM   22  C2  UNL     1      13.549  40.861  35.633  1.00  0.00    -0.000 C
HETATM   23  C1  UNL     1      12.829  40.864  34.523  1.00  0.00     0.009 C
ENDBRANCH  21  22
BRANCH  21  24
HETATM   24  N1  UNL     1      15.516  41.090  34.206  1.00  0.00    -0.068 N
ATOM     25  H13 UNL     1      15.825  42.023  33.932  1.00  0.00     0.275 HD
ATOM     26  H12 UNL     1      16.408  40.596  34.162  1.00  0.00     0.275 HD
ATOM     27  H11 UNL     1      14.862  40.712  33.521  1.00  0.00     0.275 HD
ENDBRANCH  21  24
ENDBRANCH  20  21
BRANCH  20  28
HETATM   28  O1  UNL     1      14.918  38.951  36.634  1.00  0.00    -0.374 OA
ATOM     29  H1  UNL     1      15.397  38.238  37.040  1.00  0.00     0.212 HD
ENDBRANCH  20  28
ENDBRANCH  18  20
ENDBRANCH   1  18
BRANCH   4  30
HETATM   30  N4  UNL     1      20.684  41.901  37.484  1.00  0.00    -0.234 N
ATOM     31  H42 UNL     1      21.353  42.175  36.763  1.00  0.00     0.174 HD
ATOM     32  H41 UNL     1      20.573  42.495  38.306  1.00  0.00     0.174 HD
ENDBRANCH   4  30
BRANCH  11  33
HETATM   33  N7  UNL     1      17.581  35.186  37.325  1.00  0.00    -0.248 N
ATOM     34  H7  UNL     1      17.168  34.988  36.413  1.00  0.00     0.196 HD
BRANCH  33  35
HETATM   35  O2  UNL     1      17.374  34.323  38.347  1.00  0.00    -0.284 OA
HETATM   36  C10 UNL     1      17.061  32.951  38.168  1.00  0.00     0.237 C
ENDBRANCH  33  35
ENDBRANCH  11  33
TORSDOF 9
ENDMDL