MODEL 2
REMARK VINA RESULT: -7.557668230      0.945      1.111
REMARK  9 active torsions:
REMARK  status: ('A' for Active; 'I' for Inactive)
REMARK    1  A    between atoms: C2_2  and  C3_3
REMARK    2  A    between atoms: C3_3  and  O1_4
REMARK    3  A    between atoms: O1_4  and  N1_5
REMARK    4  A    between atoms: N1_5  and  C4_7
REMARK    5  A    between atoms: C6_13  and  N4_14
REMARK    6  A    between atoms: N4_14  and  N5_16
REMARK    7  A    between atoms: C7_19  and  N6_20
REMARK    8  A    between atoms: N6_20  and  N7_22
REMARK    9  A    between atoms: N7_22  and  C8_24
ROOT
HETATM    1  C4  UNL     1      17.534  39.695  37.241  1.00  0.00     0.206 C
HETATM    2  N2  UNL     1      17.695  38.683  38.015  1.00  0.00    -0.303 N
ATOM      3  H2  UNL     1      16.997  38.323  38.666  1.00  0.00     0.168 HD
HETATM    4  C5  UNL     1      19.005  38.138  37.823  1.00  0.00     0.311 A
HETATM    5  N3  UNL     1      19.931  38.458  38.904  1.00  0.00    -0.314 N
ATOM      6  H3  UNL     1      20.225  39.385  39.211  1.00  0.00     0.166 HD
HETATM    7  C6  UNL     1      20.335  37.210  39.435  1.00  0.00     0.173 A
HETATM    8  C7  UNL     1      19.738  36.182  38.698  1.00  0.00     0.207 A
HETATM    9  O2  UNL     1      18.949  36.759  37.688  1.00  0.00    -0.272 OA
HETATM   10  C9  UNL     1      19.572  38.812  36.637  1.00  0.00     0.303 C
HETATM   11  O3  UNL     1      20.557  38.616  35.979  1.00  0.00    -0.265 OA
HETATM   12  N9  UNL     1      18.636  39.882  36.348  1.00  0.00    -0.291 N
ATOM     13  H9  UNL     1      18.742  40.619  35.651  1.00  0.00     0.172 HD
ENDROOT
BRANCH   1  14
HETATM   14  N1  UNL     1      16.382  40.472  37.202  1.00  0.00    -0.236 N
ATOM     15  H1  UNL     1      15.847  40.735  38.030  1.00  0.00     0.197 HD
BRANCH  14  16
HETATM   16  O1  UNL     1      16.034  40.857  35.890  1.00  0.00    -0.278 OA
BRANCH  16  17
HETATM   17  C3  UNL     1      14.592  40.849  36.014  1.00  0.00     0.201 C
BRANCH  17  18
HETATM   18  C2  UNL     1      14.122  41.566  34.768  1.00  0.00     0.024 C
HETATM   19  C1  UNL     1      15.207  41.511  33.716  1.00  0.00     0.007 C
ENDBRANCH  17  18
ENDBRANCH  16  17
ENDBRANCH  14  16
ENDBRANCH   1  14
BRANCH   7  20
HETATM   20  N4  UNL     1      21.130  37.112  40.526  1.00  0.00    -0.289 N
ATOM     21  H4  UNL     1      21.182  36.258  41.082  1.00  0.00     0.188 HD
BRANCH  20  22
HETATM   22  N5  UNL     1      21.871  38.241  40.842  1.00  0.00    -0.344 N
ATOM     23  H52 UNL     1      22.516  38.653  40.169  1.00  0.00     0.176 HD
ATOM     24  H51 UNL     1      21.727  38.622  41.778  1.00  0.00     0.176 HD
ENDBRANCH  20  22
ENDBRANCH   7  20
BRANCH   8  25
HETATM   25  N6  UNL     1      19.808  34.883  38.824  1.00  0.00    -0.275 N
ATOM     26  H6  UNL     1      20.723  34.435  38.873  1.00  0.00     0.189 HD
BRANCH  25  27
HETATM   27  N7  UNL     1      18.686  34.117  38.892  1.00  0.00    -0.277 N
ATOM     28  H7  UNL     1      18.466  33.818  39.842  1.00  0.00     0.189 HD
BRANCH  27  29
HETATM   29  C8  UNL     1      17.783  33.657  37.965  1.00  0.00     0.199 C
HETATM   30  N8  UNL     1      16.612  32.944  38.555  1.00  0.00    -0.068 NA
HETATM   31  S1  UNL     1      17.768  33.793  36.355  1.00  0.00    -0.043 SA
ENDBRANCH  27  29
ENDBRANCH  25  27
ENDBRANCH   8  25
TORSDOF 9
ENDMDL