MODEL 3
REMARK VINA RESULT: -7.945454812      2.405      4.835
REMARK  11 active torsions:
REMARK  status: ('A' for Active; 'I' for Inactive)
REMARK    1  A    between atoms: N1_1  and  N2_4
REMARK    2  A    between atoms: N2_4  and  C1_6
REMARK    3  A    between atoms: C3_12  and  O1_13
REMARK    4  A    between atoms: C4_15  and  C5_16
REMARK    5  A    between atoms: C5_16  and  O3_18
REMARK    6  A    between atoms: O3_18  and  C6_19
REMARK    7  A    between atoms: C6_19  and  C7_20
REMARK    8  A    between atoms: C7_20  and  O4_21
REMARK    9  A    between atoms: C8_25  and  C9_26
REMARK       I    between atoms: C9_26  and  N6_28
REMARK   10  A    between atoms: N6_28  and  N7_30
REMARK   11  A    between atoms: N8_34  and  O6_35
ROOT
HETATM    1  C1  UNL     1      20.804  37.454  39.408  1.00  0.00     0.738 A
HETATM    2  N3  UNL     1      20.813  38.791  39.475  1.00  0.00    -0.128 N
ATOM      3  H3  UNL     1      21.354  39.252  40.205  1.00  0.00     0.205 HD
HETATM    4  N4  UNL     1      20.135  39.523  38.616  1.00  0.00    -0.281 N
ATOM      5  H4  UNL     1      20.147  40.542  38.674  1.00  0.00     0.187 HD
HETATM    6  C2  UNL     1      19.426  38.897  37.659  1.00  0.00     0.116 A
HETATM    7  C3  UNL     1      18.753  39.682  36.762  1.00  0.00     0.129 A
HETATM    8  C4  UNL     1      18.050  39.056  35.772  1.00  0.00     0.145 A
HETATM    9  N5  UNL     1      18.016  37.743  35.680  1.00  0.00    -0.343 N
ATOM     10  H5  UNL     1      17.474  37.334  34.919  1.00  0.00     0.166 HD
HETATM   11  C8  UNL     1      18.671  36.876  36.552  1.00  0.00     0.135 A
HETATM   12  C10 UNL     1      19.384  37.501  37.548  1.00  0.00     0.144 A
HETATM   13  N8  UNL     1      20.087  36.816  38.439  1.00  0.00    -0.045 N
ENDROOT
BRANCH   8  14
HETATM   14  C5  UNL     1      17.319  39.894  34.795  1.00  0.00     0.313 C
HETATM   15  O2  UNL     1      17.511  39.770  33.567  1.00  0.00    -0.258 OA
BRANCH  14  16
HETATM   16  O3  UNL     1      16.427  40.807  35.286  1.00  0.00    -0.314 OA
BRANCH  16  17
HETATM   17  C6  UNL     1      15.334  40.492  36.079  1.00  0.00     0.205 C
BRANCH  17  18
HETATM   18  C7  UNL     1      14.077  41.212  35.675  1.00  0.00     0.191 C
BRANCH  18  19
HETATM   19  O4  UNL     1      13.010  40.787  36.471  1.00  0.00    -0.399 OA
ATOM     20  H4  UNL     1      13.326  40.554  37.336  1.00  0.00     0.209 HD
ENDBRANCH  18  19
ENDBRANCH  17  18
ENDBRANCH  16  17
ENDBRANCH  14  16
ENDBRANCH   8  14
BRANCH   7  21
HETATM   21  O1  UNL     1      18.775  41.058  36.846  1.00  0.00    -0.356 OA
ATOM     22  H1  UNL     1      18.324  41.523  37.541  1.00  0.00     0.218 HD
ENDBRANCH   7  21
BRANCH  11  23
HETATM   23  C9  UNL     1      18.531  35.475  36.299  1.00  0.00     0.288 C
HETATM   24  O5  UNL     1      19.083  34.793  35.462  1.00  0.00    -0.264 OA
HETATM   25  N6  UNL     1      17.603  34.750  37.150  1.00  0.00    -0.271 N
ATOM     26  H6  UNL     1      17.108  35.269  37.874  1.00  0.00     0.189 HD
BRANCH  25  27
HETATM   27  N7  UNL     1      17.358  33.403  37.029  1.00  0.00    -0.342 N
ATOM     28  H72 UNL     1      17.612  32.811  37.819  1.00  0.00     0.176 HD
ATOM     29  H71 UNL     1      16.939  32.978  36.201  1.00  0.00     0.176 HD
ENDBRANCH  25  27
ENDBRANCH  11  23
BRANCH  13  30
HETATM   30  O6  UNL     1      20.152  35.451  38.379  1.00  0.00    -0.269 OA
ATOM     31  H6  UNL     1      20.472  34.982  39.141  1.00  0.00     0.245 HD
ENDBRANCH  13  30
BRANCH   1  32
HETATM   32  N2  UNL     1      21.465  36.710  40.243  1.00  0.00    -0.135 N
ATOM     33  H2  UNL     1      21.773  35.776  39.970  1.00  0.00     0.205 HD
BRANCH  32  34
HETATM   34  N1  UNL     1      21.748  37.200  41.510  1.00  0.00    -0.331 N
ATOM     35  H12 UNL     1      22.290  38.059  41.606  1.00  0.00     0.177 HD
ATOM     36  H11 UNL     1      21.408  36.693  42.328  1.00  0.00     0.177 HD
ENDBRANCH  32  34
ENDBRANCH   1  32
TORSDOF 11
ENDMDL