MODEL 2
REMARK VINA RESULT: -9.065402499      2.873      5.704
REMARK  6 active torsions:
REMARK  status: ('A' for Active; 'I' for Inactive)
REMARK    1  A    between atoms: C4_5  and  C5_6
REMARK    2  A    between atoms: C5_6  and  N1_7
REMARK    3  A    between atoms: N1_7  and  C6_10
REMARK    4  A    between atoms: C6_10  and  N2_11
REMARK    5  A    between atoms: C6_10  and  C11_18
REMARK    6  A    between atoms: N2_11  and  C7_13
ROOT
HETATM    1  C6  UNL     1      68.738  26.397  23.629  1.00  0.00     0.320 C
ENDROOT
BRANCH   1   2
HETATM    2  N1  UNL     1      70.135  26.317  23.993  1.00  0.00    -0.046 N
ATOM      3  H12 UNL     1      70.547  25.408  23.785  1.00  0.00     0.280 HD
ATOM      4  H11 UNL     1      70.281  26.304  25.002  1.00  0.00     0.280 HD
BRANCH   2   5
HETATM    5  C5  UNL     1      70.825  27.408  23.341  1.00  0.00     0.273 C
BRANCH   5   6
HETATM    6  C4  UNL     1      70.809  27.275  21.862  1.00  0.00    -0.033 A
HETATM    7  C3  UNL     1      70.688  28.425  21.116  1.00  0.00     0.012 A
HETATM    8  C2  UNL     1      70.664  28.395  19.739  1.00  0.00     0.043 A
HETATM    9  C1  UNL     1      70.769  27.155  19.114  1.00  0.00     0.116 A
HETATM   10  F1  UNL     1      70.750  27.077  17.754  1.00  0.00    -0.206 F
HETATM   11  C17 UNL     1      70.890  26.001  19.831  1.00  0.00     0.043 A
HETATM   12  C16 UNL     1      70.910  26.063  21.211  1.00  0.00     0.012 A
ENDBRANCH   5   6
ENDBRANCH   2   5
ENDBRANCH   1   2
BRANCH   1  13
HETATM   13  N2  UNL     1      68.077  25.117  23.550  1.00  0.00    -0.353 N
ATOM     14  H2  UNL     1      68.263  24.434  24.283  1.00  0.00     0.162 HD
BRANCH  13  15
HETATM   15  C7  UNL     1      67.182  24.755  22.508  1.00  0.00     0.071 A
HETATM   16  C8  UNL     1      67.138  25.201  21.214  1.00  0.00     0.037 A
HETATM   17  C9  UNL     1      66.190  24.689  20.422  1.00  0.00     0.010 A
HETATM   18  C10 UNL     1      65.339  23.765  20.959  1.00  0.00     0.052 A
HETATM   19  S1  UNL     1      65.899  23.637  22.570  1.00  0.00    -0.085 SA
ENDBRANCH  13  15
ENDBRANCH   1  13
BRANCH   1  20
HETATM   20  C11 UNL     1      67.972  27.342  24.486  1.00  0.00     0.007 A
HETATM   21  C12 UNL     1      66.603  27.231  24.607  1.00  0.00     0.013 A
HETATM   22  C13 UNL     1      65.908  28.092  25.397  1.00  0.00     0.018 A
HETATM   23  C14 UNL     1      66.537  29.093  26.094  1.00  0.00     0.087 A
HETATM   24  N3  UNL     1      67.873  29.198  25.973  1.00  0.00    -0.375 N
HETATM   25  C15 UNL     1      68.582  28.361  25.200  1.00  0.00     0.098 A
ATOM     26  H3  UNL     1      68.360  29.935  26.483  1.00  0.00     0.164 HD
ENDBRANCH   1  20
TORSDOF 6
ENDMDL