MODEL 4
REMARK VINA RESULT: -8.428022411      1.690      3.125
REMARK  6 active torsions:
REMARK  status: ('A' for Active; 'I' for Inactive)
REMARK    1  A    between atoms: C2_2  and  C3_3
REMARK    2  A    between atoms: C2_2  and  N2_19
REMARK    3  A    between atoms: C3_3  and  N1_4
REMARK    4  A    between atoms: N1_4  and  C4_6
REMARK    5  A    between atoms: C7_9  and  C8_10
REMARK    6  A    between atoms: N2_19  and  C16_21
ROOT
HETATM    1  N1  UNL     1      71.012  26.272  21.931  1.00  0.00    -0.388 N
ATOM      2  H1  UNL     1      71.891  26.580  22.346  1.00  0.00     0.159 HD
ENDROOT
BRANCH   1   3
HETATM    3  C3  UNL     1      70.096  25.459  22.688  1.00  0.00     0.144 C
BRANCH   3   4
HETATM    4  C2  UNL     1      68.760  26.146  22.882  1.00  0.00     0.095 C
HETATM    5  C1  UNL     1      67.663  25.379  22.197  1.00  0.00     0.034 C
BRANCH   4   6
HETATM    6  N2  UNL     1      68.525  26.411  24.266  1.00  0.00    -0.383 N
ATOM      7  H2  UNL     1      68.935  25.769  24.944  1.00  0.00     0.160 HD
BRANCH   6   8
HETATM    8  C16 UNL     1      67.764  27.499  24.772  1.00  0.00     0.043 A
HETATM    9  C17 UNL     1      66.374  27.412  24.871  1.00  0.00     0.032 A
HETATM   10  C18 UNL     1      65.625  28.454  25.361  1.00  0.00     0.019 A
HETATM   11  C19 UNL     1      66.305  29.589  25.750  1.00  0.00     0.088 A
HETATM   12  N3  UNL     1      67.643  29.654  25.647  1.00  0.00    -0.373 N
HETATM   13  C20 UNL     1      68.405  28.638  25.166  1.00  0.00     0.116 A
ATOM     14  H3  UNL     1      68.111  30.510  25.945  1.00  0.00     0.164 HD
ENDBRANCH   6   8
ENDBRANCH   4   6
ENDBRANCH   3   4
ENDBRANCH   1   3
BRANCH   1  15
HETATM   15  C4  UNL     1      70.678  26.641  20.600  1.00  0.00     0.028 A
HETATM   16  C5  UNL     1      70.305  25.695  19.676  1.00  0.00     0.030 A
HETATM   17  C6  UNL     1      69.983  26.054  18.391  1.00  0.00     0.014 A
HETATM   18  C7  UNL     1      70.014  27.376  17.949  1.00  0.00    -0.026 A
HETATM   19  C14 UNL     1      70.394  28.320  18.897  1.00  0.00     0.014 A
HETATM   20  C15 UNL     1      70.721  27.975  20.193  1.00  0.00     0.030 A
BRANCH  18  21
HETATM   21  C8  UNL     1      69.671  27.727  16.596  1.00  0.00    -0.026 A
HETATM   22  C9  UNL     1      68.388  28.070  16.274  1.00  0.00     0.015 A
HETATM   23  C10 UNL     1      68.063  28.406  14.975  1.00  0.00     0.043 A
HETATM   24  C11 UNL     1      68.998  28.407  13.991  1.00  0.00     0.116 A
HETATM   25  F1  UNL     1      68.627  28.746  12.727  1.00  0.00    -0.206 F
HETATM   26  C12 UNL     1      70.295  28.065  14.291  1.00  0.00     0.043 A
HETATM   27  C13 UNL     1      70.622  27.724  15.608  1.00  0.00     0.015 A
ENDBRANCH  18  21
ENDBRANCH   1  15
TORSDOF 6
ENDMDL