MODEL 3
REMARK VINA RESULT: -9.108015170      3.655      7.068
REMARK  7 active torsions:
REMARK  status: ('A' for Active; 'I' for Inactive)
REMARK    1  A    between atoms: C5_6  and  O1_7
REMARK    2  A    between atoms: O1_7  and  C6_8
REMARK    3  A    between atoms: C9_11  and  N1_12
REMARK    4  A    between atoms: N1_12  and  C10_14
REMARK    5  A    between atoms: C10_14  and  C11_15
REMARK    6  A    between atoms: C11_15  and  N2_16
REMARK    7  A    between atoms: N2_16  and  C12_18
ROOT
HETATM    1  C6  UNL     1      66.613  25.505  22.726  1.00  0.00     0.076 A
HETATM    2  C7  UNL     1      65.594  25.231  21.837  1.00  0.00     0.039 A
HETATM    3  C8  UNL     1      65.833  25.094  20.477  1.00  0.00     0.032 A
HETATM    4  C9  UNL     1      67.105  25.227  19.965  1.00  0.00     0.028 A
HETATM    5  C18 UNL     1      68.118  25.501  20.859  1.00  0.00     0.032 A
HETATM    6  C19 UNL     1      67.888  25.639  22.218  1.00  0.00     0.039 A
ENDROOT
BRANCH   4   7
HETATM    7  N1  UNL     1      67.362  25.087  18.561  1.00  0.00    -0.388 N
ATOM      8  H1  UNL     1      66.582  25.017  17.907  1.00  0.00     0.159 HD
BRANCH   7   9
HETATM    9  C10 UNL     1      68.716  25.044  18.068  1.00  0.00     0.139 C
BRANCH   9  10
HETATM   10  C11 UNL     1      69.125  26.441  17.660  1.00  0.00     0.139 C
BRANCH  10  11
HETATM   11  N2  UNL     1      70.431  26.809  18.110  1.00  0.00    -0.388 N
ATOM     12  H2  UNL     1      71.114  27.119  17.419  1.00  0.00     0.159 HD
BRANCH  11  13
HETATM   13  C12 UNL     1      70.817  26.764  19.462  1.00  0.00     0.028 A
HETATM   14  C13 UNL     1      70.545  27.867  20.281  1.00  0.00     0.029 A
HETATM   15  C14 UNL     1      70.901  27.840  21.605  1.00  0.00     0.002 A
HETATM   16  C15 UNL     1      71.529  26.737  22.157  1.00  0.00     0.000 A
HETATM   17  C16 UNL     1      71.810  25.634  21.376  1.00  0.00     0.002 A
HETATM   18  C17 UNL     1      71.438  25.689  20.038  1.00  0.00     0.029 A
ENDBRANCH  11  13
ENDBRANCH  10  11
ENDBRANCH   9  10
ENDBRANCH   7   9
ENDBRANCH   4   7
BRANCH   1  19
HETATM   19  O1  UNL     1      66.364  25.642  24.093  1.00  0.00    -0.311 OA
BRANCH  19  20
HETATM   20  C5  UNL     1      66.375  26.912  24.631  1.00  0.00     0.079 A
HETATM   21  C4  UNL     1      67.569  27.464  25.025  1.00  0.00     0.037 A
HETATM   22  C3  UNL     1      67.635  28.725  25.566  1.00  0.00     0.006 A
HETATM   23  C2  UNL     1      66.503  29.464  25.726  1.00  0.00     0.042 A
HETATM   24  C1  UNL     1      65.295  28.918  25.332  1.00  0.00     0.119 A
HETATM   25  F1  UNL     1      64.151  29.657  25.489  1.00  0.00    -0.206 F
HETATM   26  C20 UNL     1      65.217  27.661  24.791  1.00  0.00     0.079 A
ENDBRANCH  19  20
ENDBRANCH   1  19
TORSDOF 7
ENDMDL