MODEL 3
REMARK VINA RESULT: -8.911256272      4.157      9.128
REMARK  6 active torsions:
REMARK  status: ('A' for Active; 'I' for Inactive)
REMARK    1  A    between atoms: C4_5  and  C5_6
REMARK    2  A    between atoms: C5_6  and  N1_7
REMARK    3  A    between atoms: N1_7  and  C6_9
REMARK    4  A    between atoms: C9_12  and  S1_13
REMARK    5  A    between atoms: S1_13  and  C10_14
REMARK    6  A    between atoms: C10_14  and  C11_15
ROOT
HETATM    1  C6  UNL     1      67.300  25.093  19.851  1.00  0.00     0.028 A
HETATM    2  C7  UNL     1      66.178  24.443  20.270  1.00  0.00     0.030 A
HETATM    3  C8  UNL     1      65.758  24.408  21.578  1.00  0.00     0.021 A
HETATM    4  C9  UNL     1      66.539  25.085  22.526  1.00  0.00     0.001 A
HETATM    5  C16 UNL     1      67.661  25.738  22.132  1.00  0.00     0.021 A
HETATM    6  C17 UNL     1      68.052  25.749  20.784  1.00  0.00     0.030 A
ENDROOT
BRANCH   1   7
HETATM    7  N1  UNL     1      67.677  25.091  18.496  1.00  0.00    -0.386 N
ATOM      8  H1  UNL     1      67.215  24.434  17.867  1.00  0.00     0.160 HD
BRANCH   7   9
HETATM    9  C5  UNL     1      68.686  25.969  17.944  1.00  0.00     0.158 C
BRANCH   9  10
HETATM   10  C4  UNL     1      68.202  26.586  16.697  1.00  0.00    -0.040 A
HETATM   11  C3  UNL     1      67.164  26.031  16.008  1.00  0.00     0.012 A
HETATM   12  C2  UNL     1      66.664  26.567  14.828  1.00  0.00     0.043 A
HETATM   13  C1  UNL     1      67.273  27.711  14.371  1.00  0.00     0.116 A
HETATM   14  F1  UNL     1      66.777  28.233  13.209  1.00  0.00    -0.206 F
HETATM   15  C19 UNL     1      68.324  28.289  15.052  1.00  0.00     0.043 A
HETATM   16  C18 UNL     1      68.791  27.724  16.222  1.00  0.00     0.012 A
ENDBRANCH   9  10
ENDBRANCH   7   9
ENDBRANCH   1   7
BRANCH   4  17
HETATM   17  S1  UNL     1      66.032  24.997  24.188  1.00  0.00    -0.125 SA
BRANCH  17  18
HETATM   18  C10 UNL     1      65.017  26.293  24.810  1.00  0.00     0.119 C
BRANCH  18  19
HETATM   19  C11 UNL     1      65.678  27.567  25.125  1.00  0.00    -0.033 A
HETATM   20  C12 UNL     1      67.076  27.535  25.249  1.00  0.00     0.011 A
HETATM   21  C13 UNL     1      67.708  28.728  25.517  1.00  0.00     0.018 A
HETATM   22  C14 UNL     1      66.995  29.906  25.658  1.00  0.00     0.087 A
HETATM   23  N2  UNL     1      65.646  29.883  25.529  1.00  0.00    -0.375 N
HETATM   24  C15 UNL     1      64.981  28.725  25.263  1.00  0.00     0.095 A
ATOM     25  H2  UNL     1      65.119  30.750  25.632  1.00  0.00     0.164 HD
ENDBRANCH  18  19
ENDBRANCH  17  18
ENDBRANCH   4  17
TORSDOF 6
ENDMDL