MODEL 2
REMARK VINA RESULT: -9.137395176      0.980      1.418
REMARK  6 active torsions:
REMARK  status: ('A' for Active; 'I' for Inactive)
REMARK    1  A    between atoms: C5_6  and  N1_7
REMARK    2  A    between atoms: N1_7  and  C6_9
REMARK    3  A    between atoms: C8_11  and  C9_12
REMARK    4  A    between atoms: C9_12  and  S1_13
REMARK    5  A    between atoms: S1_13  and  C10_14
REMARK    6  A    between atoms: C10_14  and  C11_15
ROOT
HETATM    1  C6  UNL     1      69.640  27.774  24.299  1.00  0.00     0.122 A
HETATM    2  C7  UNL     1      68.452  27.132  24.521  1.00  0.00     0.077 A
HETATM    3  C8  UNL     1      67.635  27.969  25.260  1.00  0.00     0.038 A
HETATM    4  N2  UNL     1      68.334  29.086  25.467  1.00  0.00    -0.302 N
ATOM      5  H2  UNL     1      67.996  29.897  25.985  1.00  0.00     0.186 HD
HETATM    6  N3  UNL     1      69.519  28.993  24.909  1.00  0.00    -0.285 N
ATOM      7  H3  UNL     1      70.237  29.717  24.927  1.00  0.00     0.188 HD
ENDROOT
BRANCH   1   8
HETATM    8  N1  UNL     1      70.810  27.354  23.626  1.00  0.00    -0.341 N
ATOM      9  H1  UNL     1      71.644  27.164  24.181  1.00  0.00     0.167 HD
BRANCH   8  10
HETATM   10  C5  UNL     1      70.883  27.183  22.232  1.00  0.00     0.036 A
HETATM   11  C4  UNL     1      70.527  28.180  21.382  1.00  0.00     0.029 A
HETATM   12  C3  UNL     1      70.634  27.994  19.997  1.00  0.00     0.005 A
HETATM   13  C2  UNL     1      71.107  26.781  19.543  1.00  0.00     0.042 A
HETATM   14  C1  UNL     1      71.470  25.760  20.400  1.00  0.00     0.118 A
HETATM   15  F1  UNL     1      71.929  24.582  19.940  1.00  0.00    -0.206 F
HETATM   16  C17 UNL     1      71.357  25.964  21.750  1.00  0.00     0.071 A
ENDBRANCH   8  10
ENDBRANCH   1   8
BRANCH   3  17
HETATM   17  C9  UNL     1      66.258  27.609  25.691  1.00  0.00     0.132 C
BRANCH  17  18
HETATM   18  S1  UNL     1      65.306  26.841  24.381  1.00  0.00    -0.158 SA
BRANCH  18  19
HETATM   19  C10 UNL     1      65.818  25.175  23.973  1.00  0.00     0.112 C
BRANCH  19  20
HETATM   20  C11 UNL     1      66.171  25.011  22.545  1.00  0.00    -0.049 A
HETATM   21  C12 UNL     1      67.295  25.682  22.054  1.00  0.00     0.008 A
HETATM   22  C13 UNL     1      67.678  25.569  20.735  1.00  0.00     0.001 A
HETATM   23  C14 UNL     1      66.965  24.784  19.838  1.00  0.00     0.000 A
HETATM   24  C15 UNL     1      65.860  24.129  20.330  1.00  0.00     0.001 A
HETATM   25  C16 UNL     1      65.470  24.237  21.655  1.00  0.00     0.008 A
ENDBRANCH  19  20
ENDBRANCH  18  19
ENDBRANCH  17  18
ENDBRANCH   3  17
TORSDOF 6
ENDMDL