MODEL 3
REMARK VINA RESULT: -9.315276925      1.204      3.937
REMARK  7 active torsions:
REMARK  status: ('A' for Active; 'I' for Inactive)
REMARK    1  A    between atoms: O1_1  and  C1_3
REMARK    2  A    between atoms: C1_3  and  N1_4
REMARK    3  A    between atoms: C1_3  and  C13_19
REMARK    4  A    between atoms: N1_4  and  C2_7
REMARK    5  A    between atoms: C2_7  and  C3_8
REMARK    6  A    between atoms: C2_7  and  C9_14
REMARK    7  A    between atoms: C3_8  and  C4_9
ROOT
HETATM    1  N1  UNL     1      67.603  24.528  24.011  1.00  0.00    -0.035 N
ATOM      2  H11 UNL     1      68.006  23.879  23.335  1.00  0.00     0.281 HD
ATOM      3  H12 UNL     1      67.815  24.018  24.868  1.00  0.00     0.281 HD
ENDROOT
BRANCH   1   4
HETATM    4  C1  UNL     1      66.193  24.664  23.823  1.00  0.00     0.354 C
BRANCH   4   5
HETATM    5  O1  UNL     1      65.539  24.463  25.063  1.00  0.00    -0.366 OA
ATOM      6  H1  UNL     1      65.740  25.188  25.642  1.00  0.00     0.212 HD
ENDBRANCH   4   5
BRANCH   4   7
HETATM    7  C13 UNL     1      65.650  23.639  22.877  1.00  0.00    -0.001 A
HETATM    8  C14 UNL     1      65.615  23.886  21.505  1.00  0.00     0.011 A
HETATM    9  C15 UNL     1      65.112  22.935  20.619  1.00  0.00     0.002 A
HETATM   10  C16 UNL     1      64.640  21.737  21.080  1.00  0.00     0.024 A
HETATM   11  C17 UNL     1      64.664  21.471  22.419  1.00  0.00     0.034 A
HETATM   12 CL1  UNL     1      64.051  19.922  22.978  1.00  0.00    -0.084 Cl
HETATM   13  C18 UNL     1      65.162  22.416  23.282  1.00  0.00     0.035 A
ENDBRANCH   4   7
ENDBRANCH   1   4
BRANCH   1  14
HETATM   14  C2  UNL     1      68.270  25.792  23.979  1.00  0.00     0.246 C
BRANCH  14  15
HETATM   15  C3  UNL     1      67.310  26.958  23.887  1.00  0.00     0.044 C
BRANCH  15  16
HETATM   16  C4  UNL     1      67.200  27.736  25.159  1.00  0.00    -0.012 C
HETATM   17  C5  UNL     1      68.221  28.813  25.319  1.00  0.00     0.005 C
HETATM   18  C6  UNL     1      67.473  30.119  25.468  1.00  0.00     0.000 C
HETATM   19  C7  UNL     1      66.052  29.765  25.814  1.00  0.00     0.000 C
HETATM   20  C8  UNL     1      65.856  28.439  25.150  1.00  0.00     0.005 C
ENDBRANCH  15  16
ENDBRANCH  14  15
BRANCH  14  21
HETATM   21  C9  UNL     1      69.151  25.917  22.763  1.00  0.00     0.083 A
HETATM   22  C10 UNL     1      68.837  26.163  21.466  1.00  0.00     0.037 A
HETATM   23  C11 UNL     1      70.012  26.180  20.738  1.00  0.00     0.027 A
HETATM   24  C12 UNL     1      71.007  25.936  21.660  1.00  0.00     0.142 A
HETATM   25  O2  UNL     1      70.459  25.785  22.850  1.00  0.00    -0.325 OA
ENDBRANCH  14  21
ENDBRANCH   1  14
TORSDOF 7
ENDMDL