MODEL 4
REMARK VINA RESULT: -8.957935233      2.595      6.553
REMARK  6 active torsions:
REMARK  status: ('A' for Active; 'I' for Inactive)
REMARK    1  A    between atoms: C4_5  and  C5_6
REMARK    2  A    between atoms: C5_6  and  C6_7
REMARK    3  A    between atoms: C5_6  and  N2_16
REMARK    4  A    between atoms: C6_7  and  N1_8
REMARK    5  A    between atoms: N1_8  and  C7_10
REMARK    6  A    between atoms: N2_16  and  C13_18
ROOT
HETATM    1  C5  UNL     1      66.037  25.612  23.173  1.00  0.00     0.134 C
ENDROOT
BRANCH   1   2
HETATM    2  C4  UNL     1      67.505  25.734  22.958  1.00  0.00    -0.018 A
HETATM    3  C3  UNL     1      67.881  25.902  21.625  1.00  0.00     0.014 A
HETATM    4  C2  UNL     1      69.216  26.009  21.326  1.00  0.00     0.043 A
HETATM    5  C1  UNL     1      70.159  25.948  22.329  1.00  0.00     0.103 A
HETATM    6 CL1  UNL     1      71.862  26.089  21.906  1.00  0.00    -0.065 Cl
HETATM    7  N3  UNL     1      69.748  25.785  23.589  1.00  0.00    -0.356 N
HETATM    8  C19 UNL     1      68.457  25.677  23.932  1.00  0.00     0.098 A
ATOM      9  H3  UNL     1      70.452  25.742  24.327  1.00  0.00     0.166 HD
ENDBRANCH   1   2
BRANCH   1  10
HETATM   10  C6  UNL     1      65.598  25.262  24.528  1.00  0.00     0.150 C
BRANCH  10  11
HETATM   11  N1  UNL     1      64.790  26.318  25.160  1.00  0.00    -0.388 N
ATOM     12  H1  UNL     1      63.820  26.163  25.435  1.00  0.00     0.159 HD
BRANCH  11  13
HETATM   13  C7  UNL     1      65.441  27.564  25.363  1.00  0.00     0.028 A
HETATM   14  C8  UNL     1      66.646  27.644  26.063  1.00  0.00     0.029 A
HETATM   15  C9  UNL     1      67.303  28.835  26.277  1.00  0.00     0.002 A
HETATM   16  C10 UNL     1      66.766  30.010  25.788  1.00  0.00     0.000 A
HETATM   17  C11 UNL     1      65.577  29.968  25.092  1.00  0.00     0.002 A
HETATM   18  C12 UNL     1      64.943  28.760  24.894  1.00  0.00     0.029 A
ENDBRANCH  11  13
ENDBRANCH  10  11
ENDBRANCH   1  10
BRANCH   1  19
HETATM   19  N2  UNL     1      65.529  24.714  22.175  1.00  0.00    -0.380 N
ATOM     20  H2  UNL     1      65.321  25.155  21.279  1.00  0.00     0.160 HD
BRANCH  19  21
HETATM   21  C13 UNL     1      65.270  23.350  22.216  1.00  0.00     0.028 A
HETATM   22  C14 UNL     1      65.368  22.560  23.312  1.00  0.00     0.029 A
HETATM   23  C15 UNL     1      65.063  21.188  23.303  1.00  0.00     0.002 A
HETATM   24  C16 UNL     1      64.648  20.626  22.122  1.00  0.00     0.000 A
HETATM   25  C17 UNL     1      64.533  21.397  20.968  1.00  0.00     0.002 A
HETATM   26  C18 UNL     1      64.844  22.736  21.032  1.00  0.00     0.029 A
ENDBRANCH  19  21
ENDBRANCH   1  19
TORSDOF 6
ENDMDL