MODEL 3
REMARK VINA RESULT: -9.178407051      2.039      4.988
REMARK  6 active torsions:
REMARK  status: ('A' for Active; 'I' for Inactive)
REMARK    1  A    between atoms: O1_2  and  C2_3
REMARK    2  A    between atoms: C5_6  and  N1_7
REMARK    3  A    between atoms: N1_7  and  C6_9
REMARK    4  A    between atoms: C6_9  and  C7_10
REMARK    5  A    between atoms: C13_16  and  N2_17
REMARK    6  A    between atoms: N2_17  and  C14_19
ROOT
HETATM    1  C2  UNL     1      67.528  28.308  25.283  1.00  0.00     0.070 A
HETATM    2  C3  UNL     1      68.815  28.741  25.156  1.00  0.00     0.039 A
HETATM    3  C4  UNL     1      69.774  27.933  24.545  1.00  0.00     0.034 A
HETATM    4  C5  UNL     1      69.448  26.670  24.051  1.00  0.00     0.055 A
HETATM    5  C13 UNL     1      68.164  26.231  24.175  1.00  0.00     0.057 A
HETATM    6  C20 UNL     1      67.212  27.060  24.792  1.00  0.00     0.068 A
ENDROOT
BRANCH   4   7
HETATM    7  N1  UNL     1      70.432  25.891  23.425  1.00  0.00    -0.384 N
ATOM      8  H1  UNL     1      70.371  24.876  23.504  1.00  0.00     0.160 HD
BRANCH   7   9
HETATM    9  C6  UNL     1      71.536  26.458  22.669  1.00  0.00     0.158 C
BRANCH   9  10
HETATM   10  C7  UNL     1      71.137  26.824  21.278  1.00  0.00    -0.041 A
HETATM   11  C8  UNL     1      70.867  28.134  20.917  1.00  0.00     0.009 A
HETATM   12  C9  UNL     1      70.492  28.471  19.615  1.00  0.00     0.001 A
HETATM   13  C10 UNL     1      70.378  27.503  18.641  1.00  0.00     0.000 A
HETATM   14  C11 UNL     1      70.647  26.200  19.002  1.00  0.00     0.001 A
HETATM   15  C12 UNL     1      71.018  25.870  20.289  1.00  0.00     0.009 A
ENDBRANCH   9  10
ENDBRANCH   7   9
ENDBRANCH   4   7
BRANCH   5  16
HETATM   16  N2  UNL     1      67.740  24.970  23.736  1.00  0.00    -0.381 N
ATOM     17  H2  UNL     1      68.435  24.225  23.669  1.00  0.00     0.160 HD
BRANCH  16  18
HETATM   18  C14 UNL     1      66.357  24.658  23.367  1.00  0.00     0.115 C
HETATM   19  C15 UNL     1      66.219  23.159  23.340  1.00  0.00     0.028 C
HETATM   20  C16 UNL     1      65.184  22.659  22.382  1.00  0.00     0.002 C
HETATM   21  C17 UNL     1      65.353  23.169  20.983  1.00  0.00     0.003 C
HETATM   22  C18 UNL     1      66.327  24.317  20.888  1.00  0.00     0.039 C
HETATM   23  C19 UNL     1      66.036  25.272  22.026  1.00  0.00     0.192 C
HETATM   24  F1  UNL     1      64.700  25.605  21.955  1.00  0.00    -0.247 F
ENDBRANCH  16  18
ENDBRANCH   5  16
BRANCH   1  25
HETATM   25  O1  UNL     1      66.531  29.094  25.894  1.00  0.00    -0.356 OA
HETATM   26  C1  UNL     1      65.281  29.247  25.280  1.00  0.00     0.210 C
ENDBRANCH   1  25
TORSDOF 6
ENDMDL