MODEL 2
REMARK VINA RESULT: -9.589763321      0.036      1.363
REMARK  6 active torsions:
REMARK  status: ('A' for Active; 'I' for Inactive)
REMARK    1  A    between atoms: C4_5  and  C5_6
REMARK    2  A    between atoms: C5_6  and  N1_7
REMARK    3  A    between atoms: N1_7  and  C6_9
REMARK    4  A    between atoms: C9_12  and  C10_13
REMARK    5  A    between atoms: N2_14  and  N3_16
REMARK    6  A    between atoms: N3_16  and  C11_18
ROOT
HETATM    1  C6  UNL     1      70.542  27.523  21.642  1.00  0.00     0.028 A
HETATM    2  C7  UNL     1      70.889  28.430  20.661  1.00  0.00     0.030 A
HETATM    3  C8  UNL     1      70.677  28.216  19.316  1.00  0.00     0.015 A
HETATM    4  C9  UNL     1      70.086  27.031  18.913  1.00  0.00    -0.019 A
HETATM    5  C17 UNL     1      69.726  26.105  19.854  1.00  0.00     0.015 A
HETATM    6  C18 UNL     1      69.950  26.347  21.178  1.00  0.00     0.030 A
ENDROOT
BRANCH   4   7
HETATM    7  C10 UNL     1      69.846  26.769  17.506  1.00  0.00     0.118 C
HETATM    8  N2  UNL     1      70.285  27.563  16.628  1.00  0.00    -0.311 N
ATOM      9  H2  UNL     1      70.801  28.373  16.968  1.00  0.00     0.186 HD
BRANCH   8  10
HETATM   10  N3  UNL     1      70.142  27.455  15.264  1.00  0.00    -0.301 N
ATOM     11  H3  UNL     1      70.248  26.553  14.801  1.00  0.00     0.187 HD
BRANCH  10  12
HETATM   12  C11 UNL     1      69.845  28.622  14.511  1.00  0.00     0.048 A
HETATM   13  C12 UNL     1      68.550  29.014  14.274  1.00  0.00     0.031 A
HETATM   14  C13 UNL     1      68.242  30.148  13.541  1.00  0.00     0.002 A
HETATM   15  C14 UNL     1      69.249  30.926  13.022  1.00  0.00     0.000 A
HETATM   16  C15 UNL     1      70.551  30.549  13.249  1.00  0.00     0.002 A
HETATM   17  C16 UNL     1      70.856  29.424  13.977  1.00  0.00     0.031 A
ENDBRANCH  10  12
ENDBRANCH   8  10
ENDBRANCH   4   7
BRANCH   1  18
HETATM   18  N1  UNL     1      70.763  27.752  23.016  1.00  0.00    -0.386 N
ATOM     19  H1  UNL     1      71.340  28.534  23.326  1.00  0.00     0.160 HD
BRANCH  18  20
HETATM   20  C5  UNL     1      70.162  26.864  23.970  1.00  0.00     0.158 C
BRANCH  20  21
HETATM   21  C4  UNL     1      68.851  27.298  24.452  1.00  0.00    -0.040 A
HETATM   22  C3  UNL     1      68.676  28.416  25.224  1.00  0.00     0.012 A
HETATM   23  C2  UNL     1      67.400  28.789  25.659  1.00  0.00     0.043 A
HETATM   24  C1  UNL     1      66.289  28.039  25.319  1.00  0.00     0.116 A
HETATM   25  F1  UNL     1      65.037  28.390  25.736  1.00  0.00    -0.206 F
HETATM   26  C20 UNL     1      66.461  26.915  24.543  1.00  0.00     0.043 A
HETATM   27  C19 UNL     1      67.740  26.552  24.113  1.00  0.00     0.012 A
ENDBRANCH  20  21
ENDBRANCH  18  20
ENDBRANCH   1  18
TORSDOF 6
ENDMDL