MODEL 5
REMARK VINA RESULT: -4.617050165      1.922      3.100
REMARK  3 active torsions:
REMARK  status: ('A' for Active; 'I' for Inactive)
REMARK    1  A    between atoms: N1_1  and  C1_4
REMARK    2  A    between atoms: C2_11  and  N5_12
REMARK    3  A    between atoms: N6_15  and  C3_16
ROOT
HETATM    1  C1  UNL     1      24.168   3.381  30.720  1.00  0.00     0.714 A
HETATM    2  N2  UNL     1      24.119   4.647  31.193  1.00  0.00    -0.116 N
ATOM      3  H2  UNL     1      23.801   4.825  32.145  1.00  0.00     0.207 HD
HETATM    4  N3  UNL     1      24.483   5.653  30.417  1.00  0.00    -0.214 N
ATOM      5  H3  UNL     1      24.435   6.597  30.800  1.00  0.00     0.209 HD
HETATM    6  N4  UNL     1      24.904   5.506  29.174  1.00  0.00    -0.116 N
ATOM      7  H4  UNL     1      25.176   6.311  28.608  1.00  0.00     0.207 HD
HETATM    8  C2  UNL     1      24.963   4.256  28.682  1.00  0.00     0.714 A
HETATM    9  N6  UNL     1      24.595   3.210  29.457  1.00  0.00     0.048 N
ENDROOT
BRANCH   1  10
HETATM   10  N1  UNL     1      23.827   2.356  31.429  1.00  0.00    -0.232 N
ATOM     11  H12 UNL     1      23.650   2.465  32.428  1.00  0.00     0.174 HD
ATOM     12  H11 UNL     1      23.720   1.422  31.034  1.00  0.00     0.174 HD
ENDBRANCH   1  10
BRANCH   9  13
HETATM   13  C3  UNL     1      24.650   1.884  28.955  1.00  0.00     0.225 C
HETATM   14  N7  UNL     1      25.775   1.404  28.263  1.00  0.00    -0.068 NA
HETATM   15  S1  UNL     1      23.370   0.900  29.190  1.00  0.00    -0.043 SA
ENDBRANCH   9  13
BRANCH   8  16
HETATM   16  N5  UNL     1      25.362   4.015  27.478  1.00  0.00    -0.232 N
ATOM     17  H52 UNL     1      25.997   4.680  27.037  1.00  0.00     0.174 HD
ATOM     18  H51 UNL     1      25.061   3.185  26.966  1.00  0.00     0.174 HD
ENDBRANCH   8  16
TORSDOF 3
ENDMDL