MODEL 3
REMARK VINA RESULT: -6.634054200      1.967      2.947
REMARK  0 active torsions:
REMARK  status: ('A' for Active; 'I' for Inactive)
REMARK       I    between atoms: N1_1  and  C1_4
ROOT
HETATM    1  N1  UNL     1      24.700   0.188  27.711  1.00  0.00    -0.233 N
ATOM      2  H11 UNL     1      25.134   0.226  26.788  1.00  0.00     0.174 HD
ATOM      3  H12 UNL     1      24.180  -0.598  28.103  1.00  0.00     0.174 HD
HETATM    4  C1  UNL     1      24.815   1.249  28.473  1.00  0.00     0.693 C
HETATM    5  N2  UNL     1      24.243   1.198  29.685  1.00  0.00    -0.131 N
ATOM      6  H2  UNL     1      23.978   0.262  29.990  1.00  0.00     0.205 HD
HETATM    7  N3  UNL     1      23.967   2.158  30.548  1.00  0.00    -0.269 N
ATOM      8  H3  UNL     1      23.315   1.908  31.292  1.00  0.00     0.189 HD
HETATM    9  C2  UNL     1      24.433   3.433  30.581  1.00  0.00     0.154 A
HETATM   10  N4  UNL     1      24.225   4.331  31.553  1.00  0.00    -0.336 N
ATOM     11  H4  UNL     1      23.682   4.154  32.397  1.00  0.00     0.168 HD
HETATM   12  C3  UNL     1      24.830   5.499  31.265  1.00  0.00     0.182 A
HETATM   13  N5  UNL     1      25.439   5.332  30.075  1.00  0.00    -0.345 N
ATOM     14  H5  UNL     1      25.985   6.040  29.583  1.00  0.00     0.167 HD
HETATM   15  C4  UNL     1      25.208   4.081  29.641  1.00  0.00     0.148 A
HETATM   16  C5  UNL     1      25.664   3.520  28.456  1.00  0.00     0.290 C
HETATM   17  O1  UNL     1      26.338   4.357  27.779  1.00  0.00    -0.265 OA
HETATM   18  N6  UNL     1      25.499   2.284  27.957  1.00  0.00    -0.153 N
ATOM     19  H6  UNL     1      25.956   2.107  27.063  1.00  0.00     0.187 HD
ENDROOT
TORSDOF 0
ENDMDL