MODEL 2
REMARK VINA RESULT: -6.106938031      2.202      4.489
REMARK  1 active torsions:
REMARK  status: ('A' for Active; 'I' for Inactive)
REMARK    1  A    between atoms: N1_1  and  C1_4
ROOT
HETATM    1  C1  UNL     1      25.049   4.388  28.642  1.00  0.00     0.706 A
HETATM    2  N2  UNL     1      25.368   3.410  27.778  1.00  0.00    -0.019 N
ATOM      3  H2  UNL     1      25.849   3.545  26.888  1.00  0.00     0.203 HD
HETATM    4  C2  UNL     1      24.953   2.216  28.269  1.00  0.00     0.727 A
HETATM    5  N3  UNL     1      25.026   0.946  27.805  1.00  0.00    -0.138 N
ATOM      6  H3  UNL     1      25.473   0.777  26.904  1.00  0.00     0.189 HD
HETATM    7  C3  UNL     1      24.529  -0.102  28.489  1.00  0.00     0.342 A
HETATM    8  O1  UNL     1      24.610  -1.279  28.032  1.00  0.00    -0.246 OA
HETATM    9  N4  UNL     1      23.949   0.171  29.672  1.00  0.00    -0.258 N
ATOM     10  H4  UNL     1      23.560  -0.598  30.218  1.00  0.00     0.175 HD
HETATM   11  C4  UNL     1      23.860   1.423  30.162  1.00  0.00     0.365 A
HETATM   12  O2  UNL     1      23.319   1.631  31.254  1.00  0.00    -0.244 OA
HETATM   13  N5  UNL     1      24.369   2.468  29.455  1.00  0.00    -0.016 N
HETATM   14  N6  UNL     1      24.432   3.774  29.667  1.00  0.00    -0.106 N
ATOM     15  H6  UNL     1      24.066   4.246  30.493  1.00  0.00     0.207 HD
ENDROOT
BRANCH   1  16
HETATM   16  N1  UNL     1      25.260   5.666  28.563  1.00  0.00    -0.233 N
ATOM     17  H12 UNL     1      25.977   6.171  29.083  1.00  0.00     0.174 HD
ATOM     18  H11 UNL     1      24.782   6.371  28.003  1.00  0.00     0.174 HD
ENDBRANCH   1  16
TORSDOF 1
ENDMDL