MODEL 3
REMARK VINA RESULT: -5.141611789      1.968      4.855
REMARK  3 active torsions:
REMARK  status: ('A' for Active; 'I' for Inactive)
REMARK    1  A    between atoms: N1_1  and  N2_4
REMARK    2  A    between atoms: C3_9  and  N4_10
REMARK    3  A    between atoms: N4_10  and  C4_12
ROOT
HETATM    1  N2  UNL     1      25.052   4.784  29.903  1.00  0.00    -0.129 N
HETATM    2  C1  UNL     1      24.306   5.304  31.026  1.00  0.00     0.187 C
HETATM    3  C2  UNL     1      24.160   4.052  31.857  1.00  0.00     0.160 C
HETATM    4  N3  UNL     1      24.044   3.040  30.841  1.00  0.00    -0.223 N
ATOM      5  H3  UNL     1      23.621   2.122  30.975  1.00  0.00     0.177 HD
HETATM    6  C3  UNL     1      24.555   3.465  29.735  1.00  0.00     0.697 C
ENDROOT
BRANCH   6   7
HETATM    7  N4  UNL     1      24.635   2.747  28.485  1.00  0.00    -0.160 N
ATOM      8  H4  UNL     1      24.852   3.253  27.627  1.00  0.00     0.187 HD
BRANCH   7   9
HETATM    9  C4  UNL     1      24.412   1.330  28.433  1.00  0.00     0.190 C
HETATM   10  N5  UNL     1      25.064   0.498  27.703  1.00  0.00    -0.360 N
HETATM   11  C5  UNL     1      24.612  -0.853  27.867  1.00  0.00     0.142 C
ATOM     12  H5  UNL     1      25.820   0.769  27.075  1.00  0.00     0.162 HD
HETATM   13  C6  UNL     1      23.635  -0.796  29.024  1.00  0.00     0.142 C
HETATM   14  N6  UNL     1      23.443   0.625  29.175  1.00  0.00    -0.360 N
ATOM     15  H6  UNL     1      22.711   1.058  29.737  1.00  0.00     0.162 HD
ENDBRANCH   7   9
ENDBRANCH   6   7
BRANCH   1  16
HETATM   16  N1  UNL     1      26.021   5.458  29.187  1.00  0.00    -0.329 N
ATOM     17  H12 UNL     1      26.554   5.157  28.370  1.00  0.00     0.177 HD
ATOM     18  H11 UNL     1      26.363   6.400  29.376  1.00  0.00     0.177 HD
ENDBRANCH   1  16
TORSDOF 3
ENDMDL