MODEL 1
REMARK VINA RESULT: -5.369087758      0.000      0.000
REMARK  0 active torsions:
REMARK  status: ('A' for Active; 'I' for Inactive)
ROOT
HETATM    1  N1  UNL     1      25.052   5.851  31.095  1.00  0.00    -0.373 N
ATOM      2  H11 UNL     1      25.720   6.503  30.687  1.00  0.00     0.158 HD
ATOM      3  H12 UNL     1      24.568   6.202  31.921  1.00  0.00     0.158 HD
HETATM    4  C1  UNL     1      24.849   4.695  30.599  1.00  0.00     0.232 C
HETATM    5  N2  UNL     1      23.919   3.787  31.168  1.00  0.00    -0.274 N
ATOM      6  H2  UNL     1      23.276   4.170  31.861  1.00  0.00     0.189 HD
HETATM    7  N3  UNL     1      23.791   2.461  30.889  1.00  0.00    -0.293 N
ATOM      8  H3  UNL     1      23.214   1.857  31.477  1.00  0.00     0.187 HD
HETATM    9  C2  UNL     1      24.468   1.943  29.779  1.00  0.00     0.208 C
HETATM   10  N4  UNL     1      24.605   2.809  28.646  1.00  0.00    -0.273 N
ATOM     11  H4  UNL     1      24.169   2.705  27.730  1.00  0.00     0.179 HD
HETATM   12  S1  UNL     1      25.684   4.087  29.172  1.00  0.00     0.296 S
HETATM   13  O1  UNL     1      25.839   5.127  28.127  1.00  0.00    -0.197 OA
HETATM   14  O2  UNL     1      26.964   3.473  29.610  1.00  0.00    -0.197 OA
ENDROOT
TORSDOF 0
ENDMDL