MODEL 1
REMARK VINA RESULT: -6.457705818      0.000      0.000
REMARK  2 active torsions:
REMARK  status: ('A' for Active; 'I' for Inactive)
REMARK    1  A    between atoms: N1_1  and  C1_4
REMARK    2  A    between atoms: N4_13  and  N5_14
ROOT
HETATM    1  C1  UNL     1      24.945   4.680  29.180  1.00  0.00     0.680 A
HETATM    2  N2  UNL     1      24.460   4.952  30.404  1.00  0.00    -0.154 N
ATOM      3  H2  UNL     1      24.472   5.898  30.786  1.00  0.00     0.187 HD
HETATM    4  C2  UNL     1      23.958   3.916  31.099  1.00  0.00     0.290 A
HETATM    5  O1  UNL     1      23.496   4.135  32.248  1.00  0.00    -0.265 OA
HETATM    6  C3  UNL     1      23.939   2.636  30.587  1.00  0.00     0.149 A
HETATM    7  N3  UNL     1      23.506   1.429  31.049  1.00  0.00    -0.343 N
ATOM      8  H3  UNL     1      23.075   1.256  31.957  1.00  0.00     0.167 HD
HETATM    9  C4  UNL     1      23.747   0.504  30.100  1.00  0.00     0.208 A
HETATM   10  N4  UNL     1      24.323   1.066  29.030  1.00  0.00    -0.239 N
HETATM   11  C5  UNL     1      24.443   2.377  29.325  1.00  0.00     0.175 A
HETATM   12  N6  UNL     1      24.941   3.446  28.655  1.00  0.00    -0.172 N
ATOM     13  H6  UNL     1      25.324   3.307  27.721  1.00  0.00     0.186 HD
ENDROOT
BRANCH   1  14
HETATM   14  N1  UNL     1      25.429   5.670  28.506  1.00  0.00    -0.234 N
ATOM     15  H12 UNL     1      25.021   6.600  28.597  1.00  0.00     0.174 HD
ATOM     16  H11 UNL     1      26.221   5.472  27.895  1.00  0.00     0.174 HD
ENDBRANCH   1  14
BRANCH  10  17
HETATM   17  N5  UNL     1      24.722   0.431  27.844  1.00  0.00    -0.336 N
ATOM     18  H52 UNL     1      24.396   0.638  26.900  1.00  0.00     0.177 HD
ATOM     19  H51 UNL     1      25.393  -0.331  27.745  1.00  0.00     0.177 HD
ENDBRANCH  10  17
TORSDOF 2
ENDMDL