MODEL 4
REMARK VINA RESULT: -6.192127917      1.364      3.733
REMARK  2 active torsions:
REMARK  status: ('A' for Active; 'I' for Inactive)
REMARK    1  A    between atoms: C4_8  and  N4_9
REMARK    2  A    between atoms: N6_15  and  O1_17
ROOT
HETATM    1  N1  UNL     1      24.269   0.671  28.361  1.00  0.00    -0.191 NA
HETATM    2  C1  UNL     1      24.430   1.689  28.886  1.00  0.00     0.107 C
HETATM    3  C2  UNL     1      24.619   2.952  29.568  1.00  0.00     0.132 A
HETATM    4  C3  UNL     1      24.162   3.105  30.876  1.00  0.00     0.156 A
HETATM    5  N2  UNL     1      23.525   1.983  31.468  1.00  0.00    -0.080 NA
HETATM    6  N3  UNL     1      24.329   4.270  31.525  1.00  0.00    -0.177 N
ATOM      7  H3  UNL     1      23.987   4.358  32.482  1.00  0.00     0.185 HD
HETATM    8  C4  UNL     1      24.934   5.324  30.948  1.00  0.00     0.678 A
HETATM    9  N5  UNL     1      25.382   5.203  29.692  1.00  0.00    -0.174 N
ATOM     10  H5  UNL     1      25.842   5.999  29.248  1.00  0.00     0.186 HD
HETATM   11  C5  UNL     1      25.237   4.037  28.988  1.00  0.00     0.164 A
HETATM   12  N6  UNL     1      25.675   3.955  27.794  1.00  0.00    -0.251 N
ATOM     13  H6  UNL     1      26.121   4.795  27.426  1.00  0.00     0.196 HD
ENDROOT
BRANCH  12  14
HETATM   14  O1  UNL     1      25.625   2.900  26.952  1.00  0.00    -0.288 OA
ATOM     15  H1  UNL     1      26.179   2.716  26.203  1.00  0.00     0.244 HD
ENDBRANCH  12  14
BRANCH   8  16
HETATM   16  N4  UNL     1      25.079   6.443  31.610  1.00  0.00    -0.234 N
ATOM     17  H42 UNL     1      24.785   7.334  31.207  1.00  0.00     0.174 HD
ATOM     18  H41 UNL     1      25.490   6.438  32.543  1.00  0.00     0.174 HD
ENDBRANCH   8  16
TORSDOF 2
ENDMDL