MODEL 5
REMARK VINA RESULT: -5.221601561      0.886      3.484
REMARK  0 active torsions:
REMARK  status: ('A' for Active; 'I' for Inactive)
ROOT
HETATM    1  C1  UNL     1      25.420   1.832  28.445  1.00  0.00     0.138 C
HETATM    2  C2  UNL     1      25.662   3.256  27.956  1.00  0.00     0.133 C
HETATM    3  N1  UNL     1      26.658   3.976  28.649  1.00  0.00    -0.418 N
ATOM      4  H1  UNL     1      27.649   3.764  28.527  1.00  0.00     0.153 HD
HETATM    5  C3  UNL     1      26.214   5.033  29.547  1.00  0.00     0.141 C
HETATM    6  C4  UNL     1      25.207   4.378  30.379  1.00  0.00     0.253 C
HETATM    7  N2  UNL     1      24.755   4.963  31.602  1.00  0.00    -0.058 N
ATOM      8  H21 UNL     1      24.318   5.881  31.517  1.00  0.00     0.279 HD
ATOM      9  H22 UNL     1      25.488   5.275  32.239  1.00  0.00     0.279 HD
HETATM   10  C5  UNL     1      23.882   3.883  32.112  1.00  0.00     0.350 C
HETATM   11  N3  UNL     1      23.323   3.057  31.104  1.00  0.00    -0.396 N
ATOM     12  H3  UNL     1      22.709   3.428  30.381  1.00  0.00     0.155 HD
HETATM   13  C6  UNL     1      23.675   1.657  31.163  1.00  0.00     0.159 C
HETATM   14  C7  UNL     1      23.658   0.933  29.881  1.00  0.00     0.074 C
HETATM   15  N4  UNL     1      24.053   1.544  28.700  1.00  0.00    -0.399 N
ATOM     16  H4  UNL     1      23.351   1.791  28.003  1.00  0.00     0.158 HD
ENDROOT
TORSDOF 0
ENDMDL