MODEL 2
REMARK VINA RESULT: -5.901768784      1.405      1.446
REMARK  1 active torsions:
REMARK  status: ('A' for Active; 'I' for Inactive)
REMARK    1  A    between atoms: N1_1  and  N2_4
REMARK       I    between atoms: N2_4  and  C1_6
REMARK       I    between atoms: C1_6  and  N3_8
ROOT
HETATM    1  N2  UNL     1      24.193   0.859  29.503  1.00  0.00    -0.256 N
ATOM      2  H2  UNL     1      23.641   1.189  30.295  1.00  0.00     0.191 HD
HETATM    3  C1  UNL     1      24.982   1.789  28.771  1.00  0.00     0.364 C
HETATM    4  O1  UNL     1      25.678   1.441  27.791  1.00  0.00    -0.243 OA
HETATM    5  N3  UNL     1      24.985   3.165  29.159  1.00  0.00    -0.148 N
HETATM    6  N4  UNL     1      24.317   3.732  30.165  1.00  0.00    -0.236 N
ATOM      7  H4  UNL     1      23.698   3.239  30.809  1.00  0.00     0.192 HD
HETATM    8  C2  UNL     1      24.583   5.049  30.205  1.00  0.00     0.343 A
HETATM    9  O2  UNL     1      24.117   5.875  31.029  1.00  0.00    -0.245 OA
HETATM   10  N5  UNL     1      25.434   5.337  29.210  1.00  0.00    -0.258 N
ATOM     11  H5  UNL     1      25.824   6.250  28.978  1.00  0.00     0.175 HD
HETATM   12  C3  UNL     1      25.668   4.167  28.581  1.00  0.00     0.353 A
HETATM   13  O3  UNL     1      26.428   4.018  27.577  1.00  0.00    -0.244 OA
ENDROOT
BRANCH   1  14
HETATM   14  N1  UNL     1      24.157  -0.486  29.165  1.00  0.00    -0.341 N
ATOM     15  H12 UNL     1      23.359  -1.040  29.474  1.00  0.00     0.177 HD
ATOM     16  H11 UNL     1      24.904  -0.919  28.621  1.00  0.00     0.177 HD
ENDBRANCH   1  14
TORSDOF 1
ENDMDL