MODEL 4
REMARK VINA RESULT: -6.233997139      2.014      3.985
REMARK  0 active torsions:
REMARK  status: ('A' for Active; 'I' for Inactive)
ROOT
HETATM    1  N1  UNL     1      23.622   4.397  32.211  1.00  0.00    -0.081 NA
HETATM    2  C1  UNL     1      23.907   3.418  31.213  1.00  0.00     0.135 A
HETATM    3  C2  UNL     1      23.464   2.107  31.156  1.00  0.00     0.097 A
HETATM    4  C3  UNL     1      23.970   1.493  30.024  1.00  0.00     0.139 A
HETATM    5  N2  UNL     1      23.841   0.247  29.518  1.00  0.00    -0.293 N
ATOM      6  H2  UNL     1      23.272  -0.442  30.009  1.00  0.00     0.172 HD
HETATM    7  C4  UNL     1      24.460  -0.092  28.367  1.00  0.00     0.329 A
HETATM    8  O1  UNL     1      24.354  -1.253  27.872  1.00  0.00    -0.246 OA
HETATM    9  N3  UNL     1      25.198   0.850  27.758  1.00  0.00    -0.259 N
ATOM     10  H3  UNL     1      25.677   0.623  26.886  1.00  0.00     0.175 HD
HETATM   11  C5  UNL     1      25.320   2.089  28.272  1.00  0.00     0.351 A
HETATM   12  O2  UNL     1      26.022   2.940  27.669  1.00  0.00    -0.244 OA
HETATM   13  N4  UNL     1      24.709   2.438  29.416  1.00  0.00    -0.187 N
HETATM   14  N5  UNL     1      24.672   3.573  30.116  1.00  0.00    -0.275 N
ATOM     15  H5  UNL     1      25.154   4.435  29.858  1.00  0.00     0.189 HD
ENDROOT
TORSDOF 0
ENDMDL