MODEL 3
REMARK VINA RESULT: -6.710901142      0.989      2.446
REMARK  7 active torsions:
REMARK  status: ('A' for Active; 'I' for Inactive)
REMARK    1  A    between atoms: C2_2  and  C3_3
REMARK    2  A    between atoms: C3_3  and  C4_4
REMARK    3  A    between atoms: C4_4  and  O1_5
REMARK    4  A    between atoms: C4_4  and  C5_7
REMARK    5  A    between atoms: C5_7  and  O2_8
REMARK    6  A    between atoms: O2_8  and  C6_9
REMARK    7  A    between atoms: C6_9  and  C7_10
ROOT
HETATM    1  C6  UNL     1     -13.225  10.440 -20.200  1.00  0.00     0.206 C
ENDROOT
BRANCH   1   2
HETATM    2  O2  UNL     1     -12.284  11.427 -20.160  1.00  0.00    -0.384 OA
BRANCH   2   3
HETATM    3  C5  UNL     1     -11.025  10.985 -19.934  1.00  0.00     0.199 C
BRANCH   3   4
HETATM    4  C4  UNL     1     -10.159  11.962 -19.156  1.00  0.00     0.142 C
BRANCH   4   5
HETATM    5  C3  UNL     1      -9.679  11.313 -17.879  1.00  0.00     0.033 C
BRANCH   5   6
HETATM    6  C2  UNL     1      -8.418  10.562 -18.072  1.00  0.00    -0.002 C
HETATM    7  C1  UNL     1      -7.240  11.357 -17.637  1.00  0.00     0.005 C
ENDBRANCH   5   6
ENDBRANCH   4   5
BRANCH   4   8
HETATM    8  O1  UNL     1     -10.917  13.128 -18.914  1.00  0.00    -0.393 OA
ATOM      9  H1  UNL     1     -11.659  13.205 -19.502  1.00  0.00     0.210 HD
ENDBRANCH   4   8
ENDBRANCH   3   4
ENDBRANCH   2   3
ENDBRANCH   1   2
BRANCH   1  10
HETATM   10  C7  UNL     1     -13.670  10.251 -21.607  1.00  0.00    -0.034 A
HETATM   11  C8  UNL     1     -13.382   9.100 -22.292  1.00  0.00     0.016 A
HETATM   12  C9  UNL     1     -13.808   8.951 -23.600  1.00  0.00    -0.061 A
HETATM   13  C10 UNL     1     -13.474   7.688 -24.309  1.00  0.00     0.048 C
HETATM   14  C11 UNL     1     -14.526   9.978 -24.199  1.00  0.00     0.013 A
HETATM   15  C12 UNL     1     -14.824  11.140 -23.523  1.00  0.00    -0.061 A
HETATM   16  C13 UNL     1     -15.590  12.261 -24.130  1.00  0.00     0.048 C
HETATM   17  C14 UNL     1     -14.395  11.279 -22.222  1.00  0.00     0.016 A
ENDBRANCH   1  10
TORSDOF 7
ENDMDL