MODEL 5
REMARK VINA RESULT: -7.417883140      1.178      1.570
REMARK  7 active torsions:
REMARK  status: ('A' for Active; 'I' for Inactive)
REMARK    1  A    between atoms: C2_2  and  C3_3
REMARK    2  A    between atoms: C3_3  and  C4_4
REMARK    3  A    between atoms: C4_4  and  O1_5
REMARK    4  A    between atoms: O1_5  and  C5_6
REMARK    5  A    between atoms: C8_9  and  C9_10
REMARK    6  A    between atoms: C9_10  and  C11_12
REMARK    7  A    between atoms: C11_12  and  O2_14
ROOT
HETATM    1  C5  UNL     1     -11.651  11.541 -19.480  1.00  0.00     0.121 C
HETATM    2  C6  UNL     1     -13.112  11.236 -19.228  1.00  0.00     0.032 C
HETATM    3  C7  UNL     1     -13.354   9.900 -19.943  1.00  0.00     0.007 C
HETATM    4  C8  UNL     1     -13.138  10.099 -21.422  1.00  0.00    -0.008 C
HETATM    5  C13 UNL     1     -12.551  11.405 -21.792  1.00  0.00     0.007 C
HETATM    6  C14 UNL     1     -11.516  11.974 -20.895  1.00  0.00     0.032 C
ENDROOT
BRANCH   4   7
HETATM    7  C9  UNL     1     -14.487   9.905 -22.073  1.00  0.00     0.014 C
HETATM    8  C10 UNL     1     -15.265  11.197 -22.183  1.00  0.00     0.013 C
BRANCH   7   9
HETATM    9  C11 UNL     1     -14.454   9.156 -23.362  1.00  0.00     0.118 C
HETATM   10  C12 UNL     1     -14.562  10.201 -24.483  1.00  0.00     0.040 C
BRANCH   9  11
HETATM   11  O2  UNL     1     -13.214   8.538 -23.589  1.00  0.00    -0.396 OA
ATOM     12  H2  UNL     1     -12.759   8.334 -22.780  1.00  0.00     0.210 HD
ENDBRANCH   9  11
ENDBRANCH   7   9
ENDBRANCH   4   7
BRANCH   1  13
HETATM   13  O1  UNL     1     -11.133  12.436 -18.562  1.00  0.00    -0.386 OA
BRANCH  13  14
HETATM   14  C4  UNL     1     -10.606  11.827 -17.433  1.00  0.00     0.168 C
BRANCH  14  15
HETATM   15  C3  UNL     1      -9.130  11.550 -17.747  1.00  0.00     0.026 C
BRANCH  15  16
HETATM   16  C2  UNL     1      -8.386  12.813 -17.287  1.00  0.00    -0.002 C
HETATM   17  C1  UNL     1      -6.962  12.459 -17.027  1.00  0.00     0.005 C
ENDBRANCH  15  16
ENDBRANCH  14  15
ENDBRANCH  13  14
ENDBRANCH   1  13
TORSDOF 7
ENDMDL