MODEL 2
REMARK VINA RESULT: -7.386814019      2.160      7.490
REMARK  9 active torsions:
REMARK  status: ('A' for Active; 'I' for Inactive)
REMARK    1  A    between atoms: C2_2  and  C3_3
REMARK    2  A    between atoms: C3_3  and  C4_4
REMARK    3  A    between atoms: C4_4  and  O1_5
REMARK    4  A    between atoms: O1_5  and  C5_6
REMARK    5  A    between atoms: C5_6  and  C6_7
REMARK    6  A    between atoms: C10_11  and  C11_12
REMARK    7  A    between atoms: C11_12  and  C12_13
REMARK    8  A    between atoms: C12_13  and  C13_14
REMARK    9  A    between atoms: C13_14  and  O2_15
ROOT
HETATM    1  C6  UNL     1     -10.801  11.683 -19.527  1.00  0.00    -0.034 A
HETATM    2  C7  UNL     1     -11.442  11.888 -18.321  1.00  0.00     0.009 A
HETATM    3  C8  UNL     1     -10.716  12.013 -17.133  1.00  0.00     0.001 A
HETATM    4  C9  UNL     1      -9.353  11.937 -17.122  1.00  0.00     0.007 A
HETATM    5  C10 UNL     1      -8.698  11.733 -18.318  1.00  0.00    -0.058 A
HETATM    6  C14 UNL     1      -9.425  11.612 -19.486  1.00  0.00     0.016 A
ENDROOT
BRANCH   1   7
HETATM    7  C5  UNL     1     -11.578  11.552 -20.785  1.00  0.00     0.206 C
BRANCH   7   8
HETATM    8  O1  UNL     1     -11.767  10.241 -21.170  1.00  0.00    -0.387 OA
BRANCH   8   9
HETATM    9  C4  UNL     1     -13.117   9.950 -21.043  1.00  0.00     0.168 C
BRANCH   9  10
HETATM   10  C3  UNL     1     -13.975  11.156 -21.454  1.00  0.00     0.026 C
BRANCH  10  11
HETATM   11  C2  UNL     1     -15.156  10.728 -22.266  1.00  0.00    -0.002 C
HETATM   12  C1  UNL     1     -15.027  11.087 -23.723  1.00  0.00     0.005 C
ENDBRANCH  10  11
ENDBRANCH   9  10
ENDBRANCH   8   9
ENDBRANCH   7   8
ENDBRANCH   1   7
BRANCH   5  13
HETATM   13  C11 UNL     1      -7.221  11.650 -18.317  1.00  0.00     0.041 C
BRANCH  13  14
HETATM   14  C12 UNL     1      -6.586  12.304 -17.113  1.00  0.00     0.030 C
BRANCH  14  15
HETATM   15  C13 UNL     1      -5.691  13.456 -17.474  1.00  0.00     0.164 C
BRANCH  15  16
HETATM   16  O2  UNL     1      -4.615  13.481 -16.558  1.00  0.00    -0.401 OA
ATOM     17  H2  UNL     1      -4.382  14.388 -16.400  1.00  0.00     0.209 HD
ENDBRANCH  15  16
ENDBRANCH  14  15
ENDBRANCH  13  14
ENDBRANCH   5  13
TORSDOF 9
ENDMDL