MODEL 5
REMARK VINA RESULT: -6.732023657      0.079      1.287
REMARK  5 active torsions:
REMARK  status: ('A' for Active; 'I' for Inactive)
REMARK    1  A    between atoms: C2_2  and  O1_4
REMARK    2  A    between atoms: O1_4  and  C4_5
REMARK    3  A    between atoms: C4_5  and  C5_7
REMARK    4  A    between atoms: C5_7  and  O3_8
REMARK    5  A    between atoms: O3_8  and  C6_9
ROOT
HETATM    1  C5  UNL     1     -11.232  11.577 -20.121  1.00  0.00     0.286 C
ENDROOT
BRANCH   1   2
HETATM    2  C4  UNL     1     -11.839  10.495 -20.969  1.00  0.00     0.283 C
HETATM    3  O2  UNL     1     -11.531   9.287 -20.802  1.00  0.00    -0.263 OA
BRANCH   2   4
HETATM    4  O1  UNL     1     -12.761  10.782 -21.965  1.00  0.00    -0.315 OA
BRANCH   4   5
HETATM    5  C2  UNL     1     -13.871   9.923 -22.144  1.00  0.00     0.123 C
HETATM    6  C1  UNL     1     -15.107  10.831 -22.137  1.00  0.00     0.040 C
HETATM    7  C3  UNL     1     -13.826   9.140 -23.409  1.00  0.00     0.040 C
ENDBRANCH   4   5
ENDBRANCH   2   4
ENDBRANCH   1   2
BRANCH   1   8
HETATM    8  O3  UNL     1     -10.826  10.982 -18.904  1.00  0.00    -0.342 OA
BRANCH   8   9
HETATM    9  C6  UNL     1      -9.627  11.388 -18.356  1.00  0.00     0.069 A
HETATM   10  C7  UNL     1      -8.611  10.554 -18.397  1.00  0.00     0.036 A
HETATM   11  C8  UNL     1      -7.318  10.946 -17.827  1.00  0.00     0.204 A
HETATM   12  O4  UNL     1      -7.245  12.206 -17.266  1.00  0.00    -0.359 OA
HETATM   13  C9  UNL     1      -8.327  13.059 -17.238  1.00  0.00     0.137 A
HETATM   14  C10 UNL     1      -9.475  12.699 -17.749  1.00  0.00     0.060 A
ENDBRANCH   8   9
ENDBRANCH   1   8
TORSDOF 5
ENDMDL