MODEL 1
REMARK VINA RESULT: -7.878918556      0.000      0.000
REMARK  9 active torsions:
REMARK  status: ('A' for Active; 'I' for Inactive)
REMARK    1  A    between atoms: C2_2  and  C3_3
REMARK    2  A    between atoms: C3_3  and  C4_4
REMARK    3  A    between atoms: C4_4  and  C5_5
REMARK    4  A    between atoms: C5_5  and  C6_6
REMARK    5  A    between atoms: C6_6  and  C7_7
REMARK    6  A    between atoms: C7_7  and  C8_8
REMARK    7  A    between atoms: C8_8  and  O1_9
REMARK    8  A    between atoms: O1_9  and  C9_10
REMARK    9  A    between atoms: C14_15  and  O2_16
ROOT
HETATM    1  O1  UNL     1     -13.329  10.689 -20.115  1.00  0.00    -0.348 OA
ENDROOT
BRANCH   1   2
HETATM    2  C8  UNL     1     -12.718  11.807 -19.605  1.00  0.00     0.176 C
BRANCH   2   3
HETATM    3  C7  UNL     1     -11.462  12.140 -20.368  1.00  0.00     0.027 C
BRANCH   3   4
HETATM    4  C6  UNL     1     -10.307  11.722 -19.456  1.00  0.00     0.002 C
BRANCH   4   5
HETATM    5  C5  UNL     1     -10.648  12.024 -18.002  1.00  0.00     0.000 C
BRANCH   5   6
HETATM    6  C4  UNL     1      -9.313  12.358 -17.330  1.00  0.00     0.000 C
BRANCH   6   7
HETATM    7  C3  UNL     1      -8.307  11.359 -17.848  1.00  0.00    -0.000 C
BRANCH   7   8
HETATM    8  C2  UNL     1      -6.914  11.826 -17.426  1.00  0.00    -0.005 C
HETATM    9  C1  UNL     1      -7.108  13.012 -16.505  1.00  0.00     0.005 C
ENDBRANCH   7   8
ENDBRANCH   6   7
ENDBRANCH   5   6
ENDBRANCH   4   5
ENDBRANCH   3   4
ENDBRANCH   2   3
ENDBRANCH   1   2
BRANCH   1  10
HETATM   10  C9  UNL     1     -13.778  10.484 -21.391  1.00  0.00     0.101 A
HETATM   11  C10 UNL     1     -14.780  11.178 -22.028  1.00  0.00     0.039 A
HETATM   12  C11 UNL     1     -15.181  10.894 -23.341  1.00  0.00     0.003 A
HETATM   13  C12 UNL     1     -14.582   9.895 -24.068  1.00  0.00     0.003 A
HETATM   14  C13 UNL     1     -13.576   9.191 -23.447  1.00  0.00     0.039 A
HETATM   15  C14 UNL     1     -13.179   9.462 -22.164  1.00  0.00     0.099 A
BRANCH  15  16
HETATM   16  O2  UNL     1     -12.160   8.751 -21.532  1.00  0.00    -0.358 OA
ATOM     17  H2  UNL     1     -12.020   7.867 -21.851  1.00  0.00     0.217 HD
ENDBRANCH  15  16
ENDBRANCH   1  10
TORSDOF 9
ENDMDL