MODEL 5
REMARK VINA RESULT: -5.083622899      7.075      9.642
REMARK  5 active torsions:
REMARK  status: ('A' for Active; 'I' for Inactive)
REMARK    1  A    between atoms: C2_2  and  C3_3
REMARK    2  A    between atoms: C3_3  and  C6_6
REMARK    3  A    between atoms: C6_6  and  C7_7
REMARK    4  A    between atoms: C7_7  and  C8_8
REMARK    5  A    between atoms: C8_8  and  O2_10
ROOT
HETATM    1  C7  UNL     1     -12.468  10.957 -21.310  1.00  0.00     0.052 C
HETATM    2  C10 UNL     1     -13.664  11.574 -20.669  1.00  0.00     0.020 C
HETATM    3  C11 UNL     1     -13.371  12.440 -19.476  1.00  0.00     0.001 C
HETATM    4  C12 UNL     1     -12.272  11.795 -18.635  1.00  0.00     0.000 C
HETATM    5  C13 UNL     1     -11.026  11.710 -19.437  1.00  0.00     0.001 C
HETATM    6  C14 UNL     1     -11.187  11.595 -20.925  1.00  0.00     0.020 C
ENDROOT
BRANCH   1   7
HETATM    7  C6  UNL     1     -12.634  10.763 -22.789  1.00  0.00     0.058 C
BRANCH   7   8
HETATM    8  C3  UNL     1     -13.669   9.907 -23.294  1.00  0.00    -0.062 C
HETATM    9  C4  UNL     1     -13.581   8.691 -23.719  1.00  0.00    -0.024 C
HETATM   10  C5  UNL     1     -14.794   7.968 -24.185  1.00  0.00     0.036 C
BRANCH   8  11
HETATM   11  C2  UNL     1     -15.041  10.506 -23.311  1.00  0.00    -0.004 C
HETATM   12  C1  UNL     1     -15.324  11.592 -23.987  1.00  0.00     0.012 C
ENDBRANCH   8  11
ENDBRANCH   7   8
ENDBRANCH   1   7
BRANCH   1  13
HETATM   13  C8  UNL     1     -12.407   9.535 -20.774  1.00  0.00     0.267 C
HETATM   14  O1  UNL     1     -11.425   8.828 -20.965  1.00  0.00    -0.264 OA
BRANCH  13  15
HETATM   15  O2  UNL     1     -13.501   9.087 -20.069  1.00  0.00    -0.326 OA
HETATM   16  C9  UNL     1     -13.402   8.423 -18.823  1.00  0.00     0.213 C
ENDBRANCH  13  15
ENDBRANCH   1  13
TORSDOF 5
ENDMDL