MODEL 2
REMARK VINA RESULT: -7.626234488      1.232      2.061
REMARK  5 active torsions:
REMARK  status: ('A' for Active; 'I' for Inactive)
REMARK    1  A    between atoms: C3_3  and  C4_4
REMARK    2  A    between atoms: C4_4  and  C5_5
REMARK    3  A    between atoms: C8_8  and  C9_9
REMARK    4  A    between atoms: C9_9  and  O2_11
REMARK    5  A    between atoms: O2_11  and  C10_12
ROOT
HETATM    1  C5  UNL     1     -10.605  11.152 -19.449  1.00  0.00    -0.011 C
HETATM    2  C6  UNL     1     -10.947   9.807 -19.938  1.00  0.00     0.006 C
HETATM    3  C7  UNL     1     -12.232   9.681 -20.688  1.00  0.00     0.015 C
HETATM    4  C8  UNL     1     -12.851  11.019 -21.038  1.00  0.00     0.085 C
HETATM    5  C13 UNL     1     -13.053  11.708 -19.706  1.00  0.00     0.015 C
HETATM    6  C14 UNL     1     -11.736  12.067 -19.136  1.00  0.00     0.006 C
ENDROOT
BRANCH   4   7
HETATM    7  C9  UNL     1     -14.132  10.749 -21.724  1.00  0.00     0.263 C
HETATM    8  O1  UNL     1     -15.052  11.589 -21.644  1.00  0.00    -0.265 OA
BRANCH   7   9
HETATM    9  O2  UNL     1     -14.284   9.589 -22.432  1.00  0.00    -0.317 OA
BRANCH   9  10
HETATM   10  C10 UNL     1     -13.906   9.441 -23.791  1.00  0.00     0.123 C
HETATM   11  C11 UNL     1     -14.687  10.464 -24.588  1.00  0.00     0.040 C
HETATM   12  C12 UNL     1     -14.260   8.024 -24.198  1.00  0.00     0.040 C
ENDBRANCH   9  10
ENDBRANCH   7   9
ENDBRANCH   4   7
BRANCH   1  13
HETATM   13  C4  UNL     1      -9.690  11.130 -18.227  1.00  0.00     0.031 C
BRANCH  13  14
HETATM   14  C3  UNL     1      -9.080  12.438 -17.935  1.00  0.00    -0.031 C
HETATM   15  C2  UNL     1      -7.908  12.575 -17.308  1.00  0.00    -0.035 C
HETATM   16  C1  UNL     1      -7.354  13.923 -17.047  1.00  0.00     0.036 C
ENDBRANCH  13  14
ENDBRANCH   1  13
TORSDOF 5
ENDMDL