MODEL 3
REMARK VINA RESULT: -6.533135449      1.149      2.445
REMARK  7 active torsions:
REMARK  status: ('A' for Active; 'I' for Inactive)
REMARK    1  A    between atoms: C2_2  and  C3_3
REMARK    2  A    between atoms: C3_3  and  C4_4
REMARK    3  A    between atoms: C4_4  and  C5_5
REMARK    4  A    between atoms: C5_5  and  O1_6
REMARK    5  A    between atoms: C5_5  and  C6_8
REMARK    6  A    between atoms: C6_8  and  O2_9
REMARK    7  A    between atoms: O2_9  and  C7_10
ROOT
HETATM    1  O2  UNL     1     -11.622  10.030 -20.400  1.00  0.00    -0.349 OA
ENDROOT
BRANCH   1   2
HETATM    2  C6  UNL     1     -11.610  10.881 -19.320  1.00  0.00     0.207 C
BRANCH   2   3
HETATM    3  C5  UNL     1     -10.446  11.823 -19.361  1.00  0.00     0.142 C
BRANCH   3   4
HETATM    4  C4  UNL     1      -9.315  11.495 -18.443  1.00  0.00     0.037 C
BRANCH   4   5
HETATM    5  C3  UNL     1      -9.290  12.366 -17.233  1.00  0.00     0.029 C
BRANCH   5   6
HETATM    6  C2  UNL     1      -7.875  12.846 -17.023  1.00  0.00    -0.037 C
HETATM    7  C1  UNL     1      -6.877  12.089 -17.378  1.00  0.00     0.007 C
ENDBRANCH   5   6
ENDBRANCH   4   5
ENDBRANCH   3   4
BRANCH   3   8
HETATM    8  O1  UNL     1     -10.967  13.108 -18.988  1.00  0.00    -0.393 OA
ATOM      9  H1  UNL     1     -11.340  13.512 -19.763  1.00  0.00     0.210 HD
ENDBRANCH   3   8
ENDBRANCH   2   3
ENDBRANCH   1   2
BRANCH   1  10
HETATM   10  C7  UNL     1     -12.628   9.888 -21.328  1.00  0.00     0.069 A
HETATM   11  C8  UNL     1     -13.686  10.768 -21.260  1.00  0.00     0.043 A
HETATM   12  C9  UNL     1     -14.752  10.723 -22.135  1.00  0.00    -0.059 A
HETATM   13  C10 UNL     1     -15.879  11.706 -22.014  1.00  0.00     0.048 C
HETATM   14  C11 UNL     1     -14.735   9.750 -23.114  1.00  0.00     0.013 A
HETATM   15  C12 UNL     1     -13.702   8.845 -23.230  1.00  0.00    -0.059 A
HETATM   16  C13 UNL     1     -13.736   7.818 -24.305  1.00  0.00     0.048 C
HETATM   17  C14 UNL     1     -12.654   8.935 -22.322  1.00  0.00     0.043 A
ENDBRANCH   1  10
TORSDOF 7
ENDMDL