MODEL 2
REMARK VINA RESULT: -6.265572704      0.917      2.507
REMARK  6 active torsions:
REMARK  status: ('A' for Active; 'I' for Inactive)
REMARK    1  A    between atoms: C2_2  and  C3_3
REMARK    2  A    between atoms: C3_3  and  O1_4
REMARK    3  A    between atoms: O1_4  and  C4_5
REMARK    4  A    between atoms: C4_5  and  C5_6
REMARK    5  A    between atoms: C5_6  and  O2_7
REMARK    6  A    between atoms: O2_7  and  C6_8
ROOT
HETATM    1  C6  UNL     1     -13.669  10.813 -21.646  1.00  0.00     0.075 A
HETATM    2  C7  UNL     1     -14.462  11.656 -22.390  1.00  0.00     0.044 A
HETATM    3  C8  UNL     1     -14.950  11.343 -23.660  1.00  0.00    -0.059 A
HETATM    4  C9  UNL     1     -15.801  12.293 -24.420  1.00  0.00     0.048 C
HETATM    5  C10 UNL     1     -14.598  10.111 -24.162  1.00  0.00     0.014 A
HETATM    6  C11 UNL     1     -13.805   9.260 -23.423  1.00  0.00    -0.053 A
HETATM    7  C12 UNL     1     -13.456   7.942 -24.012  1.00  0.00     0.049 C
HETATM    8  C13 UNL     1     -13.322   9.555 -22.181  1.00  0.00    -0.023 A
HETATM    9  C14 UNL     1     -12.471   8.637 -21.391  1.00  0.00     0.052 C
ENDROOT
BRANCH   1  10
HETATM   10  O2  UNL     1     -13.197  11.113 -20.415  1.00  0.00    -0.348 OA
BRANCH  10  11
HETATM   11  C5  UNL     1     -12.408  12.110 -19.889  1.00  0.00     0.201 C
BRANCH  11  12
HETATM   12  C4  UNL     1     -10.984  11.958 -20.322  1.00  0.00     0.194 C
BRANCH  12  13
HETATM   13  O1  UNL     1     -10.097  11.783 -19.294  1.00  0.00    -0.389 OA
BRANCH  13  14
HETATM   14  C3  UNL     1     -10.595  11.755 -18.029  1.00  0.00     0.167 C
BRANCH  14  15
HETATM   15  C2  UNL     1      -9.660  12.125 -16.928  1.00  0.00     0.022 C
HETATM   16  C1  UNL     1      -8.474  12.930 -17.404  1.00  0.00     0.007 C
ENDBRANCH  14  15
ENDBRANCH  13  14
ENDBRANCH  12  13
ENDBRANCH  11  12
ENDBRANCH  10  11
ENDBRANCH   1  10
TORSDOF 6
ENDMDL