MODEL 5
REMARK VINA RESULT: -8.241853978      2.656      7.604
REMARK  3 active torsions:
REMARK  status: ('A' for Active; 'I' for Inactive)
REMARK    1  A    between atoms: N3_10  and  C5_11
REMARK    2  A    between atoms: C5_11  and  C6_12
REMARK    3  A    between atoms: C9_15  and  C10_16
ROOT
HETATM    1  C6  UNL     1      35.585 -49.545  -8.485  1.00  0.00    -0.038 A
HETATM    2  C7  UNL     1      36.091 -49.580  -9.768  1.00  0.00     0.010 A
HETATM    3  C8  UNL     1      35.333 -49.355 -10.881  1.00  0.00     0.013 A
HETATM    4  C9  UNL     1      33.995 -49.078 -10.758  1.00  0.00    -0.026 A
HETATM    5  C16 UNL     1      33.452 -49.034  -9.490  1.00  0.00     0.013 A
HETATM    6  C17 UNL     1      34.238 -49.265  -8.370  1.00  0.00     0.010 A
ENDROOT
BRANCH   1   7
HETATM    7  C5  UNL     1      36.455 -49.803  -7.327  1.00  0.00     0.187 C
BRANCH   7   8
HETATM    8  N3  UNL     1      36.939 -48.556  -6.724  1.00  0.00    -0.287 N
HETATM    9  C2  UNL     1      38.144 -47.879  -7.087  1.00  0.00     0.069 A
HETATM   10  C1  UNL     1      39.026 -48.228  -7.979  1.00  0.00     0.047 C
HETATM   11  C3  UNL     1      38.206 -46.679  -6.230  1.00  0.00     0.070 A
HETATM   12  N1  UNL     1      39.137 -45.790  -6.235  1.00  0.00    -0.396 N
HETATM   13  C4  UNL     1      37.002 -46.758  -5.418  1.00  0.00     0.138 A
ATOM     14  H12 UNL     1      39.981 -45.735  -6.804  1.00  0.00     0.156 HD
ATOM     15  H11 UNL     1      39.180 -44.960  -5.643  1.00  0.00     0.156 HD
HETATM   16  N2  UNL     1      36.327 -47.805  -5.718  1.00  0.00    -0.307 N
ATOM     17  H2  UNL     1      35.445 -48.060  -5.274  1.00  0.00     0.186 HD
ENDBRANCH   7   8
ENDBRANCH   1   7
BRANCH   4  18
HETATM   18  C10 UNL     1      33.159 -48.828 -11.943  1.00  0.00    -0.026 A
HETATM   19  C11 UNL     1      33.310 -49.522 -13.110  1.00  0.00     0.012 A
HETATM   20  C12 UNL     1      32.506 -49.263 -14.207  1.00  0.00     0.001 A
HETATM   21  C13 UNL     1      31.532 -48.275 -14.100  1.00  0.00     0.000 A
HETATM   22  C14 UNL     1      31.406 -47.593 -12.906  1.00  0.00     0.001 A
HETATM   23  C15 UNL     1      32.195 -47.842 -11.823  1.00  0.00     0.012 A
ENDBRANCH   4  18
TORSDOF 3
ENDMDL