MODEL 5
REMARK VINA RESULT: -8.123478325      1.282      5.550
REMARK  4 active torsions:
REMARK  status: ('A' for Active; 'I' for Inactive)
REMARK    1  A    between atoms: N1_5  and  C5_6
REMARK    2  A    between atoms: C5_6  and  C6_7
REMARK    3  A    between atoms: C6_7  and  C7_8
REMARK    4  A    between atoms: C14_17  and  N3_18
ROOT
HETATM    1  C1  UNL     1      35.586 -49.964 -10.920  1.00  0.00     0.018 C
HETATM    2  C2  UNL     1      36.111 -49.460  -9.955  1.00  0.00    -0.075 C
HETATM    3  C3  UNL     1      36.744 -48.876  -8.806  1.00  0.00     0.047 A
HETATM    4  C4  UNL     1      36.506 -49.072  -7.463  1.00  0.00     0.114 A
HETATM    5  N1  UNL     1      37.357 -48.298  -6.752  1.00  0.00    -0.340 N
HETATM    6  C13 UNL     1      38.154 -47.592  -7.583  1.00  0.00     0.136 A
HETATM    7  N2  UNL     1      39.139 -46.703  -7.338  1.00  0.00    -0.176 N
ATOM      8  H2  UNL     1      39.407 -46.450  -6.387  1.00  0.00     0.186 HD
HETATM    9  C14 UNL     1      39.751 -46.166  -8.409  1.00  0.00     0.677 A
HETATM   10  N4  UNL     1      39.401 -46.497  -9.668  1.00  0.00    -0.201 N
ATOM     11  H4  UNL     1      39.894 -46.065 -10.449  1.00  0.00     0.183 HD
HETATM   12  C15 UNL     1      38.425 -47.378  -9.921  1.00  0.00     0.123 A
HETATM   13  C16 UNL     1      37.768 -47.956  -8.865  1.00  0.00     0.045 A
ENDROOT
BRANCH   5  14
HETATM   14  C5  UNL     1      37.428 -48.217  -5.325  1.00  0.00     0.134 C
BRANCH  14  15
HETATM   15  C6  UNL     1      36.458 -47.170  -4.831  1.00  0.00     0.058 C
BRANCH  15  16
HETATM   16  C7  UNL     1      37.104 -45.830  -4.798  1.00  0.00    -0.057 A
HETATM   17  C8  UNL     1      38.205 -45.637  -4.005  1.00  0.00     0.007 A
HETATM   18  C9  UNL     1      38.848 -44.406  -3.937  1.00  0.00     0.001 A
HETATM   19  C10 UNL     1      38.367 -43.355  -4.683  1.00  0.00     0.000 A
HETATM   20  C11 UNL     1      37.270 -43.541  -5.476  1.00  0.00     0.001 A
HETATM   21  C12 UNL     1      36.646 -44.758  -5.536  1.00  0.00     0.007 A
ENDBRANCH  15  16
ENDBRANCH  14  15
ENDBRANCH   5  14
BRANCH   9  22
HETATM   22  N3  UNL     1      40.715 -45.296  -8.230  1.00  0.00    -0.234 N
ATOM     23  H32 UNL     1      40.492 -44.302  -8.268  1.00  0.00     0.174 HD
ATOM     24  H31 UNL     1      41.663 -45.629  -8.056  1.00  0.00     0.174 HD
ENDBRANCH   9  22
TORSDOF 4
ENDMDL