MODEL 2
REMARK VINA RESULT: -7.275244482      1.973      3.762
REMARK  4 active torsions:
REMARK  status: ('A' for Active; 'I' for Inactive)
REMARK    1  A    between atoms: C2_2  and  N1_3
REMARK    2  A    between atoms: C2_2  and  C3_7
REMARK    3  A    between atoms: C3_7  and  N2_8
REMARK    4  A    between atoms: N2_8  and  C4_11
ROOT
HETATM    1  C4  UNL     1      36.975 -45.332  -6.772  1.00  0.00     0.193 C
HETATM    2  C5  UNL     1      36.913 -46.295  -5.722  1.00  0.00     0.041 C
HETATM    3  C6  UNL     1      37.482 -47.701  -5.871  1.00  0.00     0.022 C
HETATM    4  C7  UNL     1      36.354 -48.629  -6.193  1.00  0.00     0.008 C
HETATM    5  C8  UNL     1      36.318 -48.588  -7.698  1.00  0.00     0.008 C
HETATM    6  C9  UNL     1      37.555 -47.831  -8.153  1.00  0.00     0.021 C
HETATM    7  C10 UNL     1      37.068 -46.584  -8.846  1.00  0.00     0.017 C
HETATM    8  C11 UNL     1      37.748 -45.504  -8.046  1.00  0.00     0.046 C
HETATM    9  C12 UNL     1      39.217 -45.772  -7.847  1.00  0.00     0.128 C
HETATM   10  C13 UNL     1      39.896 -46.666  -8.824  1.00  0.00     0.032 C
HETATM   11  C14 UNL     1      40.352 -47.991  -8.326  1.00  0.00     0.006 C
HETATM   12  C15 UNL     1      39.536 -48.618  -7.182  1.00  0.00     0.039 C
HETATM   13  C16 UNL     1      38.418 -47.661  -6.999  1.00  0.00     0.069 C
HETATM   14  O1  UNL     1      39.153 -46.525  -6.708  1.00  0.00    -0.374 OA
ENDROOT
BRANCH   1  15
HETATM   15  N2  UNL     1      37.432 -44.026  -6.254  1.00  0.00    -0.069 N
ATOM     16  H22 UNL     1      37.023 -43.251  -6.775  1.00  0.00     0.277 HD
ATOM     17  H21 UNL     1      38.414 -43.858  -6.471  1.00  0.00     0.277 HD
BRANCH  15  18
HETATM   18  C3  UNL     1      37.172 -43.913  -4.837  1.00  0.00     0.264 C
BRANCH  18  19
HETATM   19  C2  UNL     1      38.414 -43.532  -4.093  1.00  0.00     0.205 C
HETATM   20  C1  UNL     1      38.260 -44.008  -2.661  1.00  0.00     0.041 C
BRANCH  19  21
HETATM   21  N1  UNL     1      39.615 -44.076  -4.690  1.00  0.00    -0.074 N
ATOM     22  H13 UNL     1      40.440 -43.529  -4.443  1.00  0.00     0.274 HD
ATOM     23  H12 UNL     1      39.882 -44.961  -4.259  1.00  0.00     0.274 HD
ATOM     24  H11 UNL     1      39.508 -44.165  -5.701  1.00  0.00     0.274 HD
ENDBRANCH  19  21
ENDBRANCH  18  19
ENDBRANCH  15  18
ENDBRANCH   1  15
TORSDOF 4
ENDMDL