MODEL 4
REMARK VINA RESULT: -7.062582141      0.967      1.126
REMARK  5 active torsions:
REMARK  status: ('A' for Active; 'I' for Inactive)
REMARK    1  A    between atoms: N1_1  and  C1_5
REMARK    2  A    between atoms: C1_5  and  C2_6
REMARK    3  A    between atoms: C2_6  and  N2_7
REMARK    4  A    between atoms: N2_7  and  C3_9
REMARK    5  A    between atoms: C4_10  and  C5_11
ROOT
HETATM    1  C3  UNL     1      37.434 -46.759  -7.615  1.00  0.00     0.070 A
HETATM    2  C4  UNL     1      37.245 -46.807  -6.280  1.00  0.00     0.085 A
HETATM    3  N3  UNL     1      36.647 -47.915  -5.712  1.00  0.00    -0.297 N
ATOM      4  H3  UNL     1      36.513 -47.935  -4.701  1.00  0.00     0.187 HD
HETATM    5  N4  UNL     1      36.244 -48.943  -6.423  1.00  0.00    -0.299 N
ATOM      6  H4  UNL     1      35.811 -49.736  -5.949  1.00  0.00     0.187 HD
HETATM    7  C11 UNL     1      36.390 -48.977  -7.758  1.00  0.00     0.060 A
HETATM    8  C12 UNL     1      35.954 -50.068  -8.476  1.00  0.00     0.032 A
HETATM    9  C13 UNL     1      36.114 -50.078  -9.850  1.00  0.00     0.002 A
HETATM   10  C14 UNL     1      36.706 -48.997 -10.467  1.00  0.00     0.001 A
HETATM   11  C15 UNL     1      37.144 -47.894  -9.720  1.00  0.00     0.016 A
HETATM   12  C16 UNL     1      36.982 -47.893  -8.354  1.00  0.00     0.021 A
ENDROOT
BRANCH   1  13
HETATM   13  N2  UNL     1      37.994 -45.909  -8.273  1.00  0.00    -0.386 N
ATOM     14  H2  UNL     1      38.731 -46.430  -8.746  1.00  0.00     0.159 HD
BRANCH  13  15
HETATM   15  C2  UNL     1      38.174 -44.644  -8.722  1.00  0.00     0.147 C
BRANCH  15  16
HETATM   16  C1  UNL     1      36.987 -43.688  -8.461  1.00  0.00     0.249 C
BRANCH  16  17
HETATM   17  N1  UNL     1      37.438 -42.757  -7.457  1.00  0.00    -0.078 N
ATOM     18  H13 UNL     1      36.773 -42.007  -7.271  1.00  0.00     0.274 HD
ATOM     19  H12 UNL     1      37.449 -43.150  -6.515  1.00  0.00     0.274 HD
ATOM     20  H11 UNL     1      38.350 -42.424  -7.770  1.00  0.00     0.274 HD
ENDBRANCH  16  17
ENDBRANCH  15  16
ENDBRANCH  13  15
ENDBRANCH   1  13
BRANCH   2  21
HETATM   21  C5  UNL     1      37.659 -45.735  -5.395  1.00  0.00    -0.006 A
HETATM   22  C6  UNL     1      38.951 -45.364  -5.167  1.00  0.00     0.014 A
HETATM   23  C7  UNL     1      39.294 -44.328  -4.295  1.00  0.00     0.001 A
HETATM   24  C8  UNL     1      38.319 -43.629  -3.618  1.00  0.00     0.000 A
HETATM   25  C9  UNL     1      37.008 -43.991  -3.839  1.00  0.00     0.001 A
HETATM   26  C10 UNL     1      36.677 -45.015  -4.701  1.00  0.00     0.014 A
ENDBRANCH   2  21
TORSDOF 5
ENDMDL