MODEL 1
REMARK VINA RESULT: -7.604930039      0.000      0.000
REMARK  4 active torsions:
REMARK  status: ('A' for Active; 'I' for Inactive)
REMARK    1  A    between atoms: C2_3  and  C3_4
REMARK    2  A    between atoms: C3_4  and  N2_5
REMARK    3  A    between atoms: N2_5  and  C4_7
REMARK    4  A    between atoms: C5_10  and  C6_11
ROOT
HETATM    1  N1  UNL     1      38.487 -40.270  -6.764  1.00  0.00    -0.197 NA
HETATM    2  C1  UNL     1      37.628 -40.813  -7.318  1.00  0.00     0.060 C
HETATM    3  C2  UNL     1      36.550 -41.490  -8.030  1.00  0.00     0.143 C
ENDROOT
BRANCH   3   4
HETATM    4  C3  UNL     1      37.180 -42.427  -9.065  1.00  0.00     0.135 C
BRANCH   4   5
HETATM    5  N2  UNL     1      38.469 -42.898  -8.610  1.00  0.00    -0.373 N
ATOM      6  H2  UNL     1      39.282 -42.328  -8.839  1.00  0.00     0.161 HD
BRANCH   5   7
HETATM    7  C4  UNL     1      38.671 -43.964  -7.946  1.00  0.00     0.132 A
HETATM    8  N3  UNL     1      37.973 -45.125  -8.161  1.00  0.00    -0.326 N
HETATM    9  C5  UNL     1      38.207 -46.225  -7.451  1.00  0.00     0.117 A
ATOM     10  H3  UNL     1      37.255 -45.146  -8.886  1.00  0.00     0.169 HD
HETATM   11  N4  UNL     1      39.146 -46.230  -6.490  1.00  0.00    -0.340 N
HETATM   12  C12 UNL     1      39.856 -45.100  -6.249  1.00  0.00     0.065 A
ATOM     13  H4  UNL     1      39.323 -47.075  -5.947  1.00  0.00     0.167 HD
HETATM   14  C13 UNL     1      40.857 -44.823  -5.346  1.00  0.00     0.049 A
HETATM   15  C15 UNL     1      39.634 -43.960  -6.965  1.00  0.00     0.103 A
HETATM   16  C14 UNL     1      41.226 -43.510  -5.533  1.00  0.00     0.091 A
HETATM   17  N5  UNL     1      40.456 -42.999  -6.537  1.00  0.00    -0.361 N
ATOM     18  H5  UNL     1      40.500 -42.047  -6.899  1.00  0.00     0.165 HD
BRANCH   9  19
HETATM   19  C6  UNL     1      37.466 -47.456  -7.680  1.00  0.00     0.008 A
HETATM   20  C7  UNL     1      36.905 -48.154  -6.608  1.00  0.00     0.015 A
HETATM   21  C8  UNL     1      36.193 -49.324  -6.754  1.00  0.00     0.001 A
HETATM   22  C9  UNL     1      36.009 -49.855  -8.012  1.00  0.00     0.000 A
HETATM   23  C10 UNL     1      36.540 -49.207  -9.102  1.00  0.00     0.001 A
HETATM   24  C11 UNL     1      37.258 -48.022  -8.920  1.00  0.00     0.015 A
ENDBRANCH   9  19
ENDBRANCH   5   7
ENDBRANCH   4   5
ENDBRANCH   3   4
TORSDOF 4
ENDMDL