MODEL 3
REMARK VINA RESULT: -7.392323574      3.763      6.119
REMARK  5 active torsions:
REMARK  status: ('A' for Active; 'I' for Inactive)
REMARK    1  A    between atoms: C2_2  and  C3_3
REMARK    2  A    between atoms: C10_14  and  N3_15
REMARK    3  A    between atoms: N3_15  and  C11_17
REMARK    4  A    between atoms: C11_17  and  C12_18
REMARK    5  A    between atoms: C12_18  and  N4_19
ROOT
HETATM    1  C3  UNL     1      38.642 -48.085  -8.170  1.00  0.00    -0.058 A
HETATM    2  C4  UNL     1      38.417 -48.370  -6.848  1.00  0.00     0.009 A
HETATM    3  C5  UNL     1      37.152 -48.738  -6.445  1.00  0.00     0.031 A
HETATM    4  C6  UNL     1      36.099 -48.830  -7.343  1.00  0.00     0.044 A
HETATM    5  N1  UNL     1      34.873 -49.193  -6.919  1.00  0.00    -0.341 N
ATOM      6  H1  UNL     1      34.718 -49.403  -5.933  1.00  0.00     0.167 HD
HETATM    7  C7  UNL     1      33.851 -49.281  -7.794  1.00  0.00     0.118 A
HETATM    8  N2  UNL     1      32.631 -49.643  -7.370  1.00  0.00    -0.351 N
ATOM      9  H2  UNL     1      32.487 -49.850  -6.382  1.00  0.00     0.166 HD
HETATM   10  C8  UNL     1      31.598 -49.738  -8.216  1.00  0.00     0.092 A
HETATM   11  C9  UNL     1      31.828 -49.448  -9.563  1.00  0.00     0.047 A
HETATM   12  C10 UNL     1      33.063 -49.077 -10.022  1.00  0.00     0.043 A
HETATM   13  C13 UNL     1      34.110 -48.985  -9.132  1.00  0.00     0.035 A
HETATM   14  C14 UNL     1      35.362 -48.614  -9.568  1.00  0.00     0.031 A
HETATM   15  C15 UNL     1      36.386 -48.531  -8.658  1.00  0.00    -0.008 A
HETATM   16  C16 UNL     1      37.622 -48.161  -9.114  1.00  0.00     0.021 A
ENDROOT
BRANCH  12  17
HETATM   17  N3  UNL     1      33.279 -48.811 -11.248  1.00  0.00    -0.388 N
ATOM     18  H3  UNL     1      34.224 -48.992 -11.586  1.00  0.00     0.159 HD
BRANCH  17  19
HETATM   19  C11 UNL     1      32.356 -48.289 -12.210  1.00  0.00     0.147 C
BRANCH  19  20
HETATM   20  C12 UNL     1      32.342 -49.107 -13.486  1.00  0.00     0.249 C
BRANCH  20  21
HETATM   21  N4  UNL     1      31.331 -48.735 -14.417  1.00  0.00    -0.078 N
ATOM     22  H43 UNL     1      31.752 -48.343 -15.259  1.00  0.00     0.274 HD
ATOM     23  H42 UNL     1      30.889 -49.565 -14.811  1.00  0.00     0.274 HD
ATOM     24  H41 UNL     1      30.625 -48.100 -14.044  1.00  0.00     0.274 HD
ENDBRANCH  20  21
ENDBRANCH  19  20
ENDBRANCH  17  19
ENDBRANCH  12  17
BRANCH   1  25
HETATM   25  C2  UNL     1      39.977 -47.680  -8.686  1.00  0.00     0.034 C
HETATM   26  C1  UNL     1      39.757 -46.522  -9.646  1.00  0.00     0.010 C
ENDBRANCH   1  25
TORSDOF 5
ENDMDL