MODEL 2
REMARK VINA RESULT: -7.312137227      2.155      5.205
REMARK  5 active torsions:
REMARK  status: ('A' for Active; 'I' for Inactive)
REMARK    1  A    between atoms: N1_1  and  C1_5
REMARK    2  A    between atoms: C1_5  and  N2_6
REMARK    3  A    between atoms: C1_5  and  C2_10
REMARK    4  A    between atoms: C2_10  and  C3_11
REMARK    5  A    between atoms: N3_19  and  C11_20
ROOT
HETATM    1  C3  UNL     1      38.436 -43.915  -6.245  1.00  0.00    -0.001 C
HETATM    2  C4  UNL     1      39.297 -42.721  -6.059  1.00  0.00     0.005 C
HETATM    3  C5  UNL     1      40.738 -43.029  -5.709  1.00  0.00     0.000 C
HETATM    4  C6  UNL     1      40.909 -44.463  -5.273  1.00  0.00     0.001 C
HETATM    5  C7  UNL     1      40.531 -45.302  -6.490  1.00  0.00     0.011 C
HETATM    6  C8  UNL     1      39.091 -45.119  -6.849  1.00  0.00    -0.009 C
HETATM    7  C9  UNL     1      38.944 -45.273  -8.322  1.00  0.00     0.042 C
HETATM    8  C10 UNL     1      39.017 -46.790  -8.557  1.00  0.00     0.273 C
HETATM    9  N3  UNL     1      38.944 -47.388  -7.244  1.00  0.00     0.093 N
HETATM   10  C16 UNL     1      38.355 -46.378  -6.356  1.00  0.00     0.282 C
ENDROOT
BRANCH   1  11
HETATM   11  C2  UNL     1      37.215 -43.563  -7.034  1.00  0.00     0.067 C
BRANCH  11  12
HETATM   12  C1  UNL     1      37.130 -42.162  -7.541  1.00  0.00     0.378 C
BRANCH  12  13
HETATM   13  N1  UNL     1      35.751 -41.719  -7.232  1.00  0.00    -0.051 N
ATOM     14  H13 UNL     1      35.688 -40.981  -6.530  1.00  0.00     0.276 HD
ATOM     15  H12 UNL     1      35.296 -41.191  -7.978  1.00  0.00     0.276 HD
ATOM     16  H11 UNL     1      35.281 -42.588  -6.979  1.00  0.00     0.276 HD
ENDBRANCH  12  13
BRANCH  12  17
HETATM   17  N2  UNL     1      37.171 -42.121  -9.007  1.00  0.00    -0.051 N
ATOM     18  H23 UNL     1      36.440 -42.664  -9.469  1.00  0.00     0.276 HD
ATOM     19  H22 UNL     1      36.906 -41.224  -9.416  1.00  0.00     0.276 HD
ATOM     20  H21 UNL     1      38.123 -42.421  -9.220  1.00  0.00     0.276 HD
ENDBRANCH  12  17
ENDBRANCH  11  12
ENDBRANCH   1  11
BRANCH   9  21
HETATM   21  C11 UNL     1      38.041 -48.540  -7.348  1.00  0.00     0.223 C
HETATM   22  C12 UNL     1      37.392 -48.629  -8.703  1.00  0.00     0.036 C
HETATM   23  C13 UNL     1      35.905 -48.773  -8.454  1.00  0.00     0.002 C
HETATM   24  C14 UNL     1      35.832 -49.212  -6.991  1.00  0.00     0.002 C
HETATM   25  C15 UNL     1      36.902 -48.303  -6.383  1.00  0.00     0.036 C
ENDBRANCH   9  21
TORSDOF 5
ENDMDL