MODEL 4
REMARK VINA RESULT: -7.192379295      1.776      6.033
REMARK  4 active torsions:
REMARK  status: ('A' for Active; 'I' for Inactive)
REMARK    1  A    between atoms: C5_9  and  C6_10
REMARK    2  A    between atoms: C9_15  and  N4_16
REMARK    3  A    between atoms: N4_16  and  C10_18
REMARK    4  A    between atoms: C10_18  and  C11_19
ROOT
HETATM    1  C6  UNL     1      38.387 -45.926  -6.156  1.00  0.00     0.061 A
HETATM    2  C7  UNL     1      37.629 -46.123  -5.047  1.00  0.00     0.118 A
HETATM    3  N3  UNL     1      36.755 -47.156  -5.005  1.00  0.00    -0.370 N
ATOM      4  H3  UNL     1      36.188 -47.304  -4.171  1.00  0.00     0.164 HD
HETATM    5  C8  UNL     1      36.633 -47.982  -6.048  1.00  0.00     0.136 A
HETATM    6  C9  UNL     1      37.389 -47.811  -7.197  1.00  0.00     0.117 A
HETATM    7  N5  UNL     1      38.241 -46.787  -7.209  1.00  0.00    -0.340 N
ATOM      8  H5  UNL     1      38.811 -46.638  -8.042  1.00  0.00     0.167 HD
ENDROOT
BRANCH   1   9
HETATM    9  C5  UNL     1      39.329 -44.818  -6.361  1.00  0.00     0.021 A
HETATM   10  C4  UNL     1      40.524 -44.643  -5.662  1.00  0.00     0.104 A
HETATM   11  N2  UNL     1      41.149 -43.530  -6.022  1.00  0.00    -0.351 N
HETATM   12  C3  UNL     1      40.373 -42.950  -6.967  1.00  0.00     0.116 A
ATOM     13  H2  UNL     1      42.037 -43.181  -5.659  1.00  0.00     0.166 HD
HETATM   14  N1  UNL     1      40.578 -41.791  -7.624  1.00  0.00    -0.352 N
HETATM   15  C14 UNL     1      39.236 -43.738  -7.187  1.00  0.00     0.022 A
HETATM   16  C2  UNL     1      39.689 -41.344  -8.525  1.00  0.00     0.090 A
ATOM     17  H1  UNL     1      41.419 -41.247  -7.434  1.00  0.00     0.166 HD
HETATM   18  C1  UNL     1      38.553 -42.079  -8.778  1.00  0.00     0.018 A
HETATM   19  C15 UNL     1      38.316 -43.280  -8.115  1.00  0.00     0.017 A
ENDBRANCH   1   9
BRANCH   6  20
HETATM   20  N4  UNL     1      37.264 -48.615  -8.204  1.00  0.00    -0.375 N
ATOM     21  H4  UNL     1      37.695 -49.539  -8.157  1.00  0.00     0.161 HD
BRANCH  20  22
HETATM   22  C10 UNL     1      36.547 -48.248  -9.367  1.00  0.00     0.126 C
BRANCH  22  23
HETATM   23  C11 UNL     1      35.478 -49.237  -9.786  1.00  0.00     0.003 A
HETATM   24  C12 UNL     1      35.606 -49.698 -11.218  1.00  0.00     0.007 A
HETATM   25  C13 UNL     1      34.470 -48.843 -10.803  1.00  0.00     0.007 A
ENDBRANCH  22  23
ENDBRANCH  20  22
ENDBRANCH   6  20
TORSDOF 4
ENDMDL