MODEL 1
REMARK VINA RESULT: -8.812344396      0.000      0.000
REMARK  3 active torsions:
REMARK  status: ('A' for Active; 'I' for Inactive)
REMARK    1  A    between atoms: C3_3  and  C4_4
REMARK    2  A    between atoms: C8_8  and  C9_9
REMARK    3  A    between atoms: C9_9  and  N1_10
ROOT
HETATM    1  C1  UNL     1      33.818 -49.170 -11.693  1.00  0.00     0.012 C
HETATM    2  C2  UNL     1      34.789 -49.617 -11.147  1.00  0.00    -0.113 C
HETATM    3  C3  UNL     1      35.957 -50.164 -10.459  1.00  0.00     0.131 C
ENDROOT
BRANCH   3   4
HETATM    4  C4  UNL     1      36.282 -49.406  -9.226  1.00  0.00    -0.047 A
HETATM    5  C5  UNL     1      36.143 -49.923  -7.957  1.00  0.00     0.008 A
HETATM    6  C6  UNL     1      36.446 -49.214  -6.814  1.00  0.00     0.001 A
HETATM    7  C7  UNL     1      36.914 -47.920  -6.951  1.00  0.00     0.009 A
HETATM    8  C8  UNL     1      37.073 -47.351  -8.198  1.00  0.00    -0.038 A
HETATM    9  C16 UNL     1      36.753 -48.107  -9.319  1.00  0.00     0.017 A
BRANCH   8  10
HETATM   10  C9  UNL     1      37.577 -45.965  -8.269  1.00  0.00     0.189 C
BRANCH  10  11
HETATM   11  N1  UNL     1      38.416 -45.619  -7.125  1.00  0.00    -0.272 N
HETATM   12  N2  UNL     1      39.706 -45.803  -6.983  1.00  0.00    -0.307 N
HETATM   13  C10 UNL     1      40.161 -45.365  -5.796  1.00  0.00     0.122 A
ATOM     14  H2  UNL     1      40.300 -46.230  -7.693  1.00  0.00     0.186 HD
HETATM   15  C11 UNL     1      39.063 -44.866  -5.141  1.00  0.00     0.026 A
HETATM   16  C12 UNL     1      38.954 -44.298  -3.901  1.00  0.00     0.020 A
HETATM   17  C15 UNL     1      37.995 -45.031  -5.973  1.00  0.00     0.135 A
HETATM   18  C13 UNL     1      37.707 -43.881  -3.497  1.00  0.00     0.049 A
HETATM   19  C14 UNL     1      36.633 -44.057  -4.356  1.00  0.00     0.100 A
HETATM   20  N3  UNL     1      35.450 -43.679  -4.013  1.00  0.00    -0.385 N
HETATM   21  N4  UNL     1      36.791 -44.627  -5.579  1.00  0.00    -0.327 N
ATOM     22  H32 UNL     1      35.330 -43.250  -3.096  1.00  0.00     0.157 HD
ATOM     23  H31 UNL     1      34.659 -43.808  -4.645  1.00  0.00     0.157 HD
ATOM     24  H4  UNL     1      35.987 -44.746  -6.195  1.00  0.00     0.169 HD
ENDBRANCH  10  11
ENDBRANCH   8  10
ENDBRANCH   3   4
TORSDOF 3
ENDMDL