MODEL 4
REMARK VINA RESULT: -8.273641352      3.714      6.274
REMARK  4 active torsions:
REMARK  status: ('A' for Active; 'I' for Inactive)
REMARK    1  A    between atoms: C4_5  and  N2_6
REMARK    2  A    between atoms: N2_6  and  C5_8
REMARK    3  A    between atoms: C5_8  and  C6_9
REMARK    4  A    between atoms: C6_9  and  C7_10
ROOT
HETATM    1  N1  UNL     1      40.072 -48.199  -8.652  1.00  0.00    -0.083 NA
HETATM    2  C1  UNL     1      39.662 -47.177  -7.739  1.00  0.00     0.118 A
HETATM    3  C2  UNL     1      40.141 -45.872  -7.677  1.00  0.00     0.062 A
HETATM    4  C3  UNL     1      39.502 -45.193  -6.668  1.00  0.00     0.038 A
HETATM    5  C4  UNL     1      39.709 -43.860  -6.292  1.00  0.00     0.042 C
HETATM    6  C13 UNL     1      39.251 -43.180  -5.186  1.00  0.00     0.031 C
HETATM    7  C14 UNL     1      38.227 -43.558  -4.350  1.00  0.00     0.019 C
HETATM    8  C15 UNL     1      37.510 -44.735  -4.389  1.00  0.00     0.090 C
HETATM    9  N3  UNL     1      37.771 -45.876  -5.069  1.00  0.00    -0.352 N
ATOM     10  H3  UNL     1      37.249 -46.695  -4.756  1.00  0.00     0.166 HD
HETATM   11  C16 UNL     1      38.627 -46.096  -6.111  1.00  0.00     0.119 A
HETATM   12  N4  UNL     1      38.741 -47.264  -6.763  1.00  0.00    -0.330 N
ATOM     13  H4  UNL     1      38.202 -48.103  -6.549  1.00  0.00     0.168 HD
ENDROOT
BRANCH   5  14
HETATM   14  N2  UNL     1      40.442 -43.258  -7.164  1.00  0.00    -0.389 N
ATOM     15  H2  UNL     1      41.114 -43.775  -7.731  1.00  0.00     0.159 HD
BRANCH  14  16
HETATM   16  C5  UNL     1      40.289 -41.830  -7.314  1.00  0.00     0.124 C
BRANCH  16  17
HETATM   17  C6  UNL     1      39.652 -41.475  -8.647  1.00  0.00     0.058 C
BRANCH  17  18
HETATM   18  C7  UNL     1      38.207 -41.816  -8.636  1.00  0.00    -0.057 A
HETATM   19  C8  UNL     1      37.307 -41.198  -7.785  1.00  0.00     0.007 A
HETATM   20  C9  UNL     1      35.971 -41.520  -7.781  1.00  0.00     0.001 A
HETATM   21  C10 UNL     1      35.481 -42.480  -8.634  1.00  0.00     0.000 A
HETATM   22  C11 UNL     1      36.348 -43.110  -9.488  1.00  0.00     0.001 A
HETATM   23  C12 UNL     1      37.673 -42.770  -9.471  1.00  0.00     0.007 A
ENDBRANCH  17  18
ENDBRANCH  16  17
ENDBRANCH  14  16
ENDBRANCH   5  14
TORSDOF 4
ENDMDL