MODEL 5
REMARK VINA RESULT: -8.677941141      7.582     12.610
REMARK  20 active torsions:
REMARK  status: ('A' for Active; 'I' for Inactive)
REMARK    1  A    between atoms: O1_2  and  C2_3
REMARK    2  A    between atoms: C6_7  and  O2_8
REMARK    3  A    between atoms: C7_10  and  O3_11
REMARK    4  A    between atoms: C8_13  and  O4_14
REMARK    5  A    between atoms: N1_16  and  O5_17
REMARK    6  A    between atoms: C9_19  and  O6_20
REMARK    7  A    between atoms: C10_22  and  N2_23
REMARK    8  A    between atoms: N2_23  and  C11_26
REMARK    9  A    between atoms: C11_26  and  C12_27
REMARK   10  A    between atoms: C12_27  and  S1_28
REMARK   11  A    between atoms: S1_28  and  C13_29
REMARK   12  A    between atoms: N6_35  and  C14_36
REMARK   13  A    between atoms: C16_38  and  O7_39
REMARK   14  A    between atoms: C18_42  and  N7_43
REMARK   15  A    between atoms: C21_56  and  C22_57
REMARK   16  A    between atoms: C22_57  and  O8_58
REMARK   17  A    between atoms: C22_57  and  O9_60
REMARK   18  A    between atoms: O9_60  and  C23_61
REMARK   19  A    between atoms: C23_61  and  C24_62
REMARK   20  A    between atoms: C24_62  and  O10_63
ROOT
HETATM    1  C2  UNL     1       9.340  23.372  17.213  1.00  0.00     0.104 A
HETATM    2  C3  UNL     1       8.844  24.240  18.150  1.00  0.00     0.052 A
HETATM    3  C4  UNL     1       9.145  24.170  19.525  1.00  0.00    -0.014 A
HETATM    4  C5  UNL     1       9.984  23.170  19.953  1.00  0.00     0.063 A
HETATM    5  C6  UNL     1      10.485  22.282  18.949  1.00  0.00     0.117 A
HETATM    6  C7  UNL     1      10.180  22.372  17.621  1.00  0.00     0.133 A
HETATM    7  C8  UNL     1      10.418  22.876  21.315  1.00  0.00     0.179 C
HETATM    8  N1  UNL     1       9.913  23.078  22.578  1.00  0.00    -0.204 N
HETATM    9  C9  UNL     1       9.717  24.233  23.429  1.00  0.00     0.299 C
HETATM   10  C10 UNL     1       8.225  24.500  23.531  1.00  0.00     0.335 C
HETATM   11  N11 UNL     1       7.879  25.426  22.573  1.00  0.00    -0.358 N
ATOM     12  H11 UNL     1       7.925  26.421  22.790  1.00  0.00     0.161 HD
HETATM   13  C21 UNL     1       7.448  24.994  21.257  1.00  0.00     0.062 C
HETATM   14  C25 UNL     1       8.515  25.247  20.300  1.00  0.00     0.042 C
ENDROOT
BRANCH  10  15
HETATM   15  N2  UNL     1       7.836  24.906  24.890  1.00  0.00    -0.049 N
ATOM     16  H22 UNL     1       8.655  25.201  25.421  1.00  0.00     0.279 HD
ATOM     17  H21 UNL     1       7.318  25.785  24.864  1.00  0.00     0.279 HD
BRANCH  15  18
HETATM   18  C11 UNL     1       7.105  23.921  25.611  1.00  0.00     0.245 C
BRANCH  18  19
HETATM   19  C12 UNL     1       7.691  23.915  27.030  1.00  0.00     0.110 C
BRANCH  19  20
HETATM   20  S1  UNL     1       9.216  22.950  26.983  1.00  0.00    -0.089 SA
BRANCH  20  21
HETATM   21  C13 UNL     1       8.899  21.208  26.972  1.00  0.00     0.181 A
HETATM   22  N3  UNL     1       7.736  20.607  27.224  1.00  0.00    -0.261 N
HETATM   23  N4  UNL     1       7.958  19.296  27.108  1.00  0.00    -0.004 NA
ATOM     24  H3  UNL     1       6.852  21.059  27.459  1.00  0.00     0.186 HD
HETATM   25  N5  UNL     1       9.227  19.088  26.791  1.00  0.00    -0.216 N
HETATM   26  N6  UNL     1       9.807  20.261  26.708  1.00  0.00    -0.203 N
ATOM     27  H5  UNL     1       9.671  18.183  26.639  1.00  0.00     0.206 HD
BRANCH  26  28
HETATM   28  C14 UNL     1      11.201  20.396  26.381  1.00  0.00     0.135 A
HETATM   29  C15 UNL     1      12.112  20.124  27.344  1.00  0.00     0.088 A
HETATM   30  C16 UNL     1      13.488  20.249  27.060  1.00  0.00     0.087 A
HETATM   31  C17 UNL     1      13.870  20.654  25.783  1.00  0.00     0.085 A
HETATM   32  C18 UNL     1      15.183  20.807  25.405  1.00  0.00     0.116 A
HETATM   33  C20 UNL     1      12.874  20.910  24.861  1.00  0.00     0.124 A
HETATM   34  N8  UNL     1      15.463  21.206  24.135  1.00  0.00    -0.338 N
HETATM   35  C19 UNL     1      14.518  21.460  23.231  1.00  0.00     0.183 A
ATOM     36  H8  UNL     1      16.440  21.317  23.864  1.00  0.00     0.168 HD
HETATM   37  N9  UNL     1      13.248  21.304  23.621  1.00  0.00    -0.338 N
ATOM     38  H9  UNL     1      12.513  21.495  22.939  1.00  0.00     0.168 HD
HETATM   39  N10 UNL     1      11.576  20.780  25.169  1.00  0.00    -0.326 N
ATOM     40  H10 UNL     1      10.868  20.979  24.462  1.00  0.00     0.169 HD
BRANCH  30  41
HETATM   41  O7  UNL     1      14.362  19.977  28.018  1.00  0.00    -0.359 OA
ATOM     42  H7  UNL     1      15.097  19.410  27.817  1.00  0.00     0.217 HD
ENDBRANCH  30  41
BRANCH  32  43
HETATM   43  N7  UNL     1      16.131  20.574  26.240  1.00  0.00    -0.385 N
ATOM     44  H72 UNL     1      15.922  20.253  27.185  1.00  0.00     0.157 HD
ATOM     45  H71 UNL     1      17.105  20.709  25.966  1.00  0.00     0.157 HD
ENDBRANCH  32  43
ENDBRANCH  26  28
ENDBRANCH  20  21
ENDBRANCH  19  20
ENDBRANCH  18  19
ENDBRANCH  15  18
ENDBRANCH  10  15
BRANCH   9  46
HETATM   46  O6  UNL     1      10.501  25.319  23.227  1.00  0.00    -0.370 OA
ATOM     47  H6  UNL     1      11.111  25.567  23.912  1.00  0.00     0.212 HD
ENDBRANCH   9  46
BRANCH   8  48
HETATM   48  O5  UNL     1       9.480  21.935  23.306  1.00  0.00    -0.283 OA
ATOM     49  H5  UNL     1       8.988  21.273  22.834  1.00  0.00     0.245 HD
ENDBRANCH   8  48
BRANCH  13  50
HETATM   50  C22 UNL     1       6.645  23.771  21.291  1.00  0.00     0.307 C
BRANCH  50  51
HETATM   51  O8  UNL     1       5.565  24.157  22.243  1.00  0.00    -0.366 OA
ATOM     52  H8  UNL     1       6.070  24.538  22.952  1.00  0.00     0.213 HD
ENDBRANCH  50  51
BRANCH  50  53
HETATM   53  O9  UNL     1       5.828  23.559  20.184  1.00  0.00    -0.354 OA
BRANCH  53  54
HETATM   54  C23 UNL     1       6.107  22.503  19.395  1.00  0.00     0.197 C
BRANCH  54  55
HETATM   55  C24 UNL     1       6.975  21.412  19.917  1.00  0.00     0.190 C
BRANCH  55  56
HETATM   56  O10 UNL     1       6.999  20.315  19.033  1.00  0.00    -0.399 OA
ATOM     57  H10 UNL     1       6.434  19.615  19.339  1.00  0.00     0.209 HD
ENDBRANCH  55  56
ENDBRANCH  54  55
ENDBRANCH  53  54
ENDBRANCH  50  53
ENDBRANCH  13  50
BRANCH   7  58
HETATM   58  O4  UNL     1      11.585  22.258  21.373  1.00  0.00    -0.344 OA
ATOM     59  H4  UNL     1      11.786  21.912  22.235  1.00  0.00     0.219 HD
ENDBRANCH   7  58
BRANCH   5  60
HETATM   60  O2  UNL     1      11.346  21.242  19.303  1.00  0.00    -0.357 OA
ATOM     61  H2  UNL     1      11.034  20.345  19.299  1.00  0.00     0.217 HD
ENDBRANCH   5  60
BRANCH   6  62
HETATM   62  O3  UNL     1      10.700  21.475  16.686  1.00  0.00    -0.356 OA
ATOM     63  H3  UNL     1      10.870  21.764  15.797  1.00  0.00     0.218 HD
ENDBRANCH   6  62
BRANCH   1  64
HETATM   64  O1  UNL     1       8.986  23.517  15.861  1.00  0.00    -0.353 OA
HETATM   65  C1  UNL     1       7.654  23.345  15.436  1.00  0.00     0.210 C
ENDBRANCH   1  64
TORSDOF 20
ENDMDL