MODEL 2
REMARK VINA RESULT: -9.415963810      3.019     12.282
REMARK  17 active torsions:
REMARK  status: ('A' for Active; 'I' for Inactive)
REMARK    1  A    between atoms: O1_2  and  C2_3
REMARK    2  A    between atoms: C2_3  and  C3_5
REMARK    3  A    between atoms: C3_5  and  C4_6
REMARK    4  A    between atoms: C4_6  and  C5_7
REMARK    5  A    between atoms: C5_7  and  C17_47
REMARK    6  A    between atoms: N1_8  and  O3_10
REMARK    7  A    between atoms: O3_10  and  C6_11
REMARK    8  A    between atoms: C7_13  and  C8_14
REMARK    9  A    between atoms: C8_14  and  O5_15
REMARK   10  A    between atoms: O5_15  and  S1_16
REMARK   11  A    between atoms: S1_16  and  N2_19
REMARK       I    between atoms: N2_19  and  C9_21
REMARK   12  A    between atoms: C9_21  and  C10_23
REMARK   13  A    between atoms: C12_27  and  C13_28
REMARK   14  A    between atoms: C14_34  and  O11_35
REMARK   15  A    between atoms: C16_44  and  O12_45
REMARK   16  A    between atoms: C20_51  and  O14_52
REMARK   17  A    between atoms: C21_54  and  O15_55
ROOT
HETATM    1  C6  UNL     1      10.499  22.487  21.135  1.00  0.00     0.361 C
HETATM    2  O4  UNL     1      10.471  22.436  19.743  1.00  0.00    -0.328 OA
HETATM    3  C7  UNL     1       9.262  22.018  19.231  1.00  0.00     0.248 C
HETATM    4  N4  UNL     1       8.138  22.717  19.762  1.00  0.00    -0.347 N
ATOM      5  H4  UNL     1       7.654  23.450  19.243  1.00  0.00     0.160 HD
HETATM    6  C14 UNL     1       7.737  22.312  21.087  1.00  0.00     0.427 C
HETATM    7  N5  UNL     1       8.385  23.101  22.117  1.00  0.00     0.013 N
ATOM      8  H51 UNL     1       8.495  22.571  22.981  1.00  0.00     0.285 HD
ATOM      9  H52 UNL     1       7.773  23.841  22.464  1.00  0.00     0.285 HD
HETATM   10  C15 UNL     1       9.653  23.633  21.654  1.00  0.00     0.394 A
HETATM   11  N6  UNL     1       9.718  24.891  20.980  1.00  0.00    -0.000 N
ATOM     12  H61 UNL     1       9.038  25.488  20.507  1.00  0.00     0.283 HD
ATOM     13  H62 UNL     1      10.114  25.212  20.096  1.00  0.00     0.283 HD
HETATM   14  C16 UNL     1      10.205  24.786  22.328  1.00  0.00     0.393 A
ENDROOT
BRANCH   1  15
HETATM   15  O3  UNL     1      11.861  22.670  21.492  1.00  0.00    -0.243 OA
BRANCH  15  16
HETATM   16  N1  UNL     1      12.307  22.276  22.697  1.00  0.00    -0.265 N
HETATM   17  C5  UNL     1      13.267  21.455  22.865  1.00  0.00     0.066 C
ATOM     18  H1  UNL     1      11.849  22.657  23.525  1.00  0.00     0.194 HD
BRANCH  17  19
HETATM   19  C4  UNL     1      14.025  20.820  21.781  1.00  0.00     0.072 C
BRANCH  19  20
HETATM   20  C3  UNL     1      14.314  19.376  21.914  1.00  0.00     0.117 C
BRANCH  20  21
HETATM   21  C2  UNL     1      15.757  19.230  22.330  1.00  0.00     0.258 C
HETATM   22  O2  UNL     1      16.679  19.925  21.861  1.00  0.00    -0.265 OA
BRANCH  21  23
HETATM   23  O1  UNL     1      16.050  18.271  23.279  1.00  0.00    -0.326 OA
HETATM   24  C1  UNL     1      15.125  17.748  24.184  1.00  0.00     0.213 C
ENDBRANCH  21  23
ENDBRANCH  20  21
ENDBRANCH  19  20
ENDBRANCH  17  19
BRANCH  17  25
HETATM   25  C17 UNL     1      13.653  21.104  24.268  1.00  0.00     0.106 A
HETATM   26  C18 UNL     1      12.726  20.597  25.151  1.00  0.00     0.097 A
HETATM   27  C19 UNL     1      13.087  20.273  26.451  1.00  0.00     0.212 A
HETATM   28  O13 UNL     1      12.246  19.812  27.260  1.00  0.00    -0.285 OA
HETATM   29  C20 UNL     1      14.390  20.463  26.859  1.00  0.00     0.175 A
HETATM   30  C21 UNL     1      15.267  20.978  25.907  1.00  0.00     0.222 A
HETATM   31  O16 UNL     1      14.879  21.270  24.686  1.00  0.00    -0.284 OA
BRANCH  29  32
HETATM   32  O14 UNL     1      14.827  20.162  28.142  1.00  0.00    -0.353 OA
ATOM     33  H14 UNL     1      15.581  20.581  28.541  1.00  0.00     0.218 HD
ENDBRANCH  29  32
BRANCH  30  34
HETATM   34  O15 UNL     1      16.593  21.168  26.331  1.00  0.00    -0.339 OA
ATOM     35  H15 UNL     1      16.721  21.268  27.267  1.00  0.00     0.220 HD
ENDBRANCH  30  34
ENDBRANCH  17  25
ENDBRANCH  15  16
ENDBRANCH   1  15
BRANCH   3  36
HETATM   36  C8  UNL     1       9.304  22.288  17.724  1.00  0.00     0.245 C
BRANCH  36  37
HETATM   37  O5  UNL     1      10.271  23.270  17.470  1.00  0.00    -0.255 OA
BRANCH  37  38
HETATM   38  S1  UNL     1       9.560  24.655  16.849  1.00  0.00     0.364 S
HETATM   39  O6  UNL     1       9.372  25.617  17.985  1.00  0.00    -0.175 OA
HETATM   40  O7  UNL     1      10.498  25.336  15.861  1.00  0.00    -0.175 OA
BRANCH  38  41
HETATM   41  N2  UNL     1       8.070  24.301  16.051  1.00  0.00    -0.227 N
HETATM   42  C9  UNL     1       7.389  25.263  15.286  1.00  0.00     0.275 C
HETATM   43  O8  UNL     1       7.803  26.432  15.126  1.00  0.00    -0.266 OA
ATOM     44  H2  UNL     1       7.673  23.366  16.137  1.00  0.00     0.184 HD
BRANCH  42  45
HETATM   45  C10 UNL     1       6.117  24.901  14.625  1.00  0.00     0.091 A
HETATM   46  C11 UNL     1       5.298  23.835  14.918  1.00  0.00     0.113 A
HETATM   47  N3  UNL     1       4.220  23.699  14.211  1.00  0.00    -0.353 N
HETATM   48  C12 UNL     1       3.950  24.571  13.253  1.00  0.00     0.152 A
ATOM     49  H3  UNL     1       3.583  22.924  14.393  1.00  0.00     0.166 HD
HETATM   50  S2  UNL     1       5.273  25.642  13.341  1.00  0.00    -0.059 SA
BRANCH  48  51
HETATM   51  C13 UNL     1       2.777  24.577  12.351  1.00  0.00     0.234 C
HETATM   52  O9  UNL     1       2.871  24.095  11.216  1.00  0.00    -0.642 OA
HETATM   53  O10 UNL     1       1.602  25.125  12.811  1.00  0.00    -0.642 OA
ENDBRANCH  48  51
ENDBRANCH  42  45
ENDBRANCH  38  41
ENDBRANCH  37  38
ENDBRANCH  36  37
ENDBRANCH   3  36
BRANCH  14  54
HETATM   54  O12 UNL     1       9.454  25.475  23.271  1.00  0.00    -0.366 OA
ATOM     55  H12 UNL     1       8.746  26.046  22.996  1.00  0.00     0.212 HD
ENDBRANCH  14  54
BRANCH   6  56
HETATM   56  O11 UNL     1       6.348  22.440  21.175  1.00  0.00    -0.355 OA
ATOM     57  H11 UNL     1       6.012  21.683  21.642  1.00  0.00     0.213 HD
ENDBRANCH   6  56
TORSDOF 17
ENDMDL