MODEL 1
REMARK VINA RESULT: -9.552352664      0.000      0.000
REMARK  20 active torsions:
REMARK  status: ('A' for Active; 'I' for Inactive)
REMARK    1  A    between atoms: C2_2  and  C4_4
REMARK    2  A    between atoms: C2_2  and  O2_7
REMARK    3  A    between atoms: C4_4  and  O1_5
REMARK    4  A    between atoms: O2_7  and  N1_8
REMARK       I    between atoms: N1_8  and  C5_10
REMARK    5  A    between atoms: C5_10  and  C6_12
REMARK    6  A    between atoms: N3_15  and  C7_16
REMARK    7  A    between atoms: C8_18  and  S1_19
REMARK    8  A    between atoms: S1_19  and  C9_20
REMARK    9  A    between atoms: C9_20  and  C10_21
REMARK   10  A    between atoms: N4_23  and  C12_24
REMARK   11  A    between atoms: C12_24  and  C13_25
REMARK   12  A    between atoms: C13_25  and  N5_26
REMARK   13  A    between atoms: N5_26  and  C14_28
REMARK   14  A    between atoms: C16_32  and  N7_33
REMARK   15  A    between atoms: C17_38  and  N9_39
REMARK   16  A    between atoms: C19_41  and  O5_42
REMARK   17  A    between atoms: C20_44  and  O6_45
REMARK   18  A    between atoms: C21_47  and  O7_48
REMARK   19  A    between atoms: N11_54  and  O8_55
REMARK   20  A    between atoms: C24_61  and  O9_62
ROOT
HETATM    1  C13 UNL     1       5.193  26.852  14.256  1.00  0.00     0.160 C
ENDROOT
BRANCH   1   2
HETATM    2  C12 UNL     1       6.404  26.007  13.955  1.00  0.00     0.170 C
BRANCH   2   3
HETATM    3  N4  UNL     1       6.440  24.944  14.921  1.00  0.00    -0.286 N
HETATM    4  C11 UNL     1       6.423  25.034  16.246  1.00  0.00     0.139 A
HETATM    5  C10 UNL     1       6.479  23.742  16.736  1.00  0.00     0.054 A
HETATM    6  N13 UNL     1       6.527  22.939  15.638  1.00  0.00    -0.288 N
HETATM    7  N12 UNL     1       6.504  23.658  14.546  1.00  0.00    -0.241 N
ATOM      8  H13 UNL     1       6.574  21.921  15.663  1.00  0.00     0.188 HD
ATOM      9  H12 UNL     1       6.530  23.307  13.589  1.00  0.00     0.208 HD
BRANCH   5  10
HETATM   10  C9  UNL     1       6.489  23.243  18.122  1.00  0.00     0.141 C
BRANCH  10  11
HETATM   11  S1  UNL     1       7.588  24.158  19.216  1.00  0.00    -0.101 SA
BRANCH  11  12
HETATM   12  C8  UNL     1       9.139  23.366  19.513  1.00  0.00     0.131 A
HETATM   13  N3  UNL     1       9.961  22.686  18.709  1.00  0.00    -0.221 N
HETATM   14  N2  UNL     1      10.997  22.226  19.389  1.00  0.00    -0.283 N
HETATM   15  C6  UNL     1      10.881  22.605  20.695  1.00  0.00     0.155 A
ATOM     16  H2  UNL     1      11.762  21.676  18.999  1.00  0.00     0.188 HD
HETATM   17  C24 UNL     1       9.718  23.322  20.786  1.00  0.00     0.135 A
BRANCH  13  18
HETATM   18  C7  UNL     1       9.775  22.496  17.319  1.00  0.00     0.377 C
HETATM   19  O4  UNL     1       9.189  21.503  16.851  1.00  0.00    -0.281 OA
ENDBRANCH  13  18
BRANCH  15  20
HETATM   20  C5  UNL     1      11.869  22.251  21.706  1.00  0.00     0.296 C
HETATM   21  N1  UNL     1      12.839  21.251  21.483  1.00  0.00    -0.228 N
ATOM     22  H1  UNL     1      12.861  20.753  20.594  1.00  0.00     0.198 HD
HETATM   23  O3  UNL     1      11.865  22.848  22.809  1.00  0.00    -0.264 OA
BRANCH  21  24
HETATM   24  O2  UNL     1      13.745  20.949  22.452  1.00  0.00    -0.265 OA
BRANCH  24  25
HETATM   25  C2  UNL     1      14.807  20.202  22.019  1.00  0.00     0.103 C
HETATM   26  C1  UNL     1      15.249  19.149  23.003  1.00  0.00     0.050 C
HETATM   27  C3  UNL     1      15.941  21.117  21.624  1.00  0.00     0.050 C
BRANCH  25  28
HETATM   28  C4  UNL     1      14.323  19.443  20.775  1.00  0.00     0.203 C
BRANCH  28  29
HETATM   29  O1  UNL     1      14.432  18.090  21.011  1.00  0.00    -0.398 OA
ATOM     30  H1  UNL     1      13.611  17.672  20.778  1.00  0.00     0.209 HD
ENDBRANCH  28  29
ENDBRANCH  25  28
ENDBRANCH  24  25
ENDBRANCH  21  24
ENDBRANCH  15  20
BRANCH  17  31
HETATM   31  O9  UNL     1       9.214  23.897  21.941  1.00  0.00    -0.356 OA
ATOM     32  H9  UNL     1       8.301  23.904  22.201  1.00  0.00     0.218 HD
ENDBRANCH  17  31
ENDBRANCH  11  12
ENDBRANCH  10  11
ENDBRANCH   5  10
ENDBRANCH   2   3
ENDBRANCH   1   2
BRANCH   1  33
HETATM   33  N5  UNL     1       4.206  26.631  13.258  1.00  0.00    -0.222 N
ATOM     34  H5  UNL     1       4.199  27.282  12.474  1.00  0.00     0.177 HD
BRANCH  33  35
HETATM   35  C14 UNL     1       3.322  25.695  13.236  1.00  0.00     0.707 A
HETATM   36  N6  UNL     1       2.107  25.833  13.819  1.00  0.00    -0.182 N
HETATM   37  C15 UNL     1       1.392  24.712  13.644  1.00  0.00     0.140 A
ATOM     38  H6  UNL     1       1.785  26.664  14.316  1.00  0.00     0.184 HD
HETATM   39  C16 UNL     1       0.134  24.277  14.000  1.00  0.00     0.146 A
HETATM   40  C23 UNL     1       2.169  23.833  12.930  1.00  0.00     0.197 A
HETATM   41  N8  UNL     1      -0.301  23.058  13.662  1.00  0.00    -0.175 N
HETATM   42  C17 UNL     1       0.460  22.173  12.951  1.00  0.00     0.683 A
ATOM     43  H8  UNL     1      -1.239  22.777  13.946  1.00  0.00     0.186 HD
HETATM   44  N10 UNL     1       1.684  22.601  12.608  1.00  0.00    -0.171 N
ATOM     45  H10 UNL     1       2.285  21.971  12.077  1.00  0.00     0.186 HD
HETATM   46  N11 UNL     1       3.332  24.470  12.703  1.00  0.00    -0.033 N
BRANCH  39  47
HETATM   47  N7  UNL     1      -0.615  25.107  14.681  1.00  0.00    -0.383 N
ATOM     48  H72 UNL     1      -1.001  25.950  14.256  1.00  0.00     0.157 HD
ATOM     49  H71 UNL     1      -0.798  24.875  15.657  1.00  0.00     0.157 HD
ENDBRANCH  39  47
BRANCH  42  50
HETATM   50  N9  UNL     1      -0.055  20.889  12.621  1.00  0.00    -0.212 N
HETATM   51  C18 UNL     1      -0.789  20.056  13.535  1.00  0.00     0.175 C
HETATM   52  C19 UNL     1      -0.403  18.595  13.481  1.00  0.00     0.167 C
HETATM   53  C20 UNL     1      -0.313  18.087  12.084  1.00  0.00     0.178 C
HETATM   54  C21 UNL     1      -0.679  19.130  11.054  1.00  0.00     0.167 C
HETATM   55  C22 UNL     1       0.167  20.387  11.279  1.00  0.00     0.175 C
BRANCH  52  56
HETATM   56  O5  UNL     1      -1.426  17.899  14.121  1.00  0.00    -0.391 OA
ATOM     57  H5  UNL     1      -1.796  17.314  13.469  1.00  0.00     0.210 HD
ENDBRANCH  52  56
BRANCH  53  58
HETATM   58  O6  UNL     1      -1.084  16.953  11.870  1.00  0.00    -0.390 OA
ATOM     59  H6  UNL     1      -1.126  16.700  10.955  1.00  0.00     0.210 HD
ENDBRANCH  53  58
BRANCH  54  60
HETATM   60  O7  UNL     1      -0.344  18.617   9.809  1.00  0.00    -0.391 OA
ATOM     61  H7  UNL     1      -1.104  18.151   9.481  1.00  0.00     0.210 HD
ENDBRANCH  54  60
ENDBRANCH  42  50
BRANCH  46  62
HETATM   62  O8  UNL     1       4.380  23.922  12.010  1.00  0.00    -0.268 OA
ATOM     63  H8  UNL     1       5.152  23.535  12.406  1.00  0.00     0.246 HD
ENDBRANCH  46  62
ENDBRANCH  33  35
ENDBRANCH   1  33
TORSDOF 20
ENDMDL