MODEL 2
REMARK VINA RESULT: -8.868265747      1.273      2.535
REMARK  24 active torsions:
REMARK  status: ('A' for Active; 'I' for Inactive)
REMARK    1  A    between atoms: C2_2  and  O2_4
REMARK    2  A    between atoms: O2_4  and  C3_5
REMARK    3  A    between atoms: C3_5  and  C4_7
REMARK    4  A    between atoms: C4_7  and  C5_8
REMARK    5  A    between atoms: C6_9  and  O4_10
REMARK    6  A    between atoms: C7_12  and  C8_13
REMARK    7  A    between atoms: C8_13  and  O5_14
REMARK    8  A    between atoms: C8_13  and  N1_16
REMARK    9  A    between atoms: N1_16  and  C9_18
REMARK   10  A    between atoms: C9_18  and  C11_20
REMARK   11  A    between atoms: C11_20  and  O6_21
REMARK   12  A    between atoms: C11_20  and  N2_23
REMARK   13  A    between atoms: N2_23  and  C12_26
REMARK   14  A    between atoms: C13_27  and  O7_28
REMARK   15  A    between atoms: C14_30  and  O8_31
REMARK   16  A    between atoms: O8_31  and  C15_32
REMARK   17  A    between atoms: C17_35  and  O10_36
REMARK   18  A    between atoms: O10_36  and  C18_37
REMARK   19  A    between atoms: C20_40  and  O12_41
REMARK   20  A    between atoms: O12_41  and  C21_42
REMARK   21  A    between atoms: C23_45  and  O14_46
REMARK   22  A    between atoms: C24_48  and  O15_49
REMARK   23  A    between atoms: C25_51  and  O16_52
REMARK   24  A    between atoms: C27_56  and  O18_57
ROOT
HETATM    1  C9  UNL     1      14.120  20.438  21.749  1.00  0.00     0.036 C
HETATM    2  C10 UNL     1      14.621  19.762  20.516  1.00  0.00     0.067 C
ENDROOT
BRANCH   1   3
HETATM    3  N1  UNL     1      12.890  21.068  21.718  1.00  0.00    -0.363 N
ATOM      4  H1  UNL     1      12.062  20.474  21.774  1.00  0.00     0.162 HD
BRANCH   3   5
HETATM    5  C8  UNL     1      12.678  22.443  21.616  1.00  0.00     0.258 C
BRANCH   5   6
HETATM    6  C7  UNL     1      11.350  22.900  21.153  1.00  0.00     0.059 C
HETATM    7  C6  UNL     1      10.778  22.212  20.077  1.00  0.00     0.088 C
HETATM    8  C5  UNL     1       9.457  22.217  19.674  1.00  0.00     0.022 C
HETATM    9  C27 UNL     1       8.367  22.848  20.301  1.00  0.00     0.128 C
HETATM   10  C26 UNL     1       8.420  23.942  21.133  1.00  0.00     0.241 C
HETATM   11  C25 UNL     1       9.549  24.566  21.668  1.00  0.00     0.153 C
HETATM   12  O17 UNL     1       7.286  24.439  21.443  1.00  0.00    -0.282 OA
HETATM   13  C24 UNL     1      10.783  23.932  21.867  1.00  0.00     0.116 C
BRANCH   7  14
HETATM   14  O4  UNL     1      11.637  21.441  19.341  1.00  0.00    -0.359 OA
ATOM     15  H4  UNL     1      11.505  20.501  19.382  1.00  0.00     0.217 HD
ENDBRANCH   7  14
BRANCH   8  16
HETATM   16  C4  UNL     1       9.049  21.523  18.427  1.00  0.00     0.156 C
BRANCH  16  17
HETATM   17  C3  UNL     1       9.490  22.359  17.288  1.00  0.00     0.270 C
HETATM   18  O3  UNL     1      10.541  22.081  16.686  1.00  0.00    -0.264 OA
BRANCH  17  19
HETATM   19  O2  UNL     1       8.762  23.484  16.850  1.00  0.00    -0.245 OA
BRANCH  19  20
HETATM   20  C2  UNL     1       9.242  24.781  16.964  1.00  0.00     0.262 C
HETATM   21  C1  UNL     1       9.843  25.483  15.768  1.00  0.00     0.126 C
HETATM   22  O1  UNL     1       9.177  25.375  18.038  1.00  0.00    -0.265 OA
ENDBRANCH  19  20
ENDBRANCH  17  19
ENDBRANCH  16  17
ENDBRANCH   8  16
BRANCH   9  23
HETATM   23  O18 UNL     1       7.124  22.274  20.027  1.00  0.00    -0.356 OA
ATOM     24  H18 UNL     1       6.382  22.737  20.398  1.00  0.00     0.218 HD
ENDBRANCH   9  23
BRANCH  11  25
HETATM   25  O16 UNL     1       9.381  25.871  22.000  1.00  0.00    -0.355 OA
ATOM     26  H16 UNL     1       9.423  26.548  21.335  1.00  0.00     0.218 HD
ENDBRANCH  11  25
BRANCH  13  27
HETATM   27  O15 UNL     1      11.487  24.448  22.940  1.00  0.00    -0.357 OA
ATOM     28  H15 UNL     1      12.391  24.708  22.802  1.00  0.00     0.217 HD
ENDBRANCH  13  27
ENDBRANCH   5   6
BRANCH   5  29
HETATM   29  O5  UNL     1      12.745  22.928  22.967  1.00  0.00    -0.372 OA
ATOM     30  H5  UNL     1      12.197  22.318  23.448  1.00  0.00     0.212 HD
ENDBRANCH   5  29
ENDBRANCH   3   5
ENDBRANCH   1   3
BRANCH   1  31
HETATM   31  C11 UNL     1      15.266  21.127  22.457  1.00  0.00     0.365 C
BRANCH  31  32
HETATM   32  O6  UNL     1      16.371  21.093  21.652  1.00  0.00    -0.365 OA
ATOM     33  H6  UNL     1      17.138  21.303  22.172  1.00  0.00     0.212 HD
ENDBRANCH  31  32
BRANCH  31  34
HETATM   34  N2  UNL     1      15.544  20.378  23.663  1.00  0.00    -0.034 N
ATOM     35  H22 UNL     1      15.424  19.378  23.507  1.00  0.00     0.281 HD
ATOM     36  H21 UNL     1      16.540  20.394  23.880  1.00  0.00     0.281 HD
BRANCH  34  37
HETATM   37  C12 UNL     1      14.764  20.820  24.792  1.00  0.00     0.251 C
HETATM   38  C13 UNL     1      15.581  20.806  26.069  1.00  0.00     0.183 C
HETATM   39  C14 UNL     1      15.916  19.407  26.498  1.00  0.00     0.195 C
HETATM   40  C17 UNL     1      14.721  18.523  26.638  1.00  0.00     0.196 C
HETATM   41  C20 UNL     1      13.442  19.129  26.159  1.00  0.00     0.195 C
HETATM   42  C23 UNL     1      13.513  20.065  25.019  1.00  0.00     0.183 C
BRANCH  38  43
HETATM   43  O7  UNL     1      16.740  21.514  25.830  1.00  0.00    -0.391 OA
ATOM     44  H7  UNL     1      16.802  22.195  26.489  1.00  0.00     0.210 HD
ENDBRANCH  38  43
BRANCH  39  45
HETATM   45  O8  UNL     1      16.774  19.427  27.614  1.00  0.00    -0.311 OA
BRANCH  45  46
HETATM   46  C15 UNL     1      17.793  18.548  27.833  1.00  0.00     0.255 C
HETATM   47  C16 UNL     1      18.844  18.337  26.818  1.00  0.00     0.126 C
HETATM   48  O9  UNL     1      17.849  17.907  28.900  1.00  0.00    -0.266 OA
ENDBRANCH  45  46
ENDBRANCH  39  45
BRANCH  40  49
HETATM   49  O10 UNL     1      14.892  17.339  25.885  1.00  0.00    -0.311 OA
BRANCH  49  50
HETATM   50  C18 UNL     1      14.088  16.208  26.022  1.00  0.00     0.255 C
HETATM   51  C19 UNL     1      13.488  15.598  24.815  1.00  0.00     0.126 C
HETATM   52  O11 UNL     1      13.912  15.764  27.172  1.00  0.00    -0.266 OA
ENDBRANCH  49  50
ENDBRANCH  40  49
BRANCH  41  53
HETATM   53  O12 UNL     1      12.827  19.832  27.229  1.00  0.00    -0.311 OA
BRANCH  53  54
HETATM   54  C21 UNL     1      11.841  19.228  28.035  1.00  0.00     0.255 C
HETATM   55  C22 UNL     1      11.137  18.052  27.466  1.00  0.00     0.126 C
HETATM   56  O13 UNL     1      11.648  19.724  29.145  1.00  0.00    -0.266 OA
ENDBRANCH  53  54
ENDBRANCH  41  53
BRANCH  42  57
HETATM   57  O14 UNL     1      12.406  20.943  25.035  1.00  0.00    -0.391 OA
ATOM     58  H14 UNL     1      12.648  21.783  24.664  1.00  0.00     0.210 HD
ENDBRANCH  42  57
ENDBRANCH  34  37
ENDBRANCH  31  34
ENDBRANCH   1  31
TORSDOF 24
ENDMDL