MODEL 3
REMARK VINA RESULT: -8.111618933      3.812      6.157
REMARK  21 active torsions:
REMARK  status: ('A' for Active; 'I' for Inactive)
REMARK       I    between atoms: N1_2  and  C2_4
REMARK    1  A    between atoms: C2_4  and  C3_6
REMARK    2  A    between atoms: C4_10  and  C5_11
REMARK    3  A    between atoms: C5_11  and  O2_12
REMARK    4  A    between atoms: C5_11  and  O3_14
REMARK    5  A    between atoms: O3_14  and  C6_15
REMARK    6  A    between atoms: C6_15  and  C7_16
REMARK    7  A    between atoms: C6_15  and  N3_22
REMARK    8  A    between atoms: C7_16  and  C8_17
REMARK    9  A    between atoms: N3_22  and  C11_23
REMARK   10  A    between atoms: C12_24  and  O4_25
REMARK   11  A    between atoms: C13_28  and  O6_29
REMARK   12  A    between atoms: C14_31  and  O7_32
REMARK   13  A    between atoms: C16_37  and  O10_38
REMARK   14  A    between atoms: O10_38  and  C17_39
REMARK   15  A    between atoms: C17_39  and  O11_40
REMARK   16  A    between atoms: C17_39  and  C18_42
REMARK   17  A    between atoms: C18_42  and  O12_43
REMARK   18  A    between atoms: C18_42  and  C19_45
REMARK   19  A    between atoms: C19_45  and  O13_46
REMARK   20  A    between atoms: C19_45  and  C20_48
REMARK       I    between atoms: C20_48  and  N4_50
REMARK   21  A    between atoms: N4_50  and  S3_52
ROOT
HETATM    1  C3  UNL     1       4.836  25.116  14.832  1.00  0.00     0.333 C
HETATM    2  N2  UNL     1       5.314  23.742  14.853  1.00  0.00    -0.039 N
ATOM      3  H21 UNL     1       5.483  23.410  13.903  1.00  0.00     0.279 HD
ATOM      4  H22 UNL     1       4.563  23.109  15.129  1.00  0.00     0.279 HD
HETATM    5  C4  UNL     1       6.477  23.529  15.674  1.00  0.00     0.340 C
HETATM    6  C15 UNL     1       7.576  24.471  15.279  1.00  0.00     0.297 C
HETATM    7  O8  UNL     1       8.701  24.281  15.765  1.00  0.00    -0.263 OA
HETATM    8  O9  UNL     1       7.203  25.465  14.400  1.00  0.00    -0.285 OA
HETATM    9  C16 UNL     1       5.926  26.109  14.637  1.00  0.00     0.312 C
ENDROOT
BRANCH   5  10
HETATM   10  C5  UNL     1       6.110  23.744  17.096  1.00  0.00     0.306 C
BRANCH  10  11
HETATM   11  O2  UNL     1       6.368  22.561  17.815  1.00  0.00    -0.368 OA
ATOM     12  H2  UNL     1       6.748  22.789  18.655  1.00  0.00     0.212 HD
ENDBRANCH  10  11
BRANCH  10  13
HETATM   13  O3  UNL     1       6.643  24.856  17.735  1.00  0.00    -0.294 OA
BRANCH  13  14
HETATM   14  C6  UNL     1       7.217  24.915  18.998  1.00  0.00     0.195 C
BRANCH  14  15
HETATM   15  C7  UNL     1       6.455  25.737  20.007  1.00  0.00     0.106 C
BRANCH  15  16
HETATM   16  C8  UNL     1       5.229  25.049  20.491  1.00  0.00     0.014 C
HETATM   17  C9  UNL     1       5.484  24.003  21.510  1.00  0.00     0.092 C
HETATM   18  S1  UNL     1       3.829  23.243  21.779  1.00  0.00    -0.097 SA
HETATM   19  S2  UNL     1       2.733  25.060  21.331  1.00  0.00    -0.097 SA
HETATM   20  C10 UNL     1       4.258  26.063  21.047  1.00  0.00     0.092 C
ENDBRANCH  15  16
ENDBRANCH  14  15
BRANCH  14  21
HETATM   21  N3  UNL     1       8.215  24.369  19.276  1.00  0.00    -0.377 NA
BRANCH  21  22
HETATM   22  C11 UNL     1       9.344  23.725  19.568  1.00  0.00     0.205 A
HETATM   23  C12 UNL     1      10.330  23.991  20.528  1.00  0.00     0.230 A
HETATM   24  O5  UNL     1      11.239  23.084  20.438  1.00  0.00    -0.259 OA
HETATM   25  C13 UNL     1      10.963  22.216  19.496  1.00  0.00     0.223 A
HETATM   26  C14 UNL     1       9.776  22.556  18.898  1.00  0.00     0.171 A
BRANCH  23  27
HETATM   27  O4  UNL     1      10.280  25.051  21.386  1.00  0.00    -0.338 OA
ATOM     28  H4  UNL     1      11.029  25.598  21.588  1.00  0.00     0.220 HD
ENDBRANCH  23  27
BRANCH  25  29
HETATM   29  O6  UNL     1      11.789  21.126  19.188  1.00  0.00    -0.338 OA
ATOM     30  H6  UNL     1      11.456  20.280  18.912  1.00  0.00     0.220 HD
ENDBRANCH  25  29
BRANCH  26  31
HETATM   31  O7  UNL     1       9.112  21.912  17.855  1.00  0.00    -0.354 OA
ATOM     32  H7  UNL     1       9.477  21.703  17.003  1.00  0.00     0.218 HD
ENDBRANCH  26  31
ENDBRANCH  21  22
ENDBRANCH  14  21
ENDBRANCH  13  14
ENDBRANCH  10  13
ENDBRANCH   5  10
BRANCH   1  33
HETATM   33  C2  UNL     1       3.845  25.136  13.693  1.00  0.00     0.253 C
HETATM   34  N1  UNL     1       2.963  26.176  13.408  1.00  0.00    -0.363 N
HETATM   35  C1  UNL     1       2.041  26.127  12.305  1.00  0.00     0.149 C
ATOM     36  H1  UNL     1       2.972  27.004  14.003  1.00  0.00     0.161 HD
HETATM   37  O1  UNL     1       3.824  24.116  12.950  1.00  0.00    -0.271 OA
ENDBRANCH   1  33
BRANCH   9  38
HETATM   38  O10 UNL     1       5.708  26.871  13.518  1.00  0.00    -0.326 OA
BRANCH  38  39
HETATM   39  C17 UNL     1       6.150  28.170  13.561  1.00  0.00     0.291 C
BRANCH  39  40
HETATM   40  O11 UNL     1       5.455  28.901  12.632  1.00  0.00    -0.368 OA
ATOM     41  H11 UNL     1       5.232  29.742  13.012  1.00  0.00     0.212 HD
ENDBRANCH  39  40
BRANCH  39  42
HETATM   42  C18 UNL     1       6.213  28.789  14.918  1.00  0.00     0.211 C
BRANCH  42  43
HETATM   43  O12 UNL     1       7.221  29.732  15.050  1.00  0.00    -0.388 OA
ATOM     44  H12 UNL     1       6.943  30.526  15.492  1.00  0.00     0.210 HD
ENDBRANCH  42  43
BRANCH  42  45
HETATM   45  C19 UNL     1       4.909  29.327  15.437  1.00  0.00     0.244 C
BRANCH  45  46
HETATM   46  O13 UNL     1       3.830  28.993  14.654  1.00  0.00    -0.383 OA
ATOM     47  H13 UNL     1       3.600  28.072  14.700  1.00  0.00     0.210 HD
ENDBRANCH  45  46
BRANCH  45  48
HETATM   48  C20 UNL     1       5.043  30.809  15.433  1.00  0.00     0.262 C
HETATM   49  O14 UNL     1       5.122  31.433  16.524  1.00  0.00    -0.270 OA
HETATM   50  N4  UNL     1       5.086  31.539  14.213  1.00  0.00    -0.252 N
ATOM     51  H4  UNL     1       5.017  31.033  13.330  1.00  0.00     0.181 HD
BRANCH  50  52
HETATM   52  S3  UNL     1       5.251  33.259  14.182  1.00  0.00     0.229 S
HETATM   53  C21 UNL     1       3.953  34.061  15.039  1.00  0.00     0.186 C
HETATM   54  O15 UNL     1       6.571  33.645  14.827  1.00  0.00    -0.206 OA
HETATM   55  O16 UNL     1       5.308  33.706  12.746  1.00  0.00    -0.206 OA
ENDBRANCH  50  52
ENDBRANCH  45  48
ENDBRANCH  42  45
ENDBRANCH  39  42
ENDBRANCH  38  39
ENDBRANCH   9  38
TORSDOF 21
ENDMDL