MODEL 1
REMARK VINA RESULT: -7.312573953      0.000      0.000
REMARK  19 active torsions:
REMARK  status: ('A' for Active; 'I' for Inactive)
REMARK    1  A    between atoms: C2_2  and  O2_4
REMARK    2  A    between atoms: O2_4  and  C3_5
REMARK    3  A    between atoms: C3_5  and  C4_6
REMARK    4  A    between atoms: C4_6  and  O3_7
REMARK    5  A    between atoms: O3_7  and  C5_8
REMARK    6  A    between atoms: C5_8  and  C7_10
REMARK    7  A    between atoms: C7_10  and  O4_11
REMARK    8  A    between atoms: C7_10  and  C8_13
REMARK    9  A    between atoms: C7_10  and  N9_40
REMARK   10  A    between atoms: C8_13  and  O5_14
REMARK   11  A    between atoms: C8_13  and  C9_16
REMARK   12  A    between atoms: C9_16  and  N1_17
REMARK   13  A    between atoms: C10_18  and  N2_19
REMARK   14  A    between atoms: N2_19  and  N3_21
REMARK   15  A    between atoms: C15_41  and  N10_42
REMARK   16  A    between atoms: C17_44  and  O7_45
REMARK   17  A    between atoms: C18_47  and  O8_48
REMARK   18  A    between atoms: C22_57  and  N13_58
REMARK   19  A    between atoms: N14_61  and  N15_62
ROOT
HETATM    1  C7  UNL     1       5.751  25.353  20.440  1.00  0.00     0.208 C
ENDROOT
BRANCH   1   2
HETATM    2  C5  UNL     1       6.676  24.956  21.497  1.00  0.00     0.176 C
HETATM    3  C6  UNL     1       6.542  25.830  22.785  1.00  0.00     0.044 C
BRANCH   2   4
HETATM    4  O3  UNL     1       6.884  23.755  22.028  1.00  0.00    -0.379 OA
BRANCH   4   5
HETATM    5  C4  UNL     1       8.147  23.238  21.919  1.00  0.00     0.195 C
BRANCH   5   6
HETATM    6  C3  UNL     1       8.152  22.277  20.744  1.00  0.00     0.205 C
BRANCH   6   7
HETATM    7  O2  UNL     1       8.872  22.782  19.652  1.00  0.00    -0.320 OA
BRANCH   7   8
HETATM    8  C2  UNL     1      10.135  23.300  19.906  1.00  0.00     0.254 C
HETATM    9  C1  UNL     1      11.240  22.431  20.367  1.00  0.00     0.126 C
HETATM   10  O1  UNL     1      10.379  24.523  19.751  1.00  0.00    -0.266 OA
ENDBRANCH   7   8
ENDBRANCH   6   7
ENDBRANCH   5   6
ENDBRANCH   4   5
ENDBRANCH   2   4
ENDBRANCH   1   2
BRANCH   1  11
HETATM   11  O4  UNL     1       6.300  26.761  20.444  1.00  0.00    -0.365 OA
ATOM     12  H4  UNL     1       5.630  27.041  21.056  1.00  0.00     0.212 HD
ENDBRANCH   1  11
BRANCH   1  13
HETATM   13  C8  UNL     1       6.100  25.140  19.006  1.00  0.00     0.196 C
BRANCH  13  14
HETATM   14  O5  UNL     1       7.516  25.223  18.797  1.00  0.00    -0.389 OA
ATOM     15  H5  UNL     1       7.808  24.586  18.157  1.00  0.00     0.210 HD
ENDBRANCH  13  14
BRANCH  13  16
HETATM   16  C9  UNL     1       5.755  23.948  18.240  1.00  0.00     0.186 C
BRANCH  16  17
HETATM   17  N1  UNL     1       6.167  23.957  16.853  1.00  0.00    -0.161 N
HETATM   18  C10 UNL     1       6.995  23.051  16.305  1.00  0.00     0.702 A
HETATM   19  N5  UNL     1       7.168  23.368  15.010  1.00  0.00    -0.181 N
HETATM   20  C11 UNL     1       6.460  24.469  14.724  1.00  0.00     0.162 A
ATOM     21  H5  UNL     1       7.749  22.852  14.348  1.00  0.00     0.184 HD
HETATM   22  C12 UNL     1       6.270  25.226  13.590  1.00  0.00     0.290 A
HETATM   23  C14 UNL     1       5.812  24.862  15.892  1.00  0.00     0.172 A
HETATM   24  O6  UNL     1       6.846  24.884  12.536  1.00  0.00    -0.265 OA
HETATM   25  N6  UNL     1       5.462  26.321  13.654  1.00  0.00    -0.154 N
HETATM   26  C13 UNL     1       4.850  26.674  14.796  1.00  0.00     0.680 A
ATOM     27  H6  UNL     1       5.318  26.885  12.817  1.00  0.00     0.187 HD
HETATM   28  N7  UNL     1       4.098  27.732  14.763  1.00  0.00    -0.234 N
HETATM   29  N8  UNL     1       5.020  25.952  15.913  1.00  0.00    -0.174 N
ATOM     30  H72 UNL     1       3.969  28.281  13.913  1.00  0.00     0.174 HD
ATOM     31  H71 UNL     1       3.633  28.000  15.631  1.00  0.00     0.174 HD
ATOM     32  H8  UNL     1       4.552  26.227  16.776  1.00  0.00     0.186 HD
BRANCH  18  33
HETATM   33  N2  UNL     1       7.616  21.925  16.928  1.00  0.00    -0.118 N
ATOM     34  H2  UNL     1       7.036  21.252  17.430  1.00  0.00     0.207 HD
BRANCH  33  35
HETATM   35  N3  UNL     1       8.826  21.746  16.875  1.00  0.00    -0.235 N
HETATM   36  N4  UNL     1       9.914  21.173  17.086  1.00  0.00    -0.330 N
ATOM     37  H42 UNL     1       9.568  20.382  17.630  1.00  0.00     0.178 HD
ATOM     38  H41 UNL     1      10.923  21.024  17.042  1.00  0.00     0.178 HD
ATOM     39  H3  UNL     1       9.125  22.554  16.327  1.00  0.00     0.208 HD
ENDBRANCH  33  35
ENDBRANCH  18  33
ENDBRANCH  16  17
ENDBRANCH  13  16
ENDBRANCH   1  13
BRANCH   1  40
HETATM   40  N9  UNL     1       4.387  25.774  20.733  1.00  0.00    -0.137 N
HETATM   41  C15 UNL     1       3.802  27.008  20.564  1.00  0.00     0.688 A
HETATM   42  N11 UNL     1       2.480  26.960  20.980  1.00  0.00    -0.173 N
HETATM   43  C21 UNL     1       2.249  25.735  21.393  1.00  0.00     0.168 A
ATOM     44  H11 UNL     1       1.812  27.732  20.968  1.00  0.00     0.186 HD
HETATM   45  N12 UNL     1       1.137  25.171  21.881  1.00  0.00    -0.172 N
HETATM   46  C24 UNL     1       3.414  24.972  21.252  1.00  0.00     0.146 A
HETATM   47  C22 UNL     1       1.070  23.871  22.253  1.00  0.00     0.700 A
ATOM     48  H12 UNL     1       0.301  25.748  21.976  1.00  0.00     0.186 HD
HETATM   49  N14 UNL     1       2.162  23.105  22.132  1.00  0.00    -0.075 N
HETATM   50  C23 UNL     1       3.317  23.657  21.636  1.00  0.00     0.170 A
HETATM   51  N16 UNL     1       4.276  22.872  21.534  1.00  0.00    -0.382 N
ATOM     52 2H16 UNL     1       4.204  21.895  21.819  1.00  0.00     0.157 HD
ATOM     53 1H16 UNL     1       5.133  23.282  21.165  1.00  0.00     0.157 HD
BRANCH  41  54
HETATM   54  N10 UNL     1       4.345  28.193  20.042  1.00  0.00    -0.208 N
HETATM   55  C16 UNL     1       4.327  28.625  18.663  1.00  0.00     0.176 C
HETATM   56  C17 UNL     1       3.885  30.086  18.769  1.00  0.00     0.167 C
HETATM   57  C18 UNL     1       4.103  30.457  20.196  1.00  0.00     0.171 C
HETATM   58  C19 UNL     1       4.946  29.287  20.754  1.00  0.00     0.129 C
HETATM   59  C20 UNL     1       4.671  29.295  22.235  1.00  0.00     0.036 C
BRANCH  56  60
HETATM   60  O7  UNL     1       4.602  30.905  17.930  1.00  0.00    -0.391 OA
ATOM     61  H7  UNL     1       5.056  31.593  18.403  1.00  0.00     0.210 HD
ENDBRANCH  56  60
BRANCH  57  62
HETATM   62  O8  UNL     1       4.790  31.648  20.359  1.00  0.00    -0.391 OA
ATOM     63  H8  UNL     1       5.372  31.650  21.109  1.00  0.00     0.210 HD
ENDBRANCH  57  62
ENDBRANCH  41  54
BRANCH  47  64
HETATM   64  N13 UNL     1      -0.018  23.351  22.721  1.00  0.00    -0.233 N
ATOM     65 2H13 UNL     1      -0.861  23.923  22.775  1.00  0.00     0.174 HD
ATOM     66 1H13 UNL     1      -0.058  22.383  23.038  1.00  0.00     0.174 HD
ENDBRANCH  47  64
BRANCH  49  67
HETATM   67  N15 UNL     1       2.107  21.770  22.509  1.00  0.00    -0.322 N
ATOM     68 2H15 UNL     1       1.318  21.404  23.043  1.00  0.00     0.178 HD
ATOM     69 1H15 UNL     1       2.868  21.143  22.251  1.00  0.00     0.178 HD
ENDBRANCH  49  67
ENDBRANCH   1  40
TORSDOF 19
ENDMDL