MODEL 2
REMARK VINA RESULT: -8.651875683      3.854      8.499
REMARK  17 active torsions:
REMARK  status: ('A' for Active; 'I' for Inactive)
REMARK    1  A    between atoms: N1_1  and  C1_4
REMARK       I    between atoms: N5_14  and  C5_15
REMARK    2  A    between atoms: C5_15  and  C6_17
REMARK    3  A    between atoms: C6_17  and  O2_18
REMARK    4  A    between atoms: C6_17  and  C7_21
REMARK    5  A    between atoms: C7_21  and  C8_22
REMARK    6  A    between atoms: C7_21  and  N9_41
REMARK    7  A    between atoms: C8_22  and  N6_23
REMARK    8  A    between atoms: C9_24  and  O3_25
REMARK    9  A    between atoms: C10_27  and  C11_28
REMARK   10  A    between atoms: C11_28  and  O4_29
REMARK   11  A    between atoms: C11_28  and  O5_31
REMARK   12  A    between atoms: N9_41  and  C16_43
REMARK   13  A    between atoms: C16_43  and  C17_44
REMARK   14  A    between atoms: C17_44  and  C18_45
REMARK   15  A    between atoms: C18_45  and  N10_46
REMARK   16  A    between atoms: N10_46  and  C19_48
REMARK   17  A    between atoms: C20_54  and  C21_55
ROOT
HETATM    1  C7  UNL     1       9.559  23.042  21.057  1.00  0.00     0.070 C
ENDROOT
BRANCH   1   2
HETATM    2  C6  UNL     1       9.108  24.176  21.969  1.00  0.00     0.183 C
HETATM    3  S1  UNL     1       8.774  23.780  23.637  1.00  0.00    -0.049 SA
BRANCH   2   4
HETATM    4  C5  UNL     1       7.909  24.799  21.304  1.00  0.00     0.308 C
HETATM    5  N5  UNL     1       6.581  24.574  21.628  1.00  0.00    -0.207 N
HETATM    6  N2  UNL     1       5.487  25.334  21.105  1.00  0.00    -0.057 N
HETATM    7  C23 UNL     1       5.844  23.582  22.414  1.00  0.00     0.331 C
HETATM    8  C3  UNL     1       4.467  24.450  20.894  1.00  0.00     0.187 A
HETATM    9  C4  UNL     1       5.303  26.604  20.746  1.00  0.00     0.701 A
HETATM   10  C2  UNL     1       3.287  24.843  20.322  1.00  0.00     0.107 A
HETATM   11  O9  UNL     1       4.898  23.224  21.364  1.00  0.00    -0.312 OA
HETATM   12  C1  UNL     1       3.114  26.179  19.944  1.00  0.00     0.118 A
HETATM   13  N4  UNL     1       4.122  27.015  20.168  1.00  0.00    -0.175 N
ATOM     14  H4  UNL     1       4.018  27.995  19.904  1.00  0.00     0.186 HD
HETATM   15  N3  UNL     1       6.144  27.490  21.016  1.00  0.00    -0.233 N
ATOM     16  H32 UNL     1       7.019  27.187  21.444  1.00  0.00     0.174 HD
ATOM     17  H31 UNL     1       6.004  28.462  20.741  1.00  0.00     0.174 HD
HETATM   18  O1  UNL     1       8.298  25.599  20.362  1.00  0.00    -0.262 OA
BRANCH  12  19
HETATM   19  N1  UNL     1       1.997  26.576  19.382  1.00  0.00    -0.385 N
ATOM     20  H12 UNL     1       1.797  26.398  18.398  1.00  0.00     0.157 HD
ATOM     21  H11 UNL     1       1.289  27.071  19.924  1.00  0.00     0.157 HD
ENDBRANCH  12  19
ENDBRANCH   2   4
BRANCH   2  22
HETATM   22  O2  UNL     1      10.108  25.194  21.898  1.00  0.00    -0.348 OA
ATOM     23  H2  UNL     1      10.902  24.754  22.179  1.00  0.00     0.218 HD
ENDBRANCH   2  22
ENDBRANCH   1   2
BRANCH   1  24
HETATM   24  C8  UNL     1      10.938  23.273  20.600  1.00  0.00     0.196 C
BRANCH  24  25
HETATM   25  N6  UNL     1      11.938  22.311  20.991  1.00  0.00    -0.273 N
HETATM   26  C9  UNL     1      12.273  21.264  20.252  1.00  0.00     0.161 A
HETATM   27  C10 UNL     1      13.213  20.318  20.644  1.00  0.00     0.092 A
HETATM   28  C12 UNL     1      13.812  20.505  21.869  1.00  0.00     0.131 A
HETATM   29  N7  UNL     1      14.742  19.766  22.499  1.00  0.00    -0.350 N
HETATM   30  N8  UNL     1      13.470  21.569  22.616  1.00  0.00    -0.258 N
HETATM   31  C13 UNL     1      15.013  20.358  23.680  1.00  0.00     0.107 A
ATOM     32  H7  UNL     1      15.167  18.909  22.147  1.00  0.00     0.166 HD
HETATM   33  C14 UNL     1      14.221  21.485  23.753  1.00  0.00     0.120 A
HETATM   34  C15 UNL     1      12.553  22.469  22.204  1.00  0.00     0.336 A
HETATM   35  O6  UNL     1      12.292  23.437  22.962  1.00  0.00    -0.246 OA
BRANCH  26  36
HETATM   36  O3  UNL     1      11.702  21.040  19.013  1.00  0.00    -0.345 OA
ATOM     37  H3  UNL     1      12.194  20.645  18.302  1.00  0.00     0.219 HD
ENDBRANCH  26  36
BRANCH  27  38
HETATM   38  C11 UNL     1      13.559  19.155  19.779  1.00  0.00     0.296 C
BRANCH  38  39
HETATM   39  O4  UNL     1      14.491  19.527  18.800  1.00  0.00    -0.367 OA
ATOM     40  H4  UNL     1      14.751  18.775  18.282  1.00  0.00     0.213 HD
ENDBRANCH  38  39
BRANCH  38  41
HETATM   41  O5  UNL     1      13.929  18.043  20.492  1.00  0.00    -0.367 OA
ATOM     42  H5  UNL     1      13.191  17.577  20.866  1.00  0.00     0.213 HD
ENDBRANCH  38  41
ENDBRANCH  27  38
ENDBRANCH  24  25
ENDBRANCH   1  24
BRANCH   1  43
HETATM   43  N9  UNL     1       8.578  22.526  20.221  1.00  0.00    -0.389 N
ATOM     44  H9  UNL     1       8.242  23.116  19.460  1.00  0.00     0.159 HD
BRANCH  43  45
HETATM   45  C16 UNL     1       8.024  21.256  20.355  1.00  0.00     0.121 C
BRANCH  45  46
HETATM   46  C17 UNL     1       7.256  20.945  19.057  1.00  0.00     0.039 C
BRANCH  46  47
HETATM   47  C18 UNL     1       6.947  22.227  18.321  1.00  0.00     0.123 C
BRANCH  47  48
HETATM   48  N10 UNL     1       7.497  22.308  17.007  1.00  0.00    -0.373 N
ATOM     49  H10 UNL     1       7.292  21.561  16.344  1.00  0.00     0.161 HD
BRANCH  48  50
HETATM   50  C19 UNL     1       8.253  23.300  16.617  1.00  0.00     0.156 A
HETATM   51  N11 UNL     1       9.477  23.651  17.013  1.00  0.00    -0.223 N
HETATM   52  O7  UNL     1       9.839  24.712  16.350  1.00  0.00    -0.155 OA
ATOM     53  H11 UNL     1      10.036  23.170  17.717  1.00  0.00     0.198 HD
HETATM   54  N12 UNL     1       8.913  25.092  15.525  1.00  0.00    -0.234 N
HETATM   55  C20 UNL     1       7.891  24.226  15.661  1.00  0.00     0.154 A
ATOM     56  H12 UNL     1       8.953  25.893  14.894  1.00  0.00     0.197 HD
BRANCH  55  57
HETATM   57  C21 UNL     1       6.636  24.258  14.939  1.00  0.00     0.196 A
HETATM   58  N13 UNL     1       6.488  24.554  13.632  1.00  0.00    -0.276 N
HETATM   59  N14 UNL     1       5.208  24.482  13.335  1.00  0.00    -0.288 N
ATOM     60  H13 UNL     1       7.239  24.793  12.985  1.00  0.00     0.189 HD
HETATM   61  C22 UNL     1       4.572  24.141  14.469  1.00  0.00     0.251 A
ATOM     62  H14 UNL     1       4.783  24.652  12.424  1.00  0.00     0.188 HD
HETATM   63  O8  UNL     1       5.455  24.013  15.417  1.00  0.00    -0.284 OA
ENDBRANCH  55  57
ENDBRANCH  48  50
ENDBRANCH  47  48
ENDBRANCH  46  47
ENDBRANCH  45  46
ENDBRANCH  43  45
ENDBRANCH   1  43
TORSDOF 17
ENDMDL