MODEL 5
REMARK VINA RESULT: -9.081965995      3.958     10.993
REMARK  21 active torsions:
REMARK  status: ('A' for Active; 'I' for Inactive)
REMARK    1  A    between atoms: C2_2  and  O1_4
REMARK    2  A    between atoms: C2_2  and  C4_6
REMARK    3  A    between atoms: C4_6  and  O2_7
REMARK    4  A    between atoms: C6_10  and  O3_11
REMARK    5  A    between atoms: O3_11  and  C7_12
REMARK    6  A    between atoms: C7_12  and  C8_14
REMARK    7  A    between atoms: C8_14  and  C9_15
REMARK    8  A    between atoms: C9_15  and  O5_16
REMARK    9  A    between atoms: O5_16  and  C10_17
REMARK   10  A    between atoms: C10_17  and  C11_19
REMARK   11  A    between atoms: C14_22  and  N1_23
REMARK   12  A    between atoms: N1_23  and  O7_25
REMARK   13  A    between atoms: C15_29  and  N3_30
REMARK   14  A    between atoms: C18_38  and  O9_39
REMARK   15  A    between atoms: C19_41  and  O10_42
REMARK   16  A    between atoms: O10_42  and  S1_43
REMARK   17  A    between atoms: S1_43  and  O13_46
REMARK   18  A    between atoms: O13_46  and  N5_47
REMARK   19  A    between atoms: C20_50  and  O16_51
REMARK   20  A    between atoms: C21_53  and  C22_54
REMARK   21  A    between atoms: C22_54  and  O17_55
ROOT
HETATM    1  C11 UNL     1       9.618  23.358  18.607  1.00  0.00     0.078 A
HETATM    2  C12 UNL     1      10.592  22.446  19.026  1.00  0.00     0.037 A
HETATM    3  C13 UNL     1      11.203  22.535  20.255  1.00  0.00     0.030 A
HETATM    4  C14 UNL     1      12.139  21.539  20.485  1.00  0.00     0.151 A
HETATM    5  N2  UNL     1      12.887  21.358  21.602  1.00  0.00    -0.174 N
ATOM      6  H2  UNL     1      13.537  20.573  21.545  1.00  0.00     0.186 HD
HETATM    7  C15 UNL     1      12.929  22.020  22.771  1.00  0.00     0.680 A
HETATM    8  N4  UNL     1      12.260  23.144  23.077  1.00  0.00    -0.156 N
ATOM      9  H4  UNL     1      12.483  23.550  23.986  1.00  0.00     0.187 HD
HETATM   10  C16 UNL     1      11.326  23.821  22.351  1.00  0.00     0.273 A
HETATM   11  O8  UNL     1      10.832  24.835  22.904  1.00  0.00    -0.267 OA
HETATM   12  C17 UNL     1      10.832  23.564  21.090  1.00  0.00     0.082 A
HETATM   13  C18 UNL     1       9.857  24.474  20.669  1.00  0.00     0.118 A
HETATM   14  C19 UNL     1       9.235  24.388  19.432  1.00  0.00     0.142 A
ENDROOT
BRANCH   1  15
HETATM   15  C10 UNL     1       9.044  23.249  17.276  1.00  0.00     0.296 C
HETATM   16  O6  UNL     1       8.230  22.347  17.019  1.00  0.00    -0.259 OA
BRANCH  15  17
HETATM   17  O5  UNL     1       9.365  24.119  16.250  1.00  0.00    -0.317 OA
BRANCH  17  18
HETATM   18  C9  UNL     1       8.543  25.063  15.657  1.00  0.00     0.189 C
BRANCH  18  19
HETATM   19  C8  UNL     1       9.239  26.213  15.005  1.00  0.00     0.138 C
BRANCH  19  20
HETATM   20  C7  UNL     1       8.254  27.151  14.377  1.00  0.00     0.265 C
HETATM   21  O4  UNL     1       8.377  28.384  14.594  1.00  0.00    -0.265 OA
BRANCH  20  22
HETATM   22  O3  UNL     1       7.226  26.725  13.578  1.00  0.00    -0.281 OA
BRANCH  22  23
HETATM   23  C6  UNL     1       5.996  26.304  14.068  1.00  0.00     0.089 C
HETATM   24  C5  UNL     1       5.403  26.820  15.103  1.00  0.00     0.079 C
HETATM   25  C4  UNL     1       4.111  26.332  15.568  1.00  0.00     0.215 C
HETATM   26  O18 UNL     1       3.316  25.733  14.656  1.00  0.00    -0.339 OA
HETATM   27  C21 UNL     1       3.825  25.458  13.426  1.00  0.00     0.184 C
HETATM   28  C20 UNL     1       5.307  25.193  13.369  1.00  0.00     0.206 C
BRANCH  25  29
HETATM   29  C2  UNL     1       3.357  27.530  16.163  1.00  0.00     0.111 C
HETATM   30  C1  UNL     1       2.049  27.010  16.683  1.00  0.00     0.051 C
HETATM   31  C3  UNL     1       3.125  28.567  15.094  1.00  0.00     0.051 C
BRANCH  29  32
HETATM   32  O1  UNL     1       4.114  28.078  17.210  1.00  0.00    -0.385 OA
ATOM     33  H1  UNL     1       4.878  28.525  16.865  1.00  0.00     0.210 HD
ENDBRANCH  29  32
ENDBRANCH  25  29
BRANCH  25  34
HETATM   34  O2  UNL     1       4.282  25.429  16.644  1.00  0.00    -0.360 OA
ATOM     35  H2  UNL     1       3.528  25.564  17.205  1.00  0.00     0.213 HD
ENDBRANCH  25  34
BRANCH  27  36
HETATM   36  C22 UNL     1       3.139  24.197  12.910  1.00  0.00     0.199 C
BRANCH  36  37
HETATM   37  O17 UNL     1       3.872  23.770  11.804  1.00  0.00    -0.398 OA
ATOM     38  H17 UNL     1       4.653  23.350  12.143  1.00  0.00     0.209 HD
ENDBRANCH  36  37
ENDBRANCH  27  36
BRANCH  28  39
HETATM   39  O16 UNL     1       5.673  23.956  13.839  1.00  0.00    -0.386 OA
ATOM     40  H16 UNL     1       5.694  23.293  13.158  1.00  0.00     0.210 HD
ENDBRANCH  28  39
ENDBRANCH  22  23
ENDBRANCH  20  22
ENDBRANCH  19  20
ENDBRANCH  18  19
ENDBRANCH  17  18
ENDBRANCH  15  17
ENDBRANCH   1  15
BRANCH  14  41
HETATM   41  O10 UNL     1       8.251  25.331  19.067  1.00  0.00    -0.206 OA
BRANCH  41  42
HETATM   42  S1  UNL     1       6.658  25.137  19.622  1.00  0.00     0.432 S
HETATM   43  O11 UNL     1       6.542  25.406  21.109  1.00  0.00    -0.166 OA
HETATM   44  O12 UNL     1       5.696  26.062  18.907  1.00  0.00    -0.166 OA
BRANCH  42  45
HETATM   45  O13 UNL     1       6.087  23.548  19.299  1.00  0.00    -0.065 OA
BRANCH  45  46
HETATM   46  N5  UNL     1       6.092  22.561  20.250  1.00  0.00     0.022 N
HETATM   47  O14 UNL     1       7.090  21.857  20.449  1.00  0.00    -0.510 OA
HETATM   48  O15 UNL     1       4.967  22.340  21.007  1.00  0.00    -0.510 OA
ENDBRANCH  45  46
ENDBRANCH  42  45
ENDBRANCH  41  42
ENDBRANCH  14  41
BRANCH  13  49
HETATM   49  O9  UNL     1       9.541  25.472  21.543  1.00  0.00    -0.357 OA
ATOM     50  H9  UNL     1       8.616  25.596  21.729  1.00  0.00     0.217 HD
ENDBRANCH  13  49
BRANCH   4  51
HETATM   51  N1  UNL     1      12.289  20.722  19.517  1.00  0.00    -0.252 N
ATOM     52  H1  UNL     1      11.638  20.759  18.732  1.00  0.00     0.196 HD
BRANCH  51  53
HETATM   53  O7  UNL     1      13.298  19.796  19.501  1.00  0.00    -0.288 OA
ATOM     54  H7  UNL     1      13.162  18.911  19.185  1.00  0.00     0.244 HD
ENDBRANCH  51  53
ENDBRANCH   4  51
BRANCH   7  55
HETATM   55  N3  UNL     1      13.705  21.510  23.696  1.00  0.00    -0.234 N
ATOM     56  H32 UNL     1      14.404  22.124  24.113  1.00  0.00     0.174 HD
ATOM     57  H31 UNL     1      13.545  20.528  23.925  1.00  0.00     0.174 HD
ENDBRANCH   7  55
TORSDOF 21
ENDMDL