MODEL 4
REMARK VINA RESULT: -7.879793897      4.373     11.961
REMARK  20 active torsions:
REMARK  status: ('A' for Active; 'I' for Inactive)
REMARK    1  A    between atoms: O1_2  and  C2_3
REMARK    2  A    between atoms: C3_5  and  C4_6
REMARK    3  A    between atoms: C5_9  and  C6_10
REMARK    4  A    between atoms: C6_10  and  N2_11
REMARK    5  A    between atoms: C6_10  and  C7_15
REMARK    6  A    between atoms: C7_15  and  O4_16
REMARK    7  A    between atoms: C7_15  and  C8_18
REMARK    8  A    between atoms: C8_18  and  O5_19
REMARK    9  A    between atoms: C8_18  and  C9_21
REMARK   10  A    between atoms: C9_21  and  O6_22
REMARK   11  A    between atoms: C10_24  and  N3_25
REMARK   12  A    between atoms: N3_25  and  C11_27
REMARK   13  A    between atoms: C11_27  and  O7_29
REMARK   14  A    between atoms: C13_31  and  O8_32
REMARK   15  A    between atoms: C16_37  and  O10_38
REMARK   16  A    between atoms: O10_38  and  C17_39
REMARK   17  A    between atoms: C19_42  and  O12_43
REMARK   18  A    between atoms: C20_45  and  O13_46
REMARK   19  A    between atoms: O13_46  and  C21_47
REMARK   20  A    between atoms: C23_50  and  O15_51
ROOT
HETATM    1  C2  UNL     1       7.030  23.395  20.734  1.00  0.00     0.199 C
HETATM    2  O2  UNL     1       6.611  23.708  19.535  1.00  0.00    -0.287 OA
HETATM    3  C3  UNL     1       7.100  23.705  18.341  1.00  0.00     0.116 C
HETATM    4  C13 UNL     1       8.373  23.183  18.044  1.00  0.00     0.149 C
HETATM    5  C14 UNL     1       9.487  23.068  18.864  1.00  0.00     0.221 C
HETATM    6  O9  UNL     1      10.616  23.130  18.360  1.00  0.00    -0.284 OA
HETATM    7  C15 UNL     1       9.480  22.886  20.240  1.00  0.00     0.071 A
HETATM    8  C16 UNL     1      10.535  22.554  21.043  1.00  0.00     0.123 A
HETATM    9  C24 UNL     1      10.093  22.522  22.367  1.00  0.00     0.140 A
HETATM   10  C25 UNL     1       8.752  22.833  22.392  1.00  0.00     0.124 A
HETATM   11  C26 UNL     1       8.300  23.071  21.114  1.00  0.00     0.076 A
HETATM   12  O16 UNL     1       8.373  22.783  23.724  1.00  0.00    -0.322 OA
HETATM   13  C27 UNL     1       9.532  22.811  24.570  1.00  0.00     0.352 C
HETATM   14  O17 UNL     1      10.505  22.290  23.670  1.00  0.00    -0.320 OA
ENDROOT
BRANCH   3  15
HETATM   15  C4  UNL     1       6.427  24.215  17.173  1.00  0.00     0.191 C
HETATM   16  N1  UNL     1       7.192  25.206  16.468  1.00  0.00    -0.086 NA
HETATM   17  O3  UNL     1       6.335  25.433  15.416  1.00  0.00    -0.276 OA
HETATM   18  C5  UNL     1       5.106  25.658  15.986  1.00  0.00     0.204 C
HETATM   19  C10 UNL     1       5.060  24.746  17.223  1.00  0.00     0.140 C
BRANCH  18  20
HETATM   20  C6  UNL     1       3.981  25.609  15.062  1.00  0.00     0.247 C
BRANCH  20  21
HETATM   21  N2  UNL     1       2.787  26.341  15.533  1.00  0.00    -0.070 N
ATOM     22  H23 UNL     1       2.347  25.848  16.309  1.00  0.00     0.274 HD
ATOM     23  H22 UNL     1       3.058  27.203  16.007  1.00  0.00     0.274 HD
ATOM     24  H21 UNL     1       2.105  26.535  14.799  1.00  0.00     0.274 HD
ENDBRANCH  20  21
BRANCH  20  25
HETATM   25  C7  UNL     1       3.691  24.448  14.209  1.00  0.00     0.182 C
BRANCH  25  26
HETATM   26  O4  UNL     1       4.798  24.419  13.249  1.00  0.00    -0.391 OA
ATOM     27  H4  UNL     1       4.583  23.701  12.665  1.00  0.00     0.210 HD
ENDBRANCH  25  26
BRANCH  25  28
HETATM   28  C8  UNL     1       2.482  24.381  13.374  1.00  0.00     0.172 C
BRANCH  28  29
HETATM   29  O5  UNL     1       1.273  24.375  14.013  1.00  0.00    -0.391 OA
ATOM     30  H5  UNL     1       0.492  24.421  13.474  1.00  0.00     0.210 HD
ENDBRANCH  28  29
BRANCH  28  31
HETATM   31  C9  UNL     1       2.455  23.441  12.214  1.00  0.00     0.198 C
BRANCH  31  32
HETATM   32  O6  UNL     1       2.679  24.083  10.996  1.00  0.00    -0.398 OA
ATOM     33  H6  UNL     1       3.314  23.629  10.454  1.00  0.00     0.209 HD
ENDBRANCH  31  32
ENDBRANCH  28  31
ENDBRANCH  25  28
ENDBRANCH  20  25
ENDBRANCH  18  20
BRANCH  19  34
HETATM   34  N3  UNL     1       4.487  25.344  18.305  1.00  0.00    -0.388 N
ATOM     35  H3  UNL     1       3.893  24.703  18.832  1.00  0.00     0.156 HD
BRANCH  34  36
HETATM   36  C11 UNL     1       4.515  26.580  18.849  1.00  0.00     0.209 C
HETATM   37  C12 UNL     1       4.701  26.741  20.316  1.00  0.00     0.062 C
BRANCH  36  38
HETATM   38  O7  UNL     1       3.224  27.196  18.617  1.00  0.00    -0.378 OA
ATOM     39  H7  UNL     1       3.201  28.015  19.098  1.00  0.00     0.212 HD
ENDBRANCH  36  38
ENDBRANCH  34  36
ENDBRANCH  19  34
ENDBRANCH   3  15
BRANCH   4  40
HETATM   40  O8  UNL     1       8.588  22.709  16.763  1.00  0.00    -0.355 OA
ATOM     41  H8  UNL     1       9.210  23.179  16.219  1.00  0.00     0.218 HD
ENDBRANCH   4  40
BRANCH   1  42
HETATM   42  O1  UNL     1       6.124  23.376  21.777  1.00  0.00    -0.335 OA
HETATM   43  C1  UNL     1       4.733  23.169  21.621  1.00  0.00     0.212 C
ENDBRANCH   1  42
BRANCH   8  44
HETATM   44  O10 UNL     1      11.846  22.282  20.623  1.00  0.00    -0.314 OA
BRANCH  44  45
HETATM   45  C17 UNL     1      12.619  21.215  21.069  1.00  0.00     0.297 C
HETATM   46  O11 UNL     1      13.267  20.469  20.095  1.00  0.00    -0.356 OA
HETATM   47  C18 UNL     1      13.675  19.265  20.684  1.00  0.00     0.205 C
HETATM   48  C19 UNL     1      14.704  19.457  21.770  1.00  0.00     0.174 C
HETATM   49  C20 UNL     1      14.156  20.420  22.783  1.00  0.00     0.196 C
HETATM   50  C23 UNL     1      13.733  21.673  22.018  1.00  0.00     0.205 C
BRANCH  48  51
HETATM   51  O12 UNL     1      14.905  18.204  22.355  1.00  0.00    -0.391 OA
ATOM     52  H12 UNL     1      14.858  18.334  23.294  1.00  0.00     0.210 HD
ENDBRANCH  48  51
BRANCH  49  53
HETATM   53  O13 UNL     1      15.112  20.850  23.728  1.00  0.00    -0.311 OA
BRANCH  53  54
HETATM   54  C21 UNL     1      15.150  20.247  24.970  1.00  0.00     0.255 C
HETATM   55  C22 UNL     1      14.347  20.736  26.131  1.00  0.00     0.126 C
HETATM   56  O14 UNL     1      15.881  19.252  25.147  1.00  0.00    -0.266 OA
ENDBRANCH  53  54
ENDBRANCH  49  53
BRANCH  50  57
HETATM   57  O15 UNL     1      13.340  22.615  22.918  1.00  0.00    -0.388 OA
ATOM     58  H15 UNL     1      13.368  22.322  23.822  1.00  0.00     0.210 HD
ENDBRANCH  50  57
ENDBRANCH  44  45
ENDBRANCH   8  44
TORSDOF 20
ENDMDL