MODEL 5
REMARK VINA RESULT: -8.066940802      0.969      1.996
REMARK  8 active torsions:
REMARK  status: ('A' for Active; 'I' for Inactive)
REMARK    1  A    between atoms: O1_2  and  C2_3
REMARK    2  A    between atoms: N1_7  and  C6_8
REMARK    3  A    between atoms: C7_10  and  O2_11
REMARK    4  A    between atoms: C9_14  and  C10_15
REMARK       I    between atoms: C10_15  and  N2_17
REMARK    5  A    between atoms: N2_17  and  C11_19
REMARK    6  A    between atoms: C11_19  and  C12_21
REMARK    7  A    between atoms: C12_21  and  O5_23
REMARK    8  A    between atoms: O5_23  and  C13_24
ROOT
HETATM    1  C10 UNL     1     -26.638  23.039 -19.505  1.00  0.00     0.257 C
HETATM    2  O3  UNL     1     -25.794  24.004 -19.470  1.00  0.00    -0.267 OA
HETATM    3  N2  UNL     1     -26.585  22.244 -20.639  1.00  0.00    -0.318 N
ATOM      4  H2  UNL     1     -27.230  21.458 -20.721  1.00  0.00     0.166 HD
ENDROOT
BRANCH   1   5
HETATM    5  C9  UNL     1     -27.543  22.919 -18.344  1.00  0.00     0.069 A
HETATM    6  C6  UNL     1     -28.744  22.286 -18.391  1.00  0.00     0.096 A
HETATM    7  S1  UNL     1     -29.361  22.507 -16.776  1.00  0.00    -0.047 SA
HETATM    8  C7  UNL     1     -28.078  23.384 -16.123  1.00  0.00     0.110 A
HETATM    9  C8  UNL     1     -27.203  23.492 -17.151  1.00  0.00     0.064 A
BRANCH   6  10
HETATM   10  N1  UNL     1     -29.439  21.551 -19.416  1.00  0.00    -0.321 N
HETATM   11  C2  UNL     1     -29.401  20.181 -19.764  1.00  0.00     0.141 C
HETATM   12  C3  UNL     1     -29.819  20.012 -21.008  1.00  0.00     0.031 C
HETATM   13  C4  UNL     1     -30.175  21.326 -21.580  1.00  0.00     0.052 C
HETATM   14  C5  UNL     1     -30.344  22.198 -20.351  1.00  0.00     0.136 C
BRANCH  11  15
HETATM   15  O1  UNL     1     -28.974  19.198 -18.882  1.00  0.00    -0.341 OA
HETATM   16  C1  UNL     1     -29.803  18.826 -17.792  1.00  0.00     0.211 C
ENDBRANCH  11  15
ENDBRANCH   6  10
BRANCH   8  17
HETATM   17  O2  UNL     1     -27.906  23.909 -14.812  1.00  0.00    -0.354 OA
ATOM     18  H2  UNL     1     -28.422  23.766 -14.027  1.00  0.00     0.218 HD
ENDBRANCH   8  17
ENDBRANCH   1   5
BRANCH   3  19
HETATM   19  C11 UNL     1     -25.637  22.491 -21.719  1.00  0.00     0.372 C
HETATM   20  F1  UNL     1     -24.459  23.045 -21.197  1.00  0.00    -0.216 F
BRANCH  19  21
HETATM   21  C12 UNL     1     -26.180  23.339 -22.797  1.00  0.00     0.313 C
HETATM   22  O4  UNL     1     -26.821  24.418 -22.590  1.00  0.00    -0.260 OA
BRANCH  21  23
HETATM   23  O5  UNL     1     -26.022  23.005 -24.128  1.00  0.00    -0.312 OA
BRANCH  23  24
HETATM   24  C13 UNL     1     -26.445  21.777 -24.689  1.00  0.00     0.132 C
HETATM   25  C14 UNL     1     -25.973  21.713 -26.095  1.00  0.00     0.032 C
HETATM   26  C15 UNL     1     -27.043  21.525 -27.134  1.00  0.00     0.002 C
HETATM   27  C16 UNL     1     -27.731  20.211 -27.066  1.00  0.00     0.000 C
HETATM   28  C17 UNL     1     -29.006  20.346 -26.241  1.00  0.00     0.000 C
HETATM   29  C18 UNL     1     -28.541  20.374 -24.788  1.00  0.00     0.002 C
HETATM   30  C19 UNL     1     -27.953  21.727 -24.531  1.00  0.00     0.032 C
ENDBRANCH  23  24
ENDBRANCH  21  23
ENDBRANCH  19  21
ENDBRANCH   3  19
TORSDOF 8
ENDMDL