MODEL 3
REMARK VINA RESULT: -9.012215388      1.934      5.352
REMARK  8 active torsions:
REMARK  status: ('A' for Active; 'I' for Inactive)
REMARK    1  A    between atoms: C5_5  and  C6_6
REMARK    2  A    between atoms: N2_10  and  C8_11
REMARK    3  A    between atoms: C11_14  and  C12_15
REMARK    4  A    between atoms: C12_15  and  O1_16
REMARK    5  A    between atoms: C12_15  and  N3_18
REMARK    6  A    between atoms: N3_18  and  N4_20
REMARK    7  A    between atoms: C13_27  and  C14_28
REMARK    8  A    between atoms: C14_28  and  C15_29
ROOT
HETATM    1  C12 UNL     1     -29.788  19.668 -21.627  1.00  0.00     0.288 C
ENDROOT
BRANCH   1   2
HETATM    2  C11 UNL     1     -30.435  20.722 -22.508  1.00  0.00     0.090 A
HETATM    3  C6  UNL     1     -29.810  21.791 -23.097  1.00  0.00     0.071 A
HETATM    4  N1  UNL     1     -30.779  22.465 -23.789  1.00  0.00    -0.350 N
HETATM    5  C7  UNL     1     -31.953  21.794 -23.606  1.00  0.00     0.184 A
ATOM      6  H1  UNL     1     -30.647  23.312 -24.341  1.00  0.00     0.166 HD
HETATM    7  N2  UNL     1     -31.740  20.721 -22.817  1.00  0.00    -0.337 N
BRANCH   3   8
HETATM    8  C5  UNL     1     -28.424  22.230 -23.089  1.00  0.00    -0.007 A
HETATM    9  C4  UNL     1     -28.037  23.454 -22.600  1.00  0.00     0.014 A
HETATM   10  C3  UNL     1     -26.711  23.840 -22.602  1.00  0.00     0.007 A
HETATM   11  C2  UNL     1     -25.728  23.015 -23.093  1.00  0.00    -0.062 A
HETATM   12  C1  UNL     1     -24.286  23.435 -23.095  1.00  0.00     0.048 C
HETATM   13  C22 UNL     1     -26.095  21.785 -23.586  1.00  0.00     0.007 A
HETATM   14  C21 UNL     1     -27.416  21.395 -23.588  1.00  0.00     0.014 A
ENDBRANCH   3   8
BRANCH   7  15
HETATM   15  C8  UNL     1     -32.773  19.797 -22.426  1.00  0.00     0.082 C
HETATM   16  C9  UNL     1     -33.622  19.347 -23.595  1.00  0.00     0.032 C
HETATM   17  C10 UNL     1     -33.740  20.434 -21.423  1.00  0.00     0.032 C
ENDBRANCH   7  15
ENDBRANCH   1   2
BRANCH   1  18
HETATM   18  O1  UNL     1     -29.838  18.452 -22.322  1.00  0.00    -0.370 OA
ATOM     19  H1  UNL     1     -30.752  18.265 -22.502  1.00  0.00     0.212 HD
ENDBRANCH   1  18
BRANCH   1  20
HETATM   20  N3  UNL     1     -30.437  19.590 -20.361  1.00  0.00    -0.278 N
ATOM     21  H3  UNL     1     -31.438  19.404 -20.417  1.00  0.00     0.185 HD
BRANCH  20  22
HETATM   22  N4  UNL     1     -29.961  19.719 -19.084  1.00  0.00    -0.169 N
HETATM   23  N5  UNL     1     -29.927  18.633 -18.261  1.00  0.00    -0.205 N
HETATM   24  N6  UNL     1     -29.482  18.969 -17.089  1.00  0.00    -0.225 N
ATOM     25  H5  UNL     1     -30.211  17.690 -18.529  1.00  0.00     0.212 HD
HETATM   26  N7  UNL     1     -29.223  20.236 -17.118  1.00  0.00    -0.270 N
ATOM     27  H6  UNL     1     -29.359  18.347 -16.290  1.00  0.00     0.210 HD
HETATM   28  C13 UNL     1     -29.517  20.722 -18.365  1.00  0.00     0.143 A
ATOM     29  H7  UNL     1     -28.858  20.785 -16.339  1.00  0.00     0.190 HD
BRANCH  28  30
HETATM   30  C14 UNL     1     -29.295  22.121 -18.686  1.00  0.00     0.120 C
BRANCH  30  31
HETATM   31  C15 UNL     1     -27.804  22.299 -18.809  1.00  0.00    -0.051 A
HETATM   32  C16 UNL     1     -27.095  21.546 -19.724  1.00  0.00     0.010 A
HETATM   33  C17 UNL     1     -25.743  21.690 -19.845  1.00  0.00     0.043 A
HETATM   34  C18 UNL     1     -25.078  22.588 -19.054  1.00  0.00     0.116 A
HETATM   35  F1  UNL     1     -23.739  22.738 -19.165  1.00  0.00    -0.206 F
HETATM   36  C19 UNL     1     -25.752  23.345 -18.141  1.00  0.00     0.043 A
HETATM   37  C20 UNL     1     -27.145  23.196 -18.017  1.00  0.00     0.010 A
ENDBRANCH  30  31
ENDBRANCH  28  30
ENDBRANCH  20  22
ENDBRANCH   1  20
TORSDOF 8
ENDMDL