MODEL 3
REMARK VINA RESULT: -8.387614689      3.180      5.102
REMARK  7 active torsions:
REMARK  status: ('A' for Active; 'I' for Inactive)
REMARK    1  A    between atoms: C7_8  and  C8_9
REMARK    2  A    between atoms: C8_9  and  C9_10
REMARK    3  A    between atoms: C9_10  and  C10_11
REMARK    4  A    between atoms: C10_11  and  S1_12
REMARK    5  A    between atoms: S1_12  and  C11_15
REMARK    6  A    between atoms: C12_16  and  O3_17
REMARK    7  A    between atoms: N3_23  and  C14_24
ROOT
HETATM    1  N1  UNL     1     -31.531  18.870 -23.388  1.00  0.00    -0.197 NA
HETATM    2  C1  UNL     1     -31.962  19.530 -22.528  1.00  0.00     0.064 C
HETATM    3  C2  UNL     1     -32.477  20.342 -21.445  1.00  0.00     0.097 C
HETATM    4  C3  UNL     1     -33.925  20.047 -21.132  1.00  0.00     0.019 C
HETATM    5  C4  UNL     1     -34.862  20.459 -22.206  1.00  0.00     0.001 C
HETATM    6  C5  UNL     1     -34.268  21.151 -23.367  1.00  0.00     0.000 C
HETATM    7  C6  UNL     1     -33.104  22.021 -23.103  1.00  0.00     0.006 C
HETATM    8  C7  UNL     1     -32.390  21.798 -21.823  1.00  0.00     0.003 C
ENDROOT
BRANCH   8   9
HETATM    9  C8  UNL     1     -30.898  22.106 -22.017  1.00  0.00     0.007 C
BRANCH   9  10
HETATM   10  C9  UNL     1     -30.254  22.497 -20.730  1.00  0.00     0.016 C
BRANCH  10  11
HETATM   11  C10 UNL     1     -28.766  22.579 -20.757  1.00  0.00     0.147 C
BRANCH  11  12
HETATM   12  S1  UNL     1     -27.925  21.041 -20.744  1.00  0.00     0.196 S
HETATM   13  O1  UNL     1     -28.027  20.358 -22.080  1.00  0.00    -0.221 OA
HETATM   14  O2  UNL     1     -26.476  21.141 -20.376  1.00  0.00    -0.221 OA
BRANCH  12  15
HETATM   15  C11 UNL     1     -28.697  20.043 -19.507  1.00  0.00     0.192 A
HETATM   16  C12 UNL     1     -29.288  18.830 -19.786  1.00  0.00     0.184 A
HETATM   17  N2  UNL     1     -29.756  18.383 -18.604  1.00  0.00    -0.286 N
HETATM   18  C13 UNL     1     -29.463  19.286 -17.644  1.00  0.00     0.336 A
ATOM     19  H2  UNL     1     -30.252  17.504 -18.459  1.00  0.00     0.172 HD
HETATM   20  O4  UNL     1     -29.748  19.208 -16.400  1.00  0.00    -0.246 OA
HETATM   21  N3  UNL     1     -28.812  20.307 -18.202  1.00  0.00    -0.229 N
BRANCH  16  22
HETATM   22  O3  UNL     1     -29.388  18.190 -21.016  1.00  0.00    -0.344 OA
ATOM     23  H3  UNL     1     -30.150  18.123 -21.580  1.00  0.00     0.219 HD
ENDBRANCH  16  22
BRANCH  21  24
HETATM   24  C14 UNL     1     -28.299  21.504 -17.566  1.00  0.00     0.160 A
HETATM   25  N4  UNL     1     -27.059  21.968 -17.577  1.00  0.00    -0.345 N
HETATM   26  C15 UNL     1     -26.776  23.063 -16.948  1.00  0.00     0.097 A
ATOM     27  H4  UNL     1     -26.328  21.463 -18.080  1.00  0.00     0.167 HD
HETATM   28  C16 UNL     1     -27.797  23.701 -16.288  1.00  0.00     0.070 A
HETATM   29  S2  UNL     1     -29.117  22.668 -16.621  1.00  0.00    -0.064 SA
ENDBRANCH  21  24
ENDBRANCH  12  15
ENDBRANCH  11  12
ENDBRANCH  10  11
ENDBRANCH   9  10
ENDBRANCH   8   9
TORSDOF 7
ENDMDL