MODEL 2
REMARK VINA RESULT: -7.744148278      3.191      4.821
REMARK  10 active torsions:
REMARK  status: ('A' for Active; 'I' for Inactive)
REMARK    1  A    between atoms: C2_2  and  O1_3
REMARK    2  A    between atoms: O1_3  and  C3_4
REMARK    3  A    between atoms: C3_4  and  C4_6
REMARK    4  A    between atoms: C4_6  and  C6_9
REMARK    5  A    between atoms: C6_9  and  C18_28
REMARK    6  A    between atoms: N2_10  and  N3_12
REMARK    7  A    between atoms: N3_12  and  C7_14
REMARK    8  A    between atoms: C10_17  and  C11_18
REMARK    9  A    between atoms: C12_19  and  C13_20
REMARK   10  A    between atoms: C17_25  and  O4_26
ROOT
HETATM    1  C4  UNL     1     -27.329  23.167 -23.865  1.00  0.00     0.244 C
HETATM    2  C5  UNL     1     -27.001  24.534 -23.487  1.00  0.00     0.080 C
HETATM    3  N1  UNL     1     -26.734  25.620 -23.182  1.00  0.00    -0.196 NA
ENDROOT
BRANCH   1   4
HETATM    4  C3  UNL     1     -26.297  22.580 -24.762  1.00  0.00     0.282 C
HETATM    5  O2  UNL     1     -25.324  23.224 -25.225  1.00  0.00    -0.263 OA
BRANCH   4   6
HETATM    6  O1  UNL     1     -26.389  21.237 -25.132  1.00  0.00    -0.321 OA
BRANCH   6   7
HETATM    7  C2  UNL     1     -26.213  20.876 -26.490  1.00  0.00     0.174 C
HETATM    8  C1  UNL     1     -27.468  21.200 -27.236  1.00  0.00     0.034 C
ENDBRANCH   6   7
ENDBRANCH   4   6
ENDBRANCH   1   4
BRANCH   1   9
HETATM    9  C6  UNL     1     -27.533  22.364 -22.645  1.00  0.00     0.063 C
HETATM   10  N2  UNL     1     -28.384  21.410 -22.686  1.00  0.00    -0.302 N
ATOM     11  H2  UNL     1     -28.493  20.878 -21.823  1.00  0.00     0.186 HD
BRANCH  10  12
HETATM   12  N3  UNL     1     -29.173  21.006 -23.741  1.00  0.00    -0.298 N
ATOM     13  H3  UNL     1     -28.775  20.719 -24.634  1.00  0.00     0.187 HD
BRANCH  12  14
HETATM   14  C7  UNL     1     -30.579  21.011 -23.510  1.00  0.00     0.081 A
HETATM   15  C8  UNL     1     -31.427  21.655 -24.376  1.00  0.00     0.035 A
HETATM   16  C9  UNL     1     -32.785  21.676 -24.139  1.00  0.00     0.024 A
HETATM   17  C10 UNL     1     -33.352  21.059 -23.035  1.00  0.00     0.026 A
HETATM   18  C15 UNL     1     -32.469  20.419 -22.185  1.00  0.00    -0.008 A
HETATM   19  C16 UNL     1     -33.045  19.736 -20.990  1.00  0.00     0.052 C
HETATM   20  C17 UNL     1     -31.097  20.388 -22.409  1.00  0.00     0.101 A
BRANCH  17  21
HETATM   21  C11 UNL     1     -34.775  21.105 -22.784  1.00  0.00    -0.058 C
HETATM   22  C12 UNL     1     -35.965  21.163 -22.552  1.00  0.00    -0.024 C
BRANCH  22  23
HETATM   23  C13 UNL     1     -37.364  21.219 -22.255  1.00  0.00     0.198 C
HETATM   24  C14 UNL     1     -38.205  20.003 -22.162  1.00  0.00     0.106 C
HETATM   25  O3  UNL     1     -37.890  22.341 -22.069  1.00  0.00    -0.284 OA
ENDBRANCH  22  23
ENDBRANCH  17  21
BRANCH  20  26
HETATM   26  O4  UNL     1     -30.332  19.710 -21.477  1.00  0.00    -0.358 OA
ATOM     27  H4  UNL     1     -29.834  18.925 -21.672  1.00  0.00     0.217 HD
ENDBRANCH  20  26
ENDBRANCH  12  14
ENDBRANCH  10  12
BRANCH   9  28
HETATM   28  C18 UNL     1     -26.845  22.579 -21.381  1.00  0.00    -0.010 A
HETATM   29  C19 UNL     1     -27.560  22.696 -20.201  1.00  0.00     0.016 A
HETATM   30  C20 UNL     1     -26.962  22.910 -18.990  1.00  0.00     0.043 A
HETATM   31  C21 UNL     1     -25.596  23.016 -18.912  1.00  0.00     0.116 A
HETATM   32  F1  UNL     1     -24.965  23.232 -17.711  1.00  0.00    -0.206 F
HETATM   33  C22 UNL     1     -24.857  22.904 -20.063  1.00  0.00     0.043 A
HETATM   34  C23 UNL     1     -25.482  22.686 -21.298  1.00  0.00     0.016 A
ENDBRANCH   9  28
ENDBRANCH   1   9
TORSDOF 10
ENDMDL