MODEL 4
REMARK VINA RESULT: -7.424126698      1.756      2.308
REMARK  7 active torsions:
REMARK  status: ('A' for Active; 'I' for Inactive)
REMARK    1  A    between atoms: C2_2  and  C3_4
REMARK    2  A    between atoms: C3_4  and  C4_5
REMARK    3  A    between atoms: C5_6  and  N1_7
REMARK    4  A    between atoms: N1_7  and  C6_9
REMARK    5  A    between atoms: C9_14  and  C10_15
REMARK    6  A    between atoms: N3_18  and  N4_19
REMARK    7  A    between atoms: C13_20  and  O1_21
ROOT
HETATM    1  C4  UNL     1     -28.487  22.548 -19.683  1.00  0.00     0.062 A
HETATM    2  C5  UNL     1     -29.437  21.978 -19.033  1.00  0.00     0.115 A
HETATM    3  N2  UNL     1     -30.669  21.620 -19.706  1.00  0.00    -0.327 N
ATOM      4  H2  UNL     1     -31.394  21.171 -19.147  1.00  0.00     0.169 HD
HETATM    5  C8  UNL     1     -30.946  21.843 -21.067  1.00  0.00     0.129 A
HETATM    6  C9  UNL     1     -32.044  21.513 -21.684  1.00  0.00     0.028 C
HETATM    7  N3  UNL     1     -29.893  22.479 -21.809  1.00  0.00    -0.193 N
HETATM    8  C20 UNL     1     -28.713  22.814 -21.130  1.00  0.00     0.279 A
HETATM    9  O2  UNL     1     -27.810  23.377 -21.834  1.00  0.00    -0.265 OA
ENDROOT
BRANCH   7  10
HETATM   10  N4  UNL     1     -30.068  22.752 -23.186  1.00  0.00    -0.194 N
HETATM   11  C13 UNL     1     -30.673  23.841 -23.694  1.00  0.00     0.188 A
HETATM   12  C14 UNL     1     -30.606  23.678 -25.075  1.00  0.00     0.067 A
HETATM   13  N5  UNL     1     -29.975  22.518 -25.376  1.00  0.00    -0.322 N
HETATM   14  C19 UNL     1     -31.058  24.483 -26.225  1.00  0.00     0.062 C
HETATM   15  C15 UNL     1     -29.653  21.961 -24.193  1.00  0.00     0.203 A
HETATM   16  C16 UNL     1     -29.755  22.075 -26.725  1.00  0.00     0.131 C
HETATM   17  S1  UNL     1     -28.873  20.538 -23.950  1.00  0.00    -0.038 SA
HETATM   18  C17 UNL     1     -30.869  22.427 -27.664  1.00  0.00     0.021 C
HETATM   19  C18 UNL     1     -31.702  23.578 -27.242  1.00  0.00     0.008 C
BRANCH  11  20
HETATM   20  O1  UNL     1     -31.244  24.907 -23.019  1.00  0.00    -0.343 OA
ATOM     21  H1  UNL     1     -32.132  25.240 -23.077  1.00  0.00     0.219 HD
ENDBRANCH  11  20
ENDBRANCH   7  10
BRANCH   6  22
HETATM   22  C10 UNL     1     -33.184  20.841 -21.049  1.00  0.00     0.012 A
HETATM   23  C11 UNL     1     -33.210  19.310 -21.053  1.00  0.00     0.009 A
HETATM   24  C12 UNL     1     -34.195  20.128 -21.885  1.00  0.00     0.009 A
ENDBRANCH   6  22
BRANCH   1  25
HETATM   25  C3  UNL     1     -27.167  23.004 -19.227  1.00  0.00     0.117 C
BRANCH  25  26
HETATM   26  C2  UNL     1     -26.017  22.151 -19.278  1.00  0.00     0.089 C
HETATM   27  C1  UNL     1     -24.954  22.322 -18.515  1.00  0.00     0.052 C
HETATM   28  F1  UNL     1     -26.029  21.045 -20.109  1.00  0.00    -0.211 F
ENDBRANCH  25  26
ENDBRANCH   1  25
BRANCH   2  29
HETATM   29  N1  UNL     1     -29.344  21.669 -17.651  1.00  0.00    -0.376 N
ATOM     30  H1  UNL     1     -29.712  22.312 -16.950  1.00  0.00     0.161 HD
BRANCH  29  31
HETATM   31  C6  UNL     1     -28.710  20.413 -17.250  1.00  0.00     0.116 C
HETATM   32  C7  UNL     1     -29.482  19.195 -17.618  1.00  0.00     0.026 C
ENDBRANCH  29  31
ENDBRANCH   2  29
TORSDOF 7
ENDMDL