MODEL 2
REMARK VINA RESULT: -7.792828168      3.418      6.785
REMARK  11 active torsions:
REMARK  status: ('A' for Active; 'I' for Inactive)
REMARK    1  A    between atoms: O1_2  and  N1_3
REMARK    2  A    between atoms: N1_3  and  S1_5
REMARK    3  A    between atoms: C3_8  and  C4_9
REMARK    4  A    between atoms: C5_10  and  C6_11
REMARK    5  A    between atoms: C6_11  and  C7_12
REMARK    6  A    between atoms: C7_12  and  C8_13
REMARK    7  A    between atoms: C8_13  and  N2_14
REMARK    8  A    between atoms: C11_17  and  O3_18
REMARK    9  A    between atoms: N3_20  and  N4_21
REMARK   10  A    between atoms: N4_21  and  C12_23
REMARK   11  A    between atoms: C12_23  and  C13_27
ROOT
HETATM    1  S1  UNL     1     -28.793  21.333 -17.370  1.00  0.00     0.094 SA
HETATM    2  C2  UNL     1     -29.411  19.674 -17.576  1.00  0.00     0.255 A
HETATM    3  O2  UNL     1     -29.962  18.995 -16.687  1.00  0.00    -0.277 OA
HETATM    4  C3  UNL     1     -29.100  19.372 -18.995  1.00  0.00     0.077 A
HETATM    5  C11 UNL     1     -28.450  20.426 -19.698  1.00  0.00     0.184 A
HETATM    6  N3  UNL     1     -28.170  21.630 -18.998  1.00  0.00    -0.186 N
ENDROOT
BRANCH   6   7
HETATM    7  N4  UNL     1     -27.543  22.793 -19.486  1.00  0.00    -0.269 N
ATOM      8  H4  UNL     1     -28.085  23.652 -19.586  1.00  0.00     0.190 HD
BRANCH   7   9
HETATM    9  C12 UNL     1     -26.169  22.789 -19.840  1.00  0.00     0.124 C
HETATM   10  N5  UNL     1     -25.253  22.553 -18.990  1.00  0.00    -0.384 N
ATOM     11  H52 UNL     1     -25.524  22.366 -18.024  1.00  0.00     0.157 HD
ATOM     12  H51 UNL     1     -24.265  22.549 -19.244  1.00  0.00     0.157 HD
BRANCH   9  13
HETATM   13  C13 UNL     1     -25.777  23.059 -21.238  1.00  0.00     0.009 A
HETATM   14  C14 UNL     1     -26.713  23.341 -22.225  1.00  0.00     0.017 A
HETATM   15  C15 UNL     1     -26.335  23.582 -23.539  1.00  0.00     0.025 A
HETATM   16  C16 UNL     1     -25.011  23.548 -23.903  1.00  0.00     0.034 A
HETATM   17 CL1  UNL     1     -24.471  23.841 -25.539  1.00  0.00    -0.084 Cl
HETATM   18  C17 UNL     1     -24.056  23.270 -22.948  1.00  0.00     0.025 A
HETATM   19  C18 UNL     1     -24.461  23.034 -21.645  1.00  0.00     0.017 A
ENDBRANCH   9  13
ENDBRANCH   7   9
ENDBRANCH   6   7
BRANCH   1  20
HETATM   20  N1  UNL     1     -28.847  22.372 -16.140  1.00  0.00    -0.224 N
ATOM     21  H1  UNL     1     -28.807  21.987 -15.196  1.00  0.00     0.204 HD
BRANCH  20  22
HETATM   22  O1  UNL     1     -28.942  23.723 -16.261  1.00  0.00    -0.278 OA
HETATM   23  C1  UNL     1     -27.785  24.511 -16.100  1.00  0.00     0.238 C
ENDBRANCH  20  22
ENDBRANCH   1  20
BRANCH   5  24
HETATM   24  O3  UNL     1     -28.090  20.361 -20.955  1.00  0.00    -0.344 OA
ATOM     25  H3  UNL     1     -27.217  20.556 -21.272  1.00  0.00     0.219 HD
ENDBRANCH   5  24
BRANCH   4  26
HETATM   26  C4  UNL     1     -29.449  18.154 -19.465  1.00  0.00     0.020 C
HETATM   27  C5  UNL     1     -30.617  17.919 -20.253  1.00  0.00     0.001 C
BRANCH  27  28
HETATM   28  C6  UNL     1     -30.900  16.702 -20.685  1.00  0.00     0.001 C
BRANCH  28  29
HETATM   29  C7  UNL     1     -29.944  15.872 -21.350  1.00  0.00     0.017 C
BRANCH  29  30
HETATM   30  C8  UNL     1     -30.310  15.242 -22.485  1.00  0.00     0.084 C
BRANCH  30  31
HETATM   31  N2  UNL     1     -29.758  15.681 -23.710  1.00  0.00    -0.398 N
HETATM   32  C9  UNL     1     -30.179  16.979 -24.215  1.00  0.00     0.148 C
HETATM   33  C10 UNL     1     -28.795  14.843 -24.441  1.00  0.00     0.148 C
ENDBRANCH  30  31
ENDBRANCH  29  30
ENDBRANCH  28  29
ENDBRANCH  27  28
ENDBRANCH   4  26
TORSDOF 11
ENDMDL