MODEL 4
REMARK VINA RESULT: -6.688273325      3.969      8.259
REMARK  7 active torsions:
REMARK  status: ('A' for Active; 'I' for Inactive)
REMARK    1  A    between atoms: C2_2  and  O1_3
REMARK    2  A    between atoms: C2_2  and  C3_5
REMARK    3  A    between atoms: C3_5  and  S1_6
REMARK    4  A    between atoms: S1_6  and  S2_7
REMARK    5  A    between atoms: S2_7  and  C4_8
REMARK    6  A    between atoms: C5_9  and  N1_10
REMARK    7  A    between atoms: C7_12  and  C8_13
ROOT
HETATM    1  N1  UNL     1     -25.966  22.960 -19.439  1.00  0.00    -0.277 N
HETATM    2  C6  UNL     1     -26.672  21.853 -19.157  1.00  0.00     0.130 A
HETATM    3  C7  UNL     1     -27.408  22.063 -18.010  1.00  0.00     0.018 A
HETATM    4  C12 UNL     1     -27.116  23.354 -17.606  1.00  0.00     0.106 A
HETATM    5 BR1  UNL     1     -27.866  24.191 -16.046  1.00  0.00    -0.029 Br
HETATM    6  N3  UNL     1     -26.252  23.857 -18.487  1.00  0.00    -0.287 N
ATOM      7  H3  UNL     1     -25.861  24.798 -18.442  1.00  0.00     0.188 HD
ENDROOT
BRANCH   1   8
HETATM    8  C5  UNL     1     -25.043  23.207 -20.497  1.00  0.00     0.123 C
HETATM    9  C4  UNL     1     -25.354  22.866 -21.723  1.00  0.00     0.076 C
BRANCH   9  10
HETATM   10  S2  UNL     1     -24.129  23.215 -23.002  1.00  0.00    -0.068 SA
BRANCH  10  11
HETATM   11  S1  UNL     1     -25.015  24.053 -24.735  1.00  0.00    -0.091 SA
BRANCH  11  12
HETATM   12  C3  UNL     1     -24.230  23.479 -26.257  1.00  0.00     0.117 C
BRANCH  12  13
HETATM   13  C2  UNL     1     -25.095  22.440 -26.953  1.00  0.00     0.124 C
HETATM   14  C1  UNL     1     -26.125  21.981 -25.953  1.00  0.00     0.040 C
BRANCH  13  15
HETATM   15  O1  UNL     1     -24.261  21.448 -27.414  1.00  0.00    -0.395 OA
ATOM     16  H1  UNL     1     -24.664  20.845 -28.028  1.00  0.00     0.210 HD
ENDBRANCH  13  15
ENDBRANCH  12  13
ENDBRANCH  11  12
ENDBRANCH  10  11
ENDBRANCH   9  10
ENDBRANCH   1   8
BRANCH   3  17
HETATM   17  C8  UNL     1     -28.331  21.121 -17.345  1.00  0.00     0.040 C
HETATM   18  C9  UNL     1     -28.896  20.140 -17.984  1.00  0.00     0.079 C
HETATM   19  S3  UNL     1     -28.774  19.642 -19.712  1.00  0.00    -0.024 SA
HETATM   20  C11 UNL     1     -29.822  19.158 -17.440  1.00  0.00     0.266 C
HETATM   21  C10 UNL     1     -30.415  18.853 -19.729  1.00  0.00     0.291 C
HETATM   22  O2  UNL     1     -31.160  18.685 -20.711  1.00  0.00    -0.260 OA
HETATM   23  N2  UNL     1     -30.611  18.492 -18.372  1.00  0.00    -0.283 N
ATOM     24  H2  UNL     1     -31.292  17.784 -18.096  1.00  0.00     0.172 HD
HETATM   25  O3  UNL     1     -29.888  18.940 -16.172  1.00  0.00    -0.267 OA
ENDBRANCH   3  17
TORSDOF 7
ENDMDL