MODEL 5
REMARK VINA RESULT: -7.704362982      3.267      4.491
REMARK  9 active torsions:
REMARK  status: ('A' for Active; 'I' for Inactive)
REMARK    1  A    between atoms: C3_3  and  C4_4
REMARK    2  A    between atoms: C3_3  and  C11_19
REMARK    3  A    between atoms: C4_4  and  N2_9
REMARK    4  A    between atoms: N1_5  and  O1_7
REMARK    5  A    between atoms: N2_9  and  N3_11
REMARK    6  A    between atoms: C11_19  and  S1_20
REMARK    7  A    between atoms: C11_19  and  C19_29
REMARK    8  A    between atoms: S1_20  and  C12_21
REMARK    9  A    between atoms: C19_29  and  O3_31
ROOT
HETATM    1  C1  UNL     1     -24.935  22.333 -18.832  1.00  0.00     0.013 C
HETATM    2  C2  UNL     1     -25.492  22.660 -19.861  1.00  0.00    -0.103 C
HETATM    3  C3  UNL     1     -26.122  23.067 -21.107  1.00  0.00     0.158 C
ENDROOT
BRANCH   3   4
HETATM    4  C4  UNL     1     -25.200  22.654 -22.227  1.00  0.00     0.133 C
HETATM    5  N1  UNL     1     -24.039  23.203 -22.267  1.00  0.00    -0.254 N
ATOM      6  H1  UNL     1     -23.822  23.881 -21.535  1.00  0.00     0.195 HD
BRANCH   5   7
HETATM    7  O1  UNL     1     -23.072  22.963 -23.196  1.00  0.00    -0.288 OA
ATOM      8  H1  UNL     1     -23.181  23.011 -24.139  1.00  0.00     0.244 HD
ENDBRANCH   5   7
BRANCH   4   9
HETATM    9  N2  UNL     1     -25.613  21.726 -23.179  1.00  0.00    -0.287 N
ATOM     10  H2  UNL     1     -25.791  20.763 -22.892  1.00  0.00     0.188 HD
BRANCH   9  11
HETATM   11  N3  UNL     1     -25.787  22.079 -24.510  1.00  0.00    -0.307 N
HETATM   12  C5  UNL     1     -26.764  21.663 -25.248  1.00  0.00     0.004 C
HETATM   13  C6  UNL     1     -26.760  22.166 -26.654  1.00  0.00     0.054 C
HETATM   14  C10 UNL     1     -27.769  20.764 -24.691  1.00  0.00     0.054 C
HETATM   15  C7  UNL     1     -27.967  21.759 -27.434  1.00  0.00     0.006 C
HETATM   16  C8  UNL     1     -29.141  21.771 -26.472  1.00  0.00     0.001 C
HETATM   17  C9  UNL     1     -29.024  20.609 -25.511  1.00  0.00     0.006 C
ATOM     18  H3  UNL     1     -25.102  22.707 -24.933  1.00  0.00     0.186 HD
ENDBRANCH   9  11
ENDBRANCH   4   9
ENDBRANCH   3   4
BRANCH   3  19
HETATM   19  C11 UNL     1     -27.468  22.462 -21.267  1.00  0.00     0.175 C
BRANCH  19  20
HETATM   20  S1  UNL     1     -28.150  21.995 -19.655  1.00  0.00    -0.113 SA
BRANCH  20  21
HETATM   21  C12 UNL     1     -29.006  20.450 -19.823  1.00  0.00     0.001 A
HETATM   22  C13 UNL     1     -29.295  20.071 -21.141  1.00  0.00     0.020 A
HETATM   23  C14 UNL     1     -29.936  18.893 -21.391  1.00  0.00     0.024 A
HETATM   24  C15 UNL     1     -30.302  18.070 -20.349  1.00  0.00     0.044 A
HETATM   25  C16 UNL     1     -30.977  16.824 -20.650  1.00  0.00     0.099 C
HETATM   26  C17 UNL     1     -30.012  18.456 -19.056  1.00  0.00     0.024 A
HETATM   27  N4  UNL     1     -31.512  15.830 -20.910  1.00  0.00    -0.191 NA
HETATM   28  C18 UNL     1     -29.353  19.664 -18.769  1.00  0.00     0.020 A
ENDBRANCH  20  21
ENDBRANCH  19  20
BRANCH  19  29
HETATM   29  C19 UNL     1     -28.433  23.242 -22.052  1.00  0.00     0.274 C
HETATM   30  O2  UNL     1     -29.666  23.213 -21.853  1.00  0.00    -0.264 OA
BRANCH  29  31
HETATM   31  O3  UNL     1     -27.988  24.078 -23.091  1.00  0.00    -0.326 OA
HETATM   32  C20 UNL     1     -28.905  24.591 -24.065  1.00  0.00     0.213 C
ENDBRANCH  29  31
ENDBRANCH  19  29
ENDBRANCH   3  19
TORSDOF 9
ENDMDL