MODEL 3
REMARK VINA RESULT: -7.040868811      1.543      1.841
REMARK  8 active torsions:
REMARK  status: ('A' for Active; 'I' for Inactive)
REMARK    1  A    between atoms: C2_2  and  C3_3
REMARK    2  A    between atoms: C3_3  and  C4_4
REMARK    3  A    between atoms: C4_4  and  N1_5
REMARK    4  A    between atoms: C5_6  and  O1_7
REMARK    5  A    between atoms: N2_13  and  N3_15
REMARK       I    between atoms: N3_15  and  C8_17
REMARK    6  A    between atoms: C8_17  and  C9_19
REMARK    7  A    between atoms: C11_21  and  O4_22
REMARK    8  A    between atoms: C14_26  and  C15_27
ROOT
HETATM    1  N3  UNL     1     -28.366  22.055 -21.071  1.00  0.00    -0.266 N
ATOM      2  H3  UNL     1     -29.149  22.650 -21.343  1.00  0.00     0.190 HD
HETATM    3  C8  UNL     1     -27.477  21.563 -22.072  1.00  0.00     0.270 C
HETATM    4  O3  UNL     1     -26.514  20.828 -21.709  1.00  0.00    -0.266 OA
ENDROOT
BRANCH   1   5
HETATM    5  N2  UNL     1     -28.188  21.745 -19.772  1.00  0.00    -0.304 N
HETATM    6  C3  UNL     1     -28.719  21.005 -18.924  1.00  0.00     0.021 C
ATOM      7  H2  UNL     1     -27.399  22.257 -19.374  1.00  0.00     0.186 HD
BRANCH   6   8
HETATM    8  C2  UNL     1     -29.867  20.139 -19.171  1.00  0.00     0.051 C
HETATM    9  C1  UNL     1     -29.927  18.873 -18.383  1.00  0.00     0.011 C
ENDBRANCH   6   8
BRANCH   6  10
HETATM   10  C4  UNL     1     -28.113  21.022 -17.542  1.00  0.00     0.189 C
BRANCH  10  11
HETATM   11  N1  UNL     1     -27.779  22.410 -17.138  1.00  0.00    -0.283 N
HETATM   12  C5  UNL     1     -28.635  23.180 -16.501  1.00  0.00     0.152 A
HETATM   13  C6  UNL     1     -28.228  24.449 -16.190  1.00  0.00     0.111 A
HETATM   14  S1  UNL     1     -26.647  24.490 -16.817  1.00  0.00    -0.036 SA
HETATM   15  C7  UNL     1     -26.581  22.908 -17.438  1.00  0.00     0.292 A
HETATM   16  O2  UNL     1     -25.621  22.308 -18.054  1.00  0.00    -0.259 OA
BRANCH  12  17
HETATM   17  O1  UNL     1     -29.958  22.792 -16.105  1.00  0.00    -0.345 OA
ATOM     18  H1  UNL     1     -30.556  22.273 -16.630  1.00  0.00     0.219 HD
ENDBRANCH  12  17
ENDBRANCH  10  11
ENDBRANCH   6  10
ENDBRANCH   1   5
BRANCH   3  19
HETATM   19  C9  UNL     1     -27.630  21.870 -23.471  1.00  0.00     0.037 A
HETATM   20  C10 UNL     1     -26.506  21.924 -24.268  1.00  0.00     0.057 A
HETATM   21  C11 UNL     1     -26.622  22.210 -25.595  1.00  0.00     0.108 A
HETATM   22  C13 UNL     1     -27.838  22.457 -26.201  1.00  0.00     0.156 A
HETATM   23  F1  UNL     1     -27.911  22.741 -27.535  1.00  0.00    -0.203 F
HETATM   24  C14 UNL     1     -28.945  22.401 -25.406  1.00  0.00    -0.008 A
HETATM   25  C19 UNL     1     -28.832  22.109 -24.054  1.00  0.00     0.028 A
BRANCH  21  26
HETATM   26  O4  UNL     1     -25.487  22.268 -26.410  1.00  0.00    -0.353 OA
HETATM   27  C12 UNL     1     -24.592  23.344 -26.276  1.00  0.00     0.210 C
ENDBRANCH  21  26
BRANCH  24  28
HETATM   28  C15 UNL     1     -30.285  22.654 -25.990  1.00  0.00    -0.021 C
HETATM   29  C16 UNL     1     -31.368  22.215 -25.025  1.00  0.00     0.019 C
HETATM   30  C17 UNL     1     -30.472  24.135 -26.223  1.00  0.00     0.019 C
HETATM   31  C18 UNL     1     -30.484  21.857 -27.271  1.00  0.00     0.019 C
ENDBRANCH  24  28
ENDBRANCH   3  19
TORSDOF 8
ENDMDL