MODEL 4
REMARK VINA RESULT: -7.014920808      2.844      4.858
REMARK  6 active torsions:
REMARK  status: ('A' for Active; 'I' for Inactive)
REMARK    1  A    between atoms: C3_3  and  C4_5
REMARK    2  A    between atoms: C4_5  and  C5_9
REMARK    3  A    between atoms: C7_11  and  O1_12
REMARK    4  A    between atoms: C9_14  and  O2_15
REMARK    5  A    between atoms: C11_17  and  O3_18
REMARK    6  A    between atoms: C13_20  and  C14_21
ROOT
HETATM    1  C1  UNL     1     -23.338  23.270 -22.763  1.00  0.00     0.014 C
HETATM    2  C2  UNL     1     -24.458  22.858 -22.963  1.00  0.00    -0.091 C
HETATM    3  C3  UNL     1     -25.818  22.381 -23.221  1.00  0.00     0.210 C
HETATM    4 CL1  UNL     1     -26.134  22.385 -24.953  1.00  0.00    -0.105 Cl
ENDROOT
BRANCH   3   5
HETATM    5  C4  UNL     1     -26.746  23.341 -22.516  1.00  0.00     0.044 C
HETATM    6  N1  UNL     1     -26.919  24.438 -22.992  1.00  0.00    -0.400 N
ATOM      7  H12 UNL     1     -26.487  24.728 -23.869  1.00  0.00     0.156 HD
ATOM      8  H11 UNL     1     -27.546  25.086 -22.516  1.00  0.00     0.156 HD
BRANCH   5   9
HETATM    9  C5  UNL     1     -27.371  22.921 -21.248  1.00  0.00     0.004 A
HETATM   10  C6  UNL     1     -26.589  22.734 -20.132  1.00  0.00     0.054 A
HETATM   11  C7  UNL     1     -27.161  22.287 -18.958  1.00  0.00     0.105 A
HETATM   12  C9  UNL     1     -28.515  22.039 -18.940  1.00  0.00     0.136 A
HETATM   13  C11 UNL     1     -29.328  22.214 -20.029  1.00  0.00     0.115 A
HETATM   14  C13 UNL     1     -28.746  22.665 -21.211  1.00  0.00     0.014 A
BRANCH  11  15
HETATM   15  O1  UNL     1     -26.347  22.113 -17.868  1.00  0.00    -0.353 OA
HETATM   16  C8  UNL     1     -25.106  22.645 -17.606  1.00  0.00     0.210 C
ENDBRANCH  11  15
BRANCH  12  17
HETATM   17  O2  UNL     1     -29.089  21.589 -17.761  1.00  0.00    -0.351 OA
HETATM   18  C10 UNL     1     -29.418  22.388 -16.664  1.00  0.00     0.210 C
ENDBRANCH  12  17
BRANCH  13  19
HETATM   19  O3  UNL     1     -30.703  21.945 -19.936  1.00  0.00    -0.352 OA
HETATM   20  C12 UNL     1     -31.253  20.671 -20.114  1.00  0.00     0.210 C
ENDBRANCH  13  19
BRANCH  14  21
HETATM   21  C14 UNL     1     -29.618  22.903 -22.331  1.00  0.00     0.040 C
HETATM   22  C15 UNL     1     -29.793  22.094 -23.359  1.00  0.00     0.076 C
HETATM   23  S1  UNL     1     -29.012  20.485 -23.671  1.00  0.00    -0.055 SA
HETATM   24  C17 UNL     1     -30.648  22.259 -24.521  1.00  0.00     0.264 C
HETATM   25  C16 UNL     1     -29.318  20.505 -25.436  1.00  0.00     0.146 C
HETATM   26  S2  UNL     1     -28.488  19.623 -26.520  1.00  0.00    -0.052 SA
HETATM   27  N2  UNL     1     -30.385  21.418 -25.600  1.00  0.00    -0.307 N
ATOM     28  H2  UNL     1     -30.931  21.459 -26.460  1.00  0.00     0.170 HD
HETATM   29  O4  UNL     1     -31.595  23.132 -24.551  1.00  0.00    -0.267 OA
ENDBRANCH  14  21
ENDBRANCH   5   9
ENDBRANCH   3   5
TORSDOF 6
ENDMDL