MODEL 5
REMARK VINA RESULT: -6.270996818      1.096      1.606
REMARK  6 active torsions:
REMARK  status: ('A' for Active; 'I' for Inactive)
REMARK    1  A    between atoms: O1_2  and  C2_3
REMARK    2  A    between atoms: N2_9  and  C6_10
REMARK    3  A    between atoms: C6_10  and  C7_11
REMARK    4  A    between atoms: N5_16  and  C8_17
REMARK    5  A    between atoms: C10_21  and  N7_22
REMARK    6  A    between atoms: C11_27  and  N9_28
ROOT
HETATM    1  C8  UNL     1      17.787  39.362  36.483  1.00  0.00     0.722 A
HETATM    2  N6  UNL     1      16.486  39.657  36.660  1.00  0.00    -0.181 N
ATOM      3  H6  UNL     1      15.918  39.350  37.448  1.00  0.00     0.184 HD
HETATM    4  C9  UNL     1      16.049  40.418  35.641  1.00  0.00     0.138 A
HETATM    5  C10 UNL     1      14.843  40.987  35.323  1.00  0.00     0.146 A
HETATM    6  N8  UNL     1      14.713  41.726  34.185  1.00  0.00    -0.175 N
ATOM      7  H8  UNL     1      13.809  42.143  33.963  1.00  0.00     0.186 HD
HETATM    8  C11 UNL     1      15.745  41.919  33.350  1.00  0.00     0.679 A
HETATM    9  N10 UNL     1      16.923  41.353  33.676  1.00  0.00    -0.174 N
ATOM     10  H10 UNL     1      17.716  41.492  33.048  1.00  0.00     0.186 HD
HETATM   11  C12 UNL     1      17.111  40.614  34.785  1.00  0.00     0.167 A
HETATM   12  N11 UNL     1      18.150  39.954  35.334  1.00  0.00    -0.170 N
ATOM     13  H11 UNL     1      19.085  39.910  34.931  1.00  0.00     0.186 HD
ENDROOT
BRANCH   1  14
HETATM   14  N5  UNL     1      18.611  38.567  37.361  1.00  0.00    -0.004 N
HETATM   15  N4  UNL     1      19.224  38.971  38.460  1.00  0.00    -0.204 N
HETATM   16  N3  UNL     1      19.888  37.990  39.016  1.00  0.00    -0.267 N
ATOM     17  H4  UNL     1      19.185  39.923  38.827  1.00  0.00     0.211 HD
HETATM   18  C7  UNL     1      19.705  36.917  38.261  1.00  0.00     0.153 A
ATOM     19  H3  UNL     1      20.442  38.042  39.871  1.00  0.00     0.190 HD
HETATM   20  N12 UNL     1      18.910  37.286  37.234  1.00  0.00    -0.246 N
ATOM     21  H12 UNL     1      18.590  36.675  36.483  1.00  0.00     0.191 HD
BRANCH  18  22
HETATM   22  C6  UNL     1      20.223  35.551  38.424  1.00  0.00     0.144 C
BRANCH  22  23
HETATM   23  N2  UNL     1      19.282  34.520  38.319  1.00  0.00    -0.337 N
HETATM   24  C2  UNL     1      18.451  34.464  37.176  1.00  0.00     0.243 C
HETATM   25  C3  UNL     1      18.426  33.171  36.438  1.00  0.00     0.168 C
HETATM   26  N1  UNL     1      19.076  32.074  37.101  1.00  0.00    -0.413 N
HETATM   27  C4  UNL     1      18.969  32.087  38.536  1.00  0.00     0.159 C
ATOM     28  H1  UNL     1      19.574  31.343  36.594  1.00  0.00     0.153 HD
HETATM   29  C5  UNL     1      19.360  33.399  39.152  1.00  0.00     0.085 C
BRANCH  24  30
HETATM   30  O1  UNL     1      17.133  34.854  37.422  1.00  0.00    -0.369 OA
HETATM   31  C1  UNL     1      16.369  33.899  38.030  1.00  0.00     0.204 C
ENDBRANCH  24  30
ENDBRANCH  22  23
ENDBRANCH  18  22
ENDBRANCH   1  14
BRANCH   5  32
HETATM   32  N7  UNL     1      13.838  40.819  36.105  1.00  0.00    -0.383 N
ATOM     33  H72 UNL     1      13.872  40.115  36.842  1.00  0.00     0.157 HD
ATOM     34  H71 UNL     1      13.005  41.396  35.984  1.00  0.00     0.157 HD
ENDBRANCH   5  32
BRANCH   8  35
HETATM   35  N9  UNL     1      15.618  42.629  32.255  1.00  0.00    -0.234 N
ATOM     36  H92 UNL     1      15.385  42.186  31.367  1.00  0.00     0.174 HD
ATOM     37  H91 UNL     1      15.748  43.640  32.258  1.00  0.00     0.174 HD
ENDBRANCH   8  35
TORSDOF 6
ENDMDL