MODEL 1
REMARK VINA RESULT: -7.064100657      0.000      0.000
REMARK  7 active torsions:
REMARK  status: ('A' for Active; 'I' for Inactive)
REMARK    1  A    between atoms: C6_9  and  N3_10
REMARK    2  A    between atoms: C6_9  and  N4_14
REMARK    3  A    between atoms: N4_14  and  C7_17
REMARK    4  A    between atoms: C7_17  and  C8_18
REMARK    5  A    between atoms: C8_18  and  S1_19
REMARK    6  A    between atoms: S1_19  and  C9_22
REMARK    7  A    between atoms: C11_28  and  N7_29
ROOT
HETATM    1  N4  UNL     1      19.303  36.788  39.283  1.00  0.00    -0.021 N
ATOM      2  H41 UNL     1      19.522  36.476  40.229  1.00  0.00     0.282 HD
ATOM      3  H42 UNL     1      18.289  36.682  39.317  1.00  0.00     0.282 HD
ENDROOT
BRANCH   1   4
HETATM    4  C6  UNL     1      19.900  35.928  38.281  1.00  0.00     0.363 C
HETATM    5  C5  UNL     1      19.511  34.507  38.611  1.00  0.00     0.165 C
HETATM    6  C4  UNL     1      18.033  34.411  38.402  1.00  0.00     0.096 C
HETATM    7  N1  UNL     1      17.574  35.031  37.373  1.00  0.00    -0.356 N
HETATM    8  N2  UNL     1      17.203  33.680  39.289  1.00  0.00    -0.088 NA
HETATM    9  C2  UNL     1      18.345  35.783  36.439  1.00  0.00     0.096 C
ATOM     10  H1  UNL     1      16.568  34.980  37.211  1.00  0.00     0.163 HD
HETATM   11  C1  UNL     1      18.727  34.831  35.299  1.00  0.00     0.062 C
HETATM   12  C3  UNL     1      17.447  36.839  35.822  1.00  0.00     0.062 C
HETATM   13  N9  UNL     1      19.565  36.322  36.957  1.00  0.00    -0.343 N
ATOM     14  H9  UNL     1      20.157  36.949  36.411  1.00  0.00     0.160 HD
BRANCH   4  15
HETATM   15  N3  UNL     1      21.349  36.010  38.422  1.00  0.00    -0.026 N
ATOM     16  H33 UNL     1      21.725  35.348  39.101  1.00  0.00     0.279 HD
ATOM     17  H32 UNL     1      21.853  35.658  37.608  1.00  0.00     0.279 HD
ATOM     18  H31 UNL     1      21.568  36.981  38.643  1.00  0.00     0.279 HD
ENDBRANCH   4  15
ENDBRANCH   1   4
BRANCH   1  19
HETATM   19  C7  UNL     1      19.694  38.184  39.069  1.00  0.00     0.253 C
BRANCH  19  20
HETATM   20  C8  UNL     1      18.578  38.984  38.484  1.00  0.00     0.175 C
BRANCH  20  21
HETATM   21  S1  UNL     1      19.087  39.914  37.060  1.00  0.00     0.194 S
HETATM   22  O1  UNL     1      20.026  39.144  36.199  1.00  0.00    -0.221 OA
HETATM   23  O2  UNL     1      19.806  41.141  37.566  1.00  0.00    -0.221 OA
BRANCH  21  24
HETATM   24  C9  UNL     1      17.714  40.374  36.082  1.00  0.00     0.161 A
HETATM   25  C10 UNL     1      16.455  40.564  36.608  1.00  0.00     0.150 A
HETATM   26  N5  UNL     1      15.445  40.919  35.787  1.00  0.00    -0.295 N
HETATM   27  N6  UNL     1      15.588  41.102  34.486  1.00  0.00    -0.133 N
ATOM     28  H5  UNL     1      14.519  41.054  36.194  1.00  0.00     0.186 HD
HETATM   29  C11 UNL     1      16.815  40.918  33.970  1.00  0.00     0.691 A
ATOM     30  H6  UNL     1      14.799  41.371  33.897  1.00  0.00     0.205 HD
HETATM   31  N8  UNL     1      17.864  40.559  34.761  1.00  0.00    -0.179 N
ATOM     32  H8  UNL     1      18.785  40.428  34.340  1.00  0.00     0.185 HD
BRANCH  29  33
HETATM   33  N7  UNL     1      16.962  41.094  32.706  1.00  0.00    -0.233 N
ATOM     34  H72 UNL     1      16.212  40.873  32.050  1.00  0.00     0.174 HD
ATOM     35  H71 UNL     1      17.856  41.462  32.380  1.00  0.00     0.174 HD
ENDBRANCH  29  33
ENDBRANCH  21  24
ENDBRANCH  20  21
ENDBRANCH  19  20
ENDBRANCH   1  19
TORSDOF 7
ENDMDL