MODEL 3
REMARK VINA RESULT: -7.640737464      2.136      6.651
REMARK  8 active torsions:
REMARK  status: ('A' for Active; 'I' for Inactive)
REMARK    1  A    between atoms: N1_1  and  C1_5
REMARK    2  A    between atoms: C1_5  and  N2_6
REMARK    3  A    between atoms: C3_11  and  S1_12
REMARK    4  A    between atoms: S1_12  and  C4_13
REMARK    5  A    between atoms: C6_18  and  O1_19
REMARK    6  A    between atoms: C6_18  and  C7_21
REMARK       I    between atoms: C7_21  and  N7_23
REMARK    7  A    between atoms: C11_27  and  C12_28
REMARK    8  A    between atoms: C12_28  and  O3_29
ROOT
HETATM    1  C4  UNL     1      17.627  39.528  37.070  1.00  0.00     0.111 C
HETATM    2  N5  UNL     1      17.942  40.559  37.768  1.00  0.00    -0.298 N
ATOM      3  H5  UNL     1      17.265  41.151  38.250  1.00  0.00     0.183 HD
HETATM    4  N6  UNL     1      19.320  40.773  37.789  1.00  0.00    -0.137 NA
HETATM    5  C5  UNL     1      19.847  40.100  36.598  1.00  0.00     0.190 C
HETATM    6  C6  UNL     1      18.877  38.931  36.551  1.00  0.00     0.203 C
ENDROOT
BRANCH   1   7
HETATM    7  S1  UNL     1      15.949  38.902  36.785  1.00  0.00    -0.035 SA
BRANCH   7   8
HETATM    8  C3  UNL     1      14.996  40.191  35.980  1.00  0.00     0.163 C
HETATM    9  N2  UNL     1      15.485  41.079  34.988  1.00  0.00    -0.247 N
HETATM   10  N3  UNL     1      14.669  42.210  34.998  1.00  0.00    -0.116 NA
HETATM   11  C2  UNL     1      13.369  41.611  35.317  1.00  0.00     0.258 C
HETATM   12  N4  UNL     1      13.743  40.492  36.187  1.00  0.00    -0.354 N
ATOM     13  H4  UNL     1      13.124  40.023  36.849  1.00  0.00     0.163 HD
BRANCH   9  14
HETATM   14  C1  UNL     1      16.629  40.851  34.120  1.00  0.00     0.375 C
BRANCH  14  15
HETATM   15  N1  UNL     1      16.660  41.770  33.023  1.00  0.00    -0.062 N
ATOM     16  H13 UNL     1      16.598  41.283  32.130  1.00  0.00     0.276 HD
ATOM     17  H12 UNL     1      15.799  42.313  32.971  1.00  0.00     0.276 HD
ATOM     18  H11 UNL     1      17.479  42.376  33.058  1.00  0.00     0.276 HD
ENDBRANCH  14  15
ENDBRANCH   9  14
ENDBRANCH   7   8
ENDBRANCH   1   7
BRANCH   6  19
HETATM   19  O1  UNL     1      18.647  38.631  35.214  1.00  0.00    -0.373 OA
ATOM     20  H1  UNL     1      19.276  39.134  34.711  1.00  0.00     0.211 HD
ENDBRANCH   6  19
BRANCH   6  21
HETATM   21  C7  UNL     1      19.345  37.798  37.361  1.00  0.00     0.263 C
HETATM   22  O2  UNL     1      20.046  38.122  38.380  1.00  0.00    -0.269 OA
HETATM   23  N7  UNL     1      19.065  36.442  37.073  1.00  0.00    -0.342 N
HETATM   24  C8  UNL     1      18.271  36.019  35.935  1.00  0.00     0.126 C
HETATM   25  C11 UNL     1      19.465  35.252  37.769  1.00  0.00     0.111 C
HETATM   26  C9  UNL     1      18.096  34.501  36.082  1.00  0.00     0.022 C
HETATM   27  C10 UNL     1      18.220  34.390  37.610  1.00  0.00     0.029 C
BRANCH  25  28
HETATM   28  C12 UNL     1      19.867  35.424  39.188  1.00  0.00     0.189 C
BRANCH  28  29
HETATM   29  O3  UNL     1      21.284  35.505  39.189  1.00  0.00    -0.399 OA
ATOM     30  H3  UNL     1      21.573  35.065  39.980  1.00  0.00     0.209 HD
ENDBRANCH  28  29
ENDBRANCH  25  28
ENDBRANCH   6  21
TORSDOF 8
ENDMDL