MODEL 1
REMARK VINA RESULT: -8.311746798      0.000      0.000
REMARK  7 active torsions:
REMARK  status: ('A' for Active; 'I' for Inactive)
REMARK    1  A    between atoms: N1_1  and  C1_4
REMARK    2  A    between atoms: N6_16  and  C5_17
REMARK    3  A    between atoms: C5_17  and  C10_30
REMARK    4  A    between atoms: N7_18  and  N8_20
REMARK    5  A    between atoms: N8_20  and  C6_22
REMARK    6  A    between atoms: C10_30  and  N11_31
REMARK    7  A    between atoms: C10_30  and  C11_35
ROOT
HETATM    1  C5  UNL     1      19.944  37.441  38.372  1.00  0.00     0.161 C
HETATM    2  N7  UNL     1      20.053  38.710  38.167  1.00  0.00    -0.271 N
ATOM      3  H7  UNL     1      20.427  39.281  38.926  1.00  0.00     0.189 HD
ENDROOT
BRANCH   1   4
HETATM    4  N6  UNL     1      19.440  36.595  37.377  1.00  0.00    -0.207 N
HETATM    5  C3  UNL     1      18.748  35.461  37.659  1.00  0.00     0.163 A
HETATM    6  N3  UNL     1      18.374  34.865  38.802  1.00  0.00    -0.335 N
HETATM    7  C4  UNL     1      18.389  34.852  36.473  1.00  0.00     0.139 A
HETATM    8  C2  UNL     1      17.678  33.719  38.859  1.00  0.00     0.183 A
ATOM      9  H3  UNL     1      18.636  35.310  39.681  1.00  0.00     0.168 HD
HETATM   10  N2  UNL     1      17.335  33.138  37.695  1.00  0.00    -0.337 N
HETATM   11  C1  UNL     1      17.665  33.661  36.505  1.00  0.00     0.132 A
ATOM     12  H2  UNL     1      16.805  32.267  37.718  1.00  0.00     0.168 HD
HETATM   13  N4  UNL     1      18.868  35.623  35.503  1.00  0.00    -0.279 N
HETATM   14  N5  UNL     1      19.486  36.649  36.067  1.00  0.00    -0.232 N
ATOM     15  H4  UNL     1      18.775  35.455  34.501  1.00  0.00     0.189 HD
ATOM     16  H5  UNL     1      19.944  37.394  35.544  1.00  0.00     0.209 HD
BRANCH  11  17
HETATM   17  N1  UNL     1      17.359  33.140  35.373  1.00  0.00    -0.383 N
ATOM     18  H12 UNL     1      17.630  32.167  35.227  1.00  0.00     0.157 HD
ATOM     19  H11 UNL     1      16.871  33.631  34.624  1.00  0.00     0.157 HD
ENDBRANCH  11  17
ENDBRANCH   1   4
BRANCH   1  20
HETATM   20  C10 UNL     1      20.374  36.925  39.699  1.00  0.00     0.342 C
BRANCH  20  21
HETATM   21  N11 UNL     1      21.584  36.141  39.605  1.00  0.00    -0.060 N
ATOM     22 3H11 UNL     1      21.884  35.810  40.522  1.00  0.00     0.275 HD
ATOM     23 2H11 UNL     1      21.409  35.240  39.160  1.00  0.00     0.275 HD
ATOM     24 1H11 UNL     1      22.331  36.649  39.132  1.00  0.00     0.275 HD
ENDBRANCH  20  21
BRANCH  20  25
HETATM   25  C11 UNL     1      20.602  38.023  40.666  1.00  0.00     0.269 C
HETATM   26  N12 UNL     1      21.882  38.608  40.881  1.00  0.00    -0.060 NA
HETATM   27  O1  UNL     1      19.640  38.472  41.335  1.00  0.00    -0.274 OA
ENDBRANCH  20  25
ENDBRANCH   1  20
BRANCH   2  28
HETATM   28  N8  UNL     1      19.701  39.352  36.995  1.00  0.00    -0.131 N
ATOM     29  H8  UNL     1      20.435  39.610  36.336  1.00  0.00     0.205 HD
BRANCH  28  30
HETATM   30  C6  UNL     1      18.335  39.669  36.671  1.00  0.00     0.688 C
HETATM   31  N9  UNL     1      17.366  39.202  37.351  1.00  0.00    -0.225 N
HETATM   32  C7  UNL     1      15.977  39.446  37.126  1.00  0.00     0.139 C
ATOM     33  H9  UNL     1      17.605  38.594  38.134  1.00  0.00     0.177 HD
HETATM   34  C8  UNL     1      15.732  40.603  36.182  1.00  0.00     0.040 C
HETATM   35  C9  UNL     1      16.717  40.602  35.051  1.00  0.00     0.139 C
HETATM   36  N10 UNL     1      18.080  40.520  35.570  1.00  0.00    -0.225 N
ATOM     37  H10 UNL     1      18.832  41.064  35.147  1.00  0.00     0.177 HD
ENDBRANCH  28  30
ENDBRANCH   2  28
TORSDOF 7
ENDMDL