MODEL 3
REMARK VINA RESULT: -7.614958012      1.599      1.621
REMARK  5 active torsions:
REMARK  status: ('A' for Active; 'I' for Inactive)
REMARK       I    between atoms: C1_2  and  N2_4
REMARK    1  A    between atoms: N2_4  and  N3_6
REMARK    2  A    between atoms: C5_15  and  C6_16
REMARK    3  A    between atoms: N6_17  and  N7_19
REMARK    4  A    between atoms: N7_19  and  C7_21
REMARK    5  A    between atoms: C9_25  and  C10_26
ROOT
HETATM    1  N3  UNL     1      17.110  39.833  34.762  1.00  0.00    -0.126 N
ATOM      2  H3  UNL     1      16.599  39.043  34.370  1.00  0.00     0.206 HD
HETATM    3  C2  UNL     1      18.066  39.578  35.563  1.00  0.00     0.720 A
HETATM    4  N4  UNL     1      18.796  40.560  36.128  1.00  0.00    -0.185 N
ATOM      5  H4  UNL     1      18.584  41.535  35.914  1.00  0.00     0.185 HD
HETATM    6  C3  UNL     1      19.808  40.265  36.976  1.00  0.00     0.200 A
HETATM    7  N5  UNL     1      20.089  38.980  37.258  1.00  0.00    -0.335 N
ATOM      8  H5  UNL     1      20.850  38.750  37.897  1.00  0.00     0.168 HD
HETATM    9  C4  UNL     1      19.353  37.987  36.688  1.00  0.00     0.159 A
HETATM   10  C5  UNL     1      19.392  36.585  36.775  1.00  0.00     0.044 A
HETATM   11  C11 UNL     1      18.393  36.096  35.969  1.00  0.00     0.125 A
HETATM   12  N10 UNL     1      17.784  37.181  35.424  1.00  0.00    -0.288 N
ATOM     13  H10 UNL     1      16.997  37.142  34.776  1.00  0.00     0.187 HD
HETATM   14  N11 UNL     1      18.352  38.291  35.850  1.00  0.00    -0.068 N
ENDROOT
BRANCH  10  15
HETATM   15  C6  UNL     1      20.364  35.885  37.606  1.00  0.00     0.124 C
HETATM   16  N6  UNL     1      20.453  36.030  38.842  1.00  0.00    -0.308 N
ATOM     17  H6  UNL     1      21.188  35.462  39.264  1.00  0.00     0.186 HD
BRANCH  16  18
HETATM   18  N7  UNL     1      19.768  36.793  39.749  1.00  0.00    -0.272 N
ATOM     19  H7  UNL     1      18.751  36.725  39.802  1.00  0.00     0.190 HD
BRANCH  18  20
HETATM   20  C7  UNL     1      20.463  37.678  40.616  1.00  0.00     0.191 C
HETATM   21  N8  UNL     1      21.655  38.101  40.360  1.00  0.00    -0.359 N
HETATM   22  C8  UNL     1      22.124  38.983  41.397  1.00  0.00     0.159 C
ATOM     23  H8  UNL     1      22.194  37.845  39.532  1.00  0.00     0.162 HD
HETATM   24  C9  UNL     1      21.198  38.675  42.550  1.00  0.00     0.203 C
HETATM   25  N9  UNL     1      20.010  38.229  41.851  1.00  0.00    -0.345 N
ATOM     26  H9  UNL     1      19.045  38.296  42.176  1.00  0.00     0.163 HD
BRANCH  24  27
HETATM   27  C10 UNL     1      21.742  37.575  43.357  1.00  0.00     0.198 C
HETATM   28  O2  UNL     1      22.364  36.635  42.800  1.00  0.00    -0.646 OA
HETATM   29  O3  UNL     1      21.602  37.517  44.736  1.00  0.00    -0.646 OA
ENDBRANCH  24  27
ENDBRANCH  18  20
ENDBRANCH  16  18
ENDBRANCH  10  15
BRANCH   1  30
HETATM   30  N2  UNL     1      16.712  41.110  34.384  1.00  0.00    -0.240 N
HETATM   31  C1  UNL     1      16.613  41.538  33.042  1.00  0.00     0.347 C
HETATM   32  N1  UNL     1      16.198  42.856  32.754  1.00  0.00    -0.038 NA
HETATM   33  O1  UNL     1      16.893  40.748  32.112  1.00  0.00    -0.249 OA
ATOM     34  H2  UNL     1      16.477  41.777  35.119  1.00  0.00     0.192 HD
ENDBRANCH   1  30
TORSDOF 5
ENDMDL