MODEL 3
REMARK VINA RESULT: -7.153087652      2.372      7.149
REMARK  8 active torsions:
REMARK  status: ('A' for Active; 'I' for Inactive)
REMARK    1  A    between atoms: N1_1  and  C1_5
REMARK    2  A    between atoms: C3_7  and  C4_8
REMARK    3  A    between atoms: C4_8  and  O1_9
REMARK    4  A    between atoms: C4_8  and  C5_11
REMARK    5  A    between atoms: C6_15  and  N3_16
REMARK    6  A    between atoms: C7_22  and  O2_23
REMARK    7  A    between atoms: N5_25  and  C8_26
REMARK    8  A    between atoms: C9_31  and  C10_32
ROOT
HETATM    1  C1  UNL     1      19.521  40.716  36.858  1.00  0.00     0.204 C
HETATM    2  C2  UNL     1      18.194  40.809  37.540  1.00  0.00     0.063 C
HETATM    3  C3  UNL     1      17.547  39.486  37.277  1.00  0.00     0.135 C
HETATM    4  N5  UNL     1      18.549  38.561  36.832  1.00  0.00    -0.207 N
HETATM    5  C13 UNL     1      19.784  39.268  36.631  1.00  0.00     0.174 C
ENDROOT
BRANCH   3   6
HETATM    6  C4  UNL     1      16.305  39.482  36.473  1.00  0.00     0.180 C
BRANCH   6   7
HETATM    7  O1  UNL     1      15.231  38.828  37.036  1.00  0.00    -0.391 OA
ATOM      8  H1  UNL     1      14.545  39.385  37.384  1.00  0.00     0.210 HD
ENDBRANCH   6   7
BRANCH   6   9
HETATM    9  C5  UNL     1      15.884  40.696  35.755  1.00  0.00     0.294 C
HETATM   10  N2  UNL     1      16.465  40.677  34.376  1.00  0.00    -0.015 N
HETATM   11  C6  UNL     1      15.758  41.892  33.894  1.00  0.00     0.485 C
ATOM     12  H22 UNL     1      17.482  40.660  34.295  1.00  0.00     0.282 HD
ATOM     13  H21 UNL     1      16.356  39.822  33.831  1.00  0.00     0.282 HD
HETATM   14  N4  UNL     1      14.391  41.607  34.358  1.00  0.00    -0.323 N
HETATM   15  C7  UNL     1      14.470  40.893  35.464  1.00  0.00     0.148 C
ATOM     16  H4  UNL     1      13.530  41.910  33.903  1.00  0.00     0.165 HD
BRANCH  11  17
HETATM   17  N3  UNL     1      15.844  41.900  32.469  1.00  0.00    -0.033 N
ATOM     18  H33 UNL     1      16.782  42.112  32.128  1.00  0.00     0.278 HD
ATOM     19  H32 UNL     1      15.760  40.970  32.060  1.00  0.00     0.278 HD
ATOM     20  H31 UNL     1      15.139  42.552  32.124  1.00  0.00     0.278 HD
ENDBRANCH  11  17
BRANCH  15  21
HETATM   21  O2  UNL     1      13.294  40.490  36.100  1.00  0.00    -0.348 OA
ATOM     22  H2  UNL     1      12.386  40.442  35.824  1.00  0.00     0.219 HD
ENDBRANCH  15  21
ENDBRANCH   6   9
ENDBRANCH   3   6
BRANCH   4  23
HETATM   23  C8  UNL     1      18.381  37.169  36.619  1.00  0.00     0.697 A
HETATM   24  N6  UNL     1      17.858  36.527  35.575  1.00  0.00    -0.130 N
HETATM   25  N7  UNL     1      17.881  35.252  35.757  1.00  0.00    -0.269 N
ATOM     26  H6  UNL     1      17.488  36.985  34.742  1.00  0.00     0.205 HD
HETATM   27  C9  UNL     1      18.433  35.008  36.953  1.00  0.00     0.164 A
ATOM     28  H7  UNL     1      17.538  34.549  35.102  1.00  0.00     0.189 HD
HETATM   29  N10 UNL     1      18.747  36.187  37.498  1.00  0.00    -0.172 N
ATOM     30  H10 UNL     1      19.182  36.330  38.409  1.00  0.00     0.186 HD
BRANCH  27  31
HETATM   31  C10 UNL     1      18.652  33.692  37.553  1.00  0.00     0.095 A
HETATM   32  C11 UNL     1      18.929  33.454  38.884  1.00  0.00     0.122 A
HETATM   33  N8  UNL     1      19.067  32.149  39.067  1.00  0.00    -0.360 N
HETATM   34  C12 UNL     1      18.881  31.567  37.868  1.00  0.00     0.180 A
ATOM     35  H8  UNL     1      19.275  31.677  39.948  1.00  0.00     0.166 HD
HETATM   36  N9  UNL     1      18.629  32.502  36.951  1.00  0.00    -0.348 N
ATOM     37  H9  UNL     1      18.451  32.336  35.961  1.00  0.00     0.167 HD
ENDBRANCH  27  31
ENDBRANCH   4  23
BRANCH   1  38
HETATM   38  N1  UNL     1      20.573  41.346  37.644  1.00  0.00    -0.073 N
ATOM     39  H13 UNL     1      20.326  41.388  38.632  1.00  0.00     0.274 HD
ATOM     40  H12 UNL     1      21.397  40.748  37.712  1.00  0.00     0.274 HD
ATOM     41  H11 UNL     1      20.812  42.269  37.280  1.00  0.00     0.274 HD
ENDBRANCH   1  38
TORSDOF 8
ENDMDL