MODEL 5
REMARK VINA RESULT: -5.286157506      3.278      4.317
REMARK  5 active torsions:
REMARK  status: ('A' for Active; 'I' for Inactive)
REMARK       I    between atoms: C1_4  and  N3_6
REMARK    1  A    between atoms: C3_9  and  C4_10
REMARK       I    between atoms: C4_10  and  N4_12
REMARK    2  A    between atoms: N4_12  and  C5_14
REMARK    3  A    between atoms: C5_14  and  C6_15
REMARK    4  A    between atoms: N7_25  and  C9_26
REMARK    5  A    between atoms: C9_26  and  O5_27
ROOT
HETATM    1  N1  UNL     1      17.900  34.367  38.007  1.00  0.00    -0.373 N
ATOM      2  H11 UNL     1      17.680  34.791  38.908  1.00  0.00     0.158 HD
ATOM      3  H12 UNL     1      17.866  33.360  37.846  1.00  0.00     0.158 HD
HETATM    4  C1  UNL     1      18.295  35.145  37.034  1.00  0.00     0.197 C
HETATM    5  N2  UNL     1      18.594  34.570  35.813  1.00  0.00    -0.063 NA
HETATM    6  N3  UNL     1      18.341  36.521  37.254  1.00  0.00    -0.233 N
HETATM    7  C2  UNL     1      17.348  37.273  36.665  1.00  0.00     0.273 A
HETATM    8  O1  UNL     1      16.540  36.661  35.939  1.00  0.00    -0.266 OA
HETATM    9  C3  UNL     1      17.259  38.626  36.842  1.00  0.00     0.120 A
HETATM   10  C7  UNL     1      18.234  39.211  37.665  1.00  0.00     0.065 A
HETATM   11  S1  UNL     1      18.092  40.967  37.942  1.00  0.00    -0.049 SA
HETATM   12  C8  UNL     1      19.216  38.461  38.237  1.00  0.00     0.114 A
HETATM   13  N5  UNL     1      20.285  38.742  38.955  1.00  0.00    -0.281 N
ATOM     14  H5  UNL     1      20.528  39.678  39.280  1.00  0.00     0.188 HD
HETATM   15  N6  UNL     1      20.980  37.695  39.192  1.00  0.00    -0.236 N
ATOM     16  H6  UNL     1      21.845  37.682  39.732  1.00  0.00     0.208 HD
HETATM   17  N7  UNL     1      20.403  36.607  38.626  1.00  0.00    -0.236 N
HETATM   18  C10 UNL     1      19.286  37.079  38.030  1.00  0.00     0.167 A
ENDROOT
BRANCH   9  19
HETATM   19  C4  UNL     1      16.456  39.526  35.950  1.00  0.00     0.259 C
HETATM   20  O2  UNL     1      15.249  39.707  36.261  1.00  0.00    -0.267 OA
HETATM   21  N4  UNL     1      17.051  40.179  34.851  1.00  0.00    -0.347 N
ATOM     22  H4  UNL     1      17.989  39.941  34.527  1.00  0.00     0.163 HD
BRANCH  21  23
HETATM   23  C5  UNL     1      16.244  41.223  34.197  1.00  0.00     0.236 C
BRANCH  23  24
HETATM   24  C6  UNL     1      16.657  41.378  32.805  1.00  0.00     0.191 C
HETATM   25  O3  UNL     1      17.445  40.633  32.201  1.00  0.00    -0.647 OA
HETATM   26  O4  UNL     1      16.104  42.518  32.116  1.00  0.00    -0.647 OA
ENDBRANCH  23  24
ENDBRANCH  21  23
ENDBRANCH   9  19
BRANCH  17  27
HETATM   27  C9  UNL     1      20.956  35.303  38.609  1.00  0.00     0.316 C
BRANCH  27  28
HETATM   28  O5  UNL     1      20.106  34.398  39.361  1.00  0.00    -0.380 OA
ATOM     29  H5  UNL     1      19.204  34.691  39.313  1.00  0.00     0.211 HD
ENDBRANCH  27  28
ENDBRANCH  17  27
TORSDOF 5
ENDMDL