MODEL 2
REMARK VINA RESULT: -4.450812307      3.154      8.900
REMARK  6 active torsions:
REMARK  status: ('A' for Active; 'I' for Inactive)
REMARK    1  A    between atoms: C3_6  and  C4_7
REMARK    2  A    between atoms: N3_8  and  N4_10
REMARK       I    between atoms: N4_10  and  C5_12
REMARK    3  A    between atoms: C5_12  and  C6_14
REMARK    4  A    between atoms: C7_19  and  S1_20
REMARK    5  A    between atoms: S1_20  and  N7_21
REMARK    6  A    between atoms: C9_28  and  O4_29
ROOT
HETATM    1  N4  UNL     1      17.588  39.201  36.939  1.00  0.00    -0.265 N
ATOM      2  H4  UNL     1      18.267  39.864  36.567  1.00  0.00     0.190 HD
HETATM    3  C5  UNL     1      16.228  39.327  36.556  1.00  0.00     0.289 C
HETATM    4  O1  UNL     1      15.370  38.518  37.006  1.00  0.00    -0.264 OA
ENDROOT
BRANCH   3   5
HETATM    5  C6  UNL     1      15.790  40.372  35.650  1.00  0.00     0.145 A
HETATM    6  N5  UNL     1      14.717  41.146  35.847  1.00  0.00    -0.293 N
HETATM    7  N6  UNL     1      14.611  41.984  34.837  1.00  0.00    -0.286 N
ATOM      8  H5  UNL     1      14.087  41.096  36.647  1.00  0.00     0.187 HD
HETATM    9  C7  UNL     1      15.599  41.794  33.947  1.00  0.00     0.190 A
ATOM     10  H6  UNL     1      13.875  42.685  34.742  1.00  0.00     0.188 HD
HETATM   11  C8  UNL     1      16.367  40.755  34.461  1.00  0.00     0.121 A
HETATM   12  N8  UNL     1      17.532  40.208  33.848  1.00  0.00    -0.097 NA
BRANCH   9  13
HETATM   13  S1  UNL     1      15.862  42.663  32.466  1.00  0.00     0.275 S
HETATM   14  O2  UNL     1      16.357  44.041  32.705  1.00  0.00    -0.199 OA
HETATM   15  O3  UNL     1      14.552  42.736  31.729  1.00  0.00    -0.199 OA
BRANCH  13  16
HETATM   16  N7  UNL     1      16.965  41.806  31.445  1.00  0.00    -0.323 N
ATOM     17  H72 UNL     1      17.974  41.787  31.588  1.00  0.00     0.169 HD
ATOM     18  H71 UNL     1      16.464  41.332  30.693  1.00  0.00     0.169 HD
ENDBRANCH  13  16
ENDBRANCH   9  13
ENDBRANCH   3   5
BRANCH   1  19
HETATM   19  N3  UNL     1      18.026  38.209  37.801  1.00  0.00    -0.309 N
HETATM   20  C4  UNL     1      18.604  37.173  37.369  1.00  0.00     0.109 C
ATOM     21  H3  UNL     1      17.879  38.318  38.804  1.00  0.00     0.186 HD
BRANCH  20  22
HETATM   22  C3  UNL     1      19.073  36.124  38.215  1.00  0.00     0.048 C
HETATM   23  C2  UNL     1      18.865  34.847  37.960  1.00  0.00     0.069 C
HETATM   24  N2  UNL     1      19.321  33.753  38.785  1.00  0.00    -0.324 N
HETATM   25  C9  UNL     1      18.158  34.226  36.838  1.00  0.00     0.317 C
HETATM   26  C1  UNL     1      18.793  32.690  38.362  1.00  0.00     0.234 C
ATOM     27  H2  UNL     1      19.960  33.828  39.575  1.00  0.00     0.169 HD
HETATM   28  N1  UNL     1      19.042  31.405  38.973  1.00  0.00    -0.056 NA
HETATM   29  O5  UNL     1      17.976  32.876  37.292  1.00  0.00    -0.287 OA
BRANCH  25  30
HETATM   30  O4  UNL     1      18.881  34.235  35.645  1.00  0.00    -0.365 OA
ATOM     31  H4  UNL     1      18.789  35.040  35.149  1.00  0.00     0.213 HD
ENDBRANCH  25  30
ENDBRANCH  20  22
ENDBRANCH   1  19
TORSDOF 6
ENDMDL