MODEL 4
REMARK VINA RESULT: -9.439337926      3.092      5.323
REMARK  6 active torsions:
REMARK  status: ('A' for Active; 'I' for Inactive)
REMARK    1  A    between atoms: C1_4  and  N2_5
REMARK    2  A    between atoms: C1_4  and  C9_34
REMARK    3  A    between atoms: N3_7  and  N4_9
REMARK       I    between atoms: C2_11  and  N5_12
REMARK       I    between atoms: C2_11  and  N10_27
REMARK    4  A    between atoms: N5_12  and  C3_14
REMARK    5  A    between atoms: C5_16  and  C6_17
REMARK       I    between atoms: C6_17  and  N6_19
REMARK    6  A    between atoms: N6_19  and  N7_20
ROOT
HETATM    1  N4  UNL     1      20.093  36.166  37.923  1.00  0.00    -0.116 N
ATOM      2  H4  UNL     1      20.701  35.456  38.332  1.00  0.00     0.207 HD
HETATM    3  C2  UNL     1      19.843  37.285  38.540  1.00  0.00     0.721 C
HETATM    4  N5  UNL     1      18.996  38.211  37.918  1.00  0.00    -0.172 N
ATOM      5  H5  UNL     1      18.088  37.862  37.612  1.00  0.00     0.186 HD
HETATM    6  N10 UNL     1      20.426  37.496  39.807  1.00  0.00    -0.080 N
HETATM    7  C7  UNL     1      21.492  36.918  40.378  1.00  0.00     0.226 A
HETATM    8  N11 UNL     1      21.727  37.388  41.604  1.00  0.00    -0.345 N
ATOM      9  H11 UNL     1      22.476  37.108  42.238  1.00  0.00     0.167 HD
HETATM   10  C8  UNL     1      20.765  38.313  41.832  1.00  0.00     0.199 A
HETATM   11  N12 UNL     1      19.995  38.369  40.751  1.00  0.00    -0.274 N
ATOM     12  H12 UNL     1      19.189  38.985  40.644  1.00  0.00     0.189 HD
ENDROOT
BRANCH   1  13
HETATM   13  N3  UNL     1      19.511  35.987  36.713  1.00  0.00    -0.227 N
HETATM   14  N2  UNL     1      18.739  35.216  36.281  1.00  0.00    -0.267 N
ATOM     15  H2  UNL     1      18.553  35.424  35.301  1.00  0.00     0.190 HD
ATOM     16  H3  UNL     1      19.810  36.677  36.024  1.00  0.00     0.209 HD
BRANCH  14  17
HETATM   17  C1  UNL     1      18.007  34.122  36.674  1.00  0.00     0.181 C
HETATM   18  N1  UNL     1      17.517  33.325  35.738  1.00  0.00    -0.380 N
ATOM     19  H12 UNL     1      17.740  33.597  34.780  1.00  0.00     0.158 HD
ATOM     20  H11 UNL     1      16.973  32.514  36.029  1.00  0.00     0.158 HD
BRANCH  17  21
HETATM   21  C9  UNL     1      17.691  33.736  38.036  1.00  0.00     0.299 C
HETATM   22  N13 UNL     1      18.606  33.847  39.086  1.00  0.00    -0.054 NA
HETATM   23  O2  UNL     1      16.529  33.276  38.335  1.00  0.00    -0.268 OA
ENDBRANCH  17  21
ENDBRANCH  14  17
ENDBRANCH   1  13
BRANCH   4  24
HETATM   24  C3  UNL     1      19.263  39.573  37.668  1.00  0.00     0.138 A
HETATM   25  C4  UNL     1      20.501  39.994  37.139  1.00  0.00     0.088 A
HETATM   26  C5  UNL     1      20.463  41.364  37.010  1.00  0.00     0.136 A
HETATM   27  N8  UNL     1      19.244  41.758  37.448  1.00  0.00    -0.293 N
HETATM   28  N9  UNL     1      18.566  40.691  37.827  1.00  0.00    -0.284 N
ATOM     29  H8  UNL     1      18.906  42.720  37.479  1.00  0.00     0.187 HD
ATOM     30  H9  UNL     1      17.617  40.721  38.200  1.00  0.00     0.188 HD
BRANCH  26  31
HETATM   31  C6  UNL     1      21.526  42.251  36.452  1.00  0.00     0.362 C
HETATM   32  O1  UNL     1      22.520  41.731  35.967  1.00  0.00    -0.247 OA
HETATM   33  N6  UNL     1      21.276  43.654  36.530  1.00  0.00    -0.287 NA
BRANCH  33  34
HETATM   34  N7  UNL     1      21.055  44.886  36.597  1.00  0.00    -0.276 N
ATOM     35  H72 UNL     1      21.185  43.877  36.525  1.00  0.00     0.191 HD
ATOM     36  H71 UNL     1      20.877  45.889  36.652  1.00  0.00     0.191 HD
ENDBRANCH  33  34
ENDBRANCH  26  31
ENDBRANCH   4  24
TORSDOF 6
ENDMDL