MODEL 3
REMARK VINA RESULT: -6.769565619      2.585      6.042
REMARK  6 active torsions:
REMARK  status: ('A' for Active; 'I' for Inactive)
REMARK    1  A    between atoms: C2_2  and  N1_3
REMARK    2  A    between atoms: N1_3  and  O1_5
REMARK    3  A    between atoms: C5_11  and  S1_12
REMARK    4  A    between atoms: S1_12  and  N3_13
REMARK    5  A    between atoms: N5_21  and  N6_23
REMARK       I    between atoms: N6_23  and  C7_25
REMARK    6  A    between atoms: C7_25  and  C8_27
ROOT
HETATM    1  C1  UNL     1      21.898  37.305  41.529  1.00  0.00     0.071 C
HETATM    2  C2  UNL     1      21.205  37.940  40.379  1.00  0.00     0.043 C
HETATM    3  C3  UNL     1      20.466  37.148  39.427  1.00  0.00     0.049 A
HETATM    4  C4  UNL     1      20.399  35.779  39.585  1.00  0.00     0.107 A
HETATM    5  N2  UNL     1      19.704  35.067  38.685  1.00  0.00    -0.340 N
ATOM      6  H2  UNL     1      19.641  34.054  38.782  1.00  0.00     0.167 HD
HETATM    7  C5  UNL     1      19.091  35.677  37.657  1.00  0.00     0.225 A
HETATM    8  N4  UNL     1      19.161  37.011  37.510  1.00  0.00    -0.316 N
ATOM      9  H4  UNL     1      18.685  37.445  36.720  1.00  0.00     0.169 HD
HETATM   10  C6  UNL     1      19.833  37.788  38.362  1.00  0.00     0.135 A
HETATM   11  N5  UNL     1      19.927  39.073  38.262  1.00  0.00    -0.282 N
ATOM     12  H5  UNL     1      20.452  39.625  38.940  1.00  0.00     0.188 HD
ENDROOT
BRANCH  11  13
HETATM   13  N6  UNL     1      19.275  39.670  37.179  1.00  0.00    -0.262 N
HETATM   14  C7  UNL     1      17.876  39.596  36.983  1.00  0.00     0.306 C
HETATM   15  O4  UNL     1      17.169  38.963  37.818  1.00  0.00    -0.262 OA
ATOM     16  H6  UNL     1      19.834  40.182  36.498  1.00  0.00     0.190 HD
BRANCH  14  17
HETATM   17  C8  UNL     1      17.283  40.247  35.827  1.00  0.00     0.208 A
HETATM   18  N7  UNL     1      16.063  40.811  35.775  1.00  0.00    -0.264 N
HETATM   19  N8  UNL     1      15.894  41.300  34.538  1.00  0.00    -0.226 N
ATOM     20  H7  UNL     1      15.388  40.859  36.538  1.00  0.00     0.190 HD
HETATM   21  N9  UNL     1      16.978  41.052  33.830  1.00  0.00    -0.226 N
ATOM     22  H8  UNL     1      15.062  41.785  34.199  1.00  0.00     0.210 HD
HETATM   23  N10 UNL     1      17.805  40.421  34.610  1.00  0.00    -0.264 N
ATOM     24  H9  UNL     1      17.139  41.307  32.856  1.00  0.00     0.210 HD
ATOM     25  H10 UNL     1      18.731  40.100  34.329  1.00  0.00     0.190 HD
ENDBRANCH  14  17
ENDBRANCH  11  13
BRANCH   2  26
HETATM   26  N1  UNL     1      21.294  39.221  40.269  1.00  0.00    -0.273 N
ATOM     27  H1  UNL     1      20.496  39.714  39.868  1.00  0.00     0.194 HD
BRANCH  26  28
HETATM   28  O1  UNL     1      22.360  39.962  40.642  1.00  0.00    -0.290 OA
ATOM     29  H1  UNL     1      22.448  40.898  40.511  1.00  0.00     0.244 HD
ENDBRANCH  26  28
ENDBRANCH   2  26
BRANCH   7  30
HETATM   30  S1  UNL     1      18.188  34.742  36.489  1.00  0.00     0.289 S
HETATM   31  O2  UNL     1      18.933  34.792  35.163  1.00  0.00    -0.198 OA
HETATM   32  O3  UNL     1      16.823  35.315  36.290  1.00  0.00    -0.198 OA
BRANCH  30  33
HETATM   33  N3  UNL     1      18.124  33.071  36.941  1.00  0.00    -0.322 N
ATOM     34  H32 UNL     1      18.194  32.303  36.273  1.00  0.00     0.169 HD
ATOM     35  H31 UNL     1      18.010  32.965  37.949  1.00  0.00     0.169 HD
ENDBRANCH  30  33
ENDBRANCH   7  30
TORSDOF 6
ENDMDL