MODEL 3
REMARK VINA RESULT: -8.194246708      1.382      1.891
REMARK  8 active torsions:
REMARK  status: ('A' for Active; 'I' for Inactive)
REMARK       I    between atoms: C1_2  and  N1_3
REMARK    1  A    between atoms: C1_2  and  C5_13
REMARK    2  A    between atoms: N1_3  and  N2_5
REMARK    3  A    between atoms: N2_5  and  S1_7
REMARK    4  A    between atoms: S1_7  and  C2_10
REMARK    5  A    between atoms: N3_18  and  C10_19
REMARK    6  A    between atoms: C10_19  and  O4_20
REMARK    7  A    between atoms: C10_19  and  C11_22
REMARK    8  A    between atoms: C13_24  and  C14_25
ROOT
HETATM    1  C5  UNL     1     -39.817   0.896 188.717  1.00  0.00     0.179 C
HETATM    2  C6  UNL     1     -40.187   2.315 188.448  1.00  0.00     0.035 C
HETATM    3  C7  UNL     1     -40.332   2.714 187.028  1.00  0.00     0.007 C
HETATM    4  C8  UNL     1     -40.848   1.664 186.114  1.00  0.00     0.044 C
HETATM    5  C9  UNL     1     -40.599   0.246 186.528  1.00  0.00     0.062 C
HETATM    6  N3  UNL     1     -39.702   0.050 187.566  1.00  0.00    -0.352 N
ENDROOT
BRANCH   6   7
HETATM    7  C10 UNL     1     -38.538  -0.717 187.405  1.00  0.00     0.251 C
BRANCH   7   8
HETATM    8  O4  UNL     1     -38.943  -1.873 186.655  1.00  0.00    -0.374 OA
ATOM      9  H4  UNL     1     -38.506  -2.608 187.070  1.00  0.00     0.212 HD
ENDBRANCH   7   8
BRANCH   7  10
HETATM   10  C11 UNL     1     -37.960  -1.218 188.713  1.00  0.00     0.236 C
HETATM   11  C12 UNL     1     -37.720  -2.701 188.811  1.00  0.00     0.070 C
HETATM   12  C13 UNL     1     -36.421  -2.303 189.419  1.00  0.00     0.192 C
HETATM   13  N4  UNL     1     -36.494  -1.044 188.766  1.00  0.00    -0.062 N
ATOM     14  H42 UNL     1     -35.956  -0.860 187.919  1.00  0.00     0.278 HD
ATOM     15  H41 UNL     1     -36.080  -0.212 189.185  1.00  0.00     0.278 HD
BRANCH  12  16
HETATM   16  C14 UNL     1     -35.218  -3.164 189.154  1.00  0.00     0.016 C
HETATM   17  C15 UNL     1     -33.908  -2.548 189.538  1.00  0.00     0.007 C
HETATM   18  C16 UNL     1     -33.075  -3.641 190.172  1.00  0.00     0.000 C
HETATM   19  C17 UNL     1     -34.052  -4.682 190.662  1.00  0.00     0.000 C
HETATM   20  C18 UNL     1     -35.381  -4.389 190.043  1.00  0.00     0.007 C
ENDBRANCH  12  16
ENDBRANCH   7  10
ENDBRANCH   6   7
BRANCH   1  21
HETATM   21  C1  UNL     1     -40.930   0.327 189.549  1.00  0.00     0.259 C
HETATM   22  O1  UNL     1     -42.124   0.349 189.157  1.00  0.00    -0.269 OA
HETATM   23  N1  UNL     1     -40.606  -0.247 190.810  1.00  0.00    -0.259 N
ATOM     24  H1  UNL     1     -39.641  -0.287 191.135  1.00  0.00     0.190 HD
BRANCH  23  25
HETATM   25  N2  UNL     1     -41.669  -0.765 191.607  1.00  0.00    -0.224 N
ATOM     26  H2  UNL     1     -42.648  -0.516 191.469  1.00  0.00     0.200 HD
BRANCH  25  27
HETATM   27  S1  UNL     1     -41.139  -1.839 192.808  1.00  0.00     0.248 S
HETATM   28  O2  UNL     1     -40.167  -1.203 193.782  1.00  0.00    -0.204 OA
HETATM   29  O3  UNL     1     -40.451  -3.027 192.142  1.00  0.00    -0.204 OA
BRANCH  27  30
HETATM   30  C2  UNL     1     -42.456  -2.526 193.791  1.00  0.00     0.131 A
HETATM   31  C3  UNL     1     -42.756  -1.873 195.100  1.00  0.00     0.023 A
HETATM   32  C4  UNL     1     -43.751  -1.880 193.961  1.00  0.00     0.023 A
ENDBRANCH  27  30
ENDBRANCH  25  27
ENDBRANCH  23  25
ENDBRANCH   1  21
TORSDOF 8
ENDMDL