MODEL 4
REMARK VINA RESULT: -7.108987214      2.533      7.808
REMARK  9 active torsions:
REMARK  status: ('A' for Active; 'I' for Inactive)
REMARK       I    between atoms: N1_2  and  C2_4
REMARK    1  A    between atoms: C2_4  and  C3_6
REMARK    2  A    between atoms: C3_6  and  C4_7
REMARK    3  A    between atoms: C4_7  and  C5_8
REMARK    4  A    between atoms: C5_8  and  N2_9
REMARK    5  A    between atoms: C5_8  and  C17_29
REMARK    6  A    between atoms: N2_9  and  C6_11
REMARK    7  A    between atoms: C6_11  and  O2_12
REMARK    8  A    between atoms: C6_11  and  N3_14
REMARK    9  A    between atoms: C15_25  and  C16_26
ROOT
HETATM    1  C6  UNL     1     -37.633  -2.778 188.855  1.00  0.00     0.218 C
ENDROOT
BRANCH   1   2
HETATM    2  N2  UNL     1     -37.419  -3.131 190.192  1.00  0.00    -0.342 N
ATOM      3  H2  UNL     1     -37.379  -2.399 190.902  1.00  0.00     0.164 HD
BRANCH   2   4
HETATM    4  C5  UNL     1     -37.252  -4.514 190.593  1.00  0.00     0.186 C
BRANCH   4   5
HETATM    5  C4  UNL     1     -37.719  -4.739 192.016  1.00  0.00     0.045 C
BRANCH   5   6
HETATM    6  C3  UNL     1     -38.035  -6.183 192.230  1.00  0.00     0.105 C
BRANCH   6   7
HETATM    7  C2  UNL     1     -37.451  -6.677 193.496  1.00  0.00     0.217 C
HETATM    8  N1  UNL     1     -36.113  -6.396 193.795  1.00  0.00    -0.365 N
HETATM    9  C1  UNL     1     -35.535  -6.871 195.023  1.00  0.00     0.149 C
ATOM     10  H1  UNL     1     -35.547  -5.853 193.142  1.00  0.00     0.161 HD
HETATM   11  O1  UNL     1     -38.166  -7.336 194.274  1.00  0.00    -0.274 OA
ENDBRANCH   6   7
ENDBRANCH   5   6
ENDBRANCH   4   5
BRANCH   4  12
HETATM   12  C17 UNL     1     -35.854  -4.976 190.388  1.00  0.00     0.196 C
HETATM   13  O6  UNL     1     -35.440  -5.433 189.290  1.00  0.00    -0.646 OA
HETATM   14  O7  UNL     1     -34.939  -4.914 191.431  1.00  0.00    -0.646 OA
ENDBRANCH   4  12
ENDBRANCH   2   4
ENDBRANCH   1   2
BRANCH   1  15
HETATM   15  O2  UNL     1     -37.910  -3.787 188.065  1.00  0.00    -0.333 OA
ATOM     16  H2  UNL     1     -38.836  -3.985 187.989  1.00  0.00     0.220 HD
ENDBRANCH   1  15
BRANCH   1  17
HETATM   17  N3  UNL     1     -37.603  -1.527 188.237  1.00  0.00    -0.308 N
HETATM   18  C7  UNL     1     -38.691  -1.166 187.259  1.00  0.00     0.171 C
HETATM   19  C8  UNL     1     -39.245   0.115 187.874  1.00  0.00     0.112 C
HETATM   20  C9  UNL     1     -40.741  -0.105 187.998  1.00  0.00     0.043 C
HETATM   21  C14 UNL     1     -39.037   1.331 187.047  1.00  0.00     0.043 C
HETATM   22  O3  UNL     1     -38.664   0.294 189.120  1.00  0.00    -0.225 OA
HETATM   23  C10 UNL     1     -41.334  -0.242 186.623  1.00  0.00     0.003 C
HETATM   24  C11 UNL     1     -41.532   1.094 185.947  1.00  0.00     0.000 C
HETATM   25  C12 UNL     1     -41.386   2.242 186.898  1.00  0.00     0.000 C
HETATM   26  C13 UNL     1     -40.041   2.392 187.515  1.00  0.00     0.003 C
HETATM   27  O4  UNL     1     -37.399   0.545 189.071  1.00  0.00    -0.204 OA
HETATM   28  C15 UNL     1     -36.679  -0.439 188.373  1.00  0.00     0.354 C
BRANCH  28  29
HETATM   29  C16 UNL     1     -35.345  -0.703 188.851  1.00  0.00     0.283 C
HETATM   30  N4  UNL     1     -34.367   0.349 188.726  1.00  0.00    -0.058 NA
HETATM   31  O5  UNL     1     -34.939  -1.776 189.378  1.00  0.00    -0.272 OA
ENDBRANCH  28  29
ENDBRANCH   1  17
TORSDOF 9
ENDMDL