MODEL 4
REMARK VINA RESULT: -6.544591905      5.699      7.789
REMARK  7 active torsions:
REMARK  status: ('A' for Active; 'I' for Inactive)
REMARK    1  A    between atoms: C2_2  and  N3_14
REMARK    2  A    between atoms: N1_3  and  C3_5
REMARK    3  A    between atoms: C3_5  and  C4_6
REMARK       I    between atoms: C4_6  and  N2_8
REMARK    4  A    between atoms: N2_8  and  S1_10
REMARK    5  A    between atoms: N3_14  and  S2_16
REMARK    6  A    between atoms: S2_16  and  N4_19
REMARK       I    between atoms: N4_19  and  C6_21
REMARK       I    between atoms: C6_21  and  N5_23
REMARK    7  A    between atoms: N5_23  and  C7_25
ROOT
HETATM    1  N3  UNL     1     -33.991   1.455 187.428  1.00  0.00    -0.281 N
ATOM      2  H3  UNL     1     -33.937   2.407 187.792  1.00  0.00     0.179 HD
ENDROOT
BRANCH   1   3
HETATM    3  C2  UNL     1     -34.819   0.506 188.093  1.00  0.00     0.082 C
HETATM    4  C1  UNL     1     -34.317  -0.429 189.119  1.00  0.00     0.089 C
HETATM    5  N1  UNL     1     -36.047   0.471 187.737  1.00  0.00    -0.371 N
ATOM      6  H1  UNL     1     -36.302   1.155 187.025  1.00  0.00     0.161 HD
BRANCH   5   7
HETATM    7  C3  UNL     1     -37.109  -0.358 188.164  1.00  0.00     0.224 C
BRANCH   7   8
HETATM    8  C4  UNL     1     -38.396   0.345 188.135  1.00  0.00     0.248 C
HETATM    9  O1  UNL     1     -39.038   0.404 189.233  1.00  0.00    -0.271 OA
HETATM   10  N2  UNL     1     -38.982   0.956 187.001  1.00  0.00    -0.253 N
ATOM     11  H2  UNL     1     -38.487   0.930 186.109  1.00  0.00     0.181 HD
BRANCH  10  12
HETATM   12  S1  UNL     1     -40.500   1.736 187.092  1.00  0.00     0.229 S
HETATM   13  C5  UNL     1     -41.827   0.699 187.596  1.00  0.00     0.186 C
HETATM   14  O2  UNL     1     -40.808   2.315 185.732  1.00  0.00    -0.206 OA
HETATM   15  O3  UNL     1     -40.418   2.889 188.055  1.00  0.00    -0.206 OA
ENDBRANCH  10  12
ENDBRANCH   7   8
ENDBRANCH   5   7
ENDBRANCH   1   3
BRANCH   1  16
HETATM   16  S2  UNL     1     -33.090   1.046 186.044  1.00  0.00     0.184 S
HETATM   17  O4  UNL     1     -33.704  -0.106 185.292  1.00  0.00    -0.215 OA
HETATM   18  S3  UNL     1     -31.490   0.693 186.513  1.00  0.00     0.052 SA
BRANCH  16  19
HETATM   19  N4  UNL     1     -33.047   2.403 184.943  1.00  0.00    -0.243 N
HETATM   20  C6  UNL     1     -32.944   3.708 185.443  1.00  0.00     0.329 C
HETATM   21  O5  UNL     1     -32.903   3.987 186.687  1.00  0.00    -0.246 OA
HETATM   22  N5  UNL     1     -32.872   4.813 184.557  1.00  0.00    -0.338 N
ATOM     23  H5  UNL     1     -32.898   4.630 183.555  1.00  0.00     0.164 HD
ATOM     24  H4  UNL     1     -33.098   2.244 183.937  1.00  0.00     0.182 HD
BRANCH  22  25
HETATM   25  C7  UNL     1     -32.763   6.202 185.005  1.00  0.00     0.086 C
HETATM   26  C8  UNL     1     -31.274   6.457 185.100  1.00  0.00     0.025 C
HETATM   27  C9  UNL     1     -30.656   6.883 183.792  1.00  0.00     0.002 C
HETATM   28  C10 UNL     1     -31.341   8.220 183.448  1.00  0.00     0.000 C
HETATM   29  C11 UNL     1     -32.755   7.914 183.125  1.00  0.00     0.002 C
HETATM   30  C12 UNL     1     -33.510   7.076 184.101  1.00  0.00     0.025 C
ENDBRANCH  22  25
ENDBRANCH  16  19
ENDBRANCH   1  16
TORSDOF 7
ENDMDL