MODEL 1
REMARK VINA RESULT: -6.849437411      0.000      0.000
REMARK  6 active torsions:
REMARK  status: ('A' for Active; 'I' for Inactive)
REMARK    1  A    between atoms: C2_2  and  N1_3
REMARK       I    between atoms: N1_3  and  C3_5
REMARK    2  A    between atoms: C3_5  and  C4_7
REMARK    3  A    between atoms: C5_11  and  S1_12
REMARK    4  A    between atoms: S1_12  and  C6_13
REMARK    5  A    between atoms: C6_13  and  C7_14
REMARK    6  A    between atoms: C9_18  and  C10_19
REMARK       I    between atoms: C10_19  and  N4_21
ROOT
HETATM    1  C4  UNL     1     -37.782  -0.940 188.207  1.00  0.00     0.300 C
HETATM    2  N2  UNL     1     -38.238  -2.225 188.689  1.00  0.00    -0.043 N
ATOM      3  H21 UNL     1     -39.047  -2.547 188.159  1.00  0.00     0.280 HD
ATOM      4  H22 UNL     1     -38.668  -2.137 189.610  1.00  0.00     0.280 HD
HETATM    5  C5  UNL     1     -37.208  -3.209 188.699  1.00  0.00     0.287 C
HETATM    6  C16 UNL     1     -36.094  -2.721 189.608  1.00  0.00     0.099 C
HETATM    7  N5  UNL     1     -35.616  -1.429 189.318  1.00  0.00    -0.393 N
ATOM      8  H5  UNL     1     -34.650  -1.179 189.532  1.00  0.00     0.159 HD
HETATM    9  C17 UNL     1     -36.479  -0.481 188.732  1.00  0.00     0.116 C
HETATM   10  C18 UNL     1     -35.711   0.158 187.563  1.00  0.00     0.034 C
ENDROOT
BRANCH   5  11
HETATM   11  S1  UNL     1     -37.739  -4.815 189.218  1.00  0.00    -0.111 SA
BRANCH  11  12
HETATM   12  C6  UNL     1     -37.636  -5.162 190.960  1.00  0.00     0.102 A
HETATM   13  C8  UNL     1     -37.827  -6.659 191.279  1.00  0.00     0.047 A
HETATM   14  C9  UNL     1     -36.507  -5.952 191.526  1.00  0.00     0.107 A
BRANCH  12  15
HETATM   15  C7  UNL     1     -38.422  -4.327 191.892  1.00  0.00     0.251 C
HETATM   16  N3  UNL     1     -38.143  -4.319 193.265  1.00  0.00    -0.061 NA
HETATM   17  O2  UNL     1     -39.348  -3.618 191.427  1.00  0.00    -0.275 OA
ENDBRANCH  12  15
BRANCH  14  18
HETATM   18  C10 UNL     1     -35.415  -6.462 190.704  1.00  0.00     0.226 C
HETATM   19  O3  UNL     1     -35.580  -7.434 189.922  1.00  0.00    -0.273 OA
HETATM   20  N4  UNL     1     -34.130  -5.867 190.767  1.00  0.00    -0.351 N
HETATM   21  C11 UNL     1     -32.934  -6.257 190.003  1.00  0.00     0.130 C
HETATM   22  C15 UNL     1     -33.663  -4.750 191.579  1.00  0.00     0.130 C
HETATM   23  C12 UNL     1     -31.880  -6.271 191.102  1.00  0.00     0.010 A
HETATM   24  C13 UNL     1     -31.145  -4.974 191.377  1.00  0.00     0.013 A
HETATM   25  C14 UNL     1     -32.361  -5.302 192.135  1.00  0.00     0.010 A
ENDBRANCH  14  18
ENDBRANCH  11  12
ENDBRANCH   5  11
BRANCH   1  26
HETATM   26  C3  UNL     1     -38.833   0.062 188.580  1.00  0.00     0.250 C
HETATM   27  N1  UNL     1     -39.073   1.197 187.760  1.00  0.00    -0.360 N
ATOM     28  H1  UNL     1     -38.525   1.330 186.911  1.00  0.00     0.162 HD
HETATM   29  O1  UNL     1     -39.532  -0.070 189.628  1.00  0.00    -0.271 OA
BRANCH  27  30
HETATM   30  C2  UNL     1     -40.081   2.161 188.114  1.00  0.00     0.118 C
HETATM   31  C1  UNL     1     -40.273   3.150 186.992  1.00  0.00     0.026 C
ENDBRANCH  27  30
ENDBRANCH   1  26
TORSDOF 6
ENDMDL