MODEL 5
REMARK VINA RESULT: -6.809913075      5.041      7.046
REMARK  8 active torsions:
REMARK  status: ('A' for Active; 'I' for Inactive)
REMARK    1  A    between atoms: C2_3  and  C3_4
REMARK    2  A    between atoms: C3_4  and  C4_5
REMARK    3  A    between atoms: C5_6  and  C7_9
REMARK       I    between atoms: C7_9  and  N3_11
REMARK    4  A    between atoms: N3_11  and  C8_13
REMARK    5  A    between atoms: C11_16  and  N4_17
REMARK    6  A    between atoms: C11_16  and  C13_24
REMARK       I    between atoms: N4_17  and  C12_19
REMARK    7  A    between atoms: C13_24  and  O2_25
REMARK    8  A    between atoms: C13_24  and  N7_27
ROOT
HETATM    1  N1  UNL     1     -39.308   1.018 187.222  1.00  0.00    -0.197 NA
HETATM    2  C1  UNL     1     -38.511   0.341 187.726  1.00  0.00     0.059 C
HETATM    3  C2  UNL     1     -37.509  -0.489 188.358  1.00  0.00     0.127 C
ENDROOT
BRANCH   3   4
HETATM    4  C3  UNL     1     -36.171   0.256 188.343  1.00  0.00     0.043 C
BRANCH   4   5
HETATM    5  C4  UNL     1     -35.196  -0.625 188.988  1.00  0.00     0.002 C
HETATM    6  C5  UNL     1     -33.918  -0.504 189.151  1.00  0.00     0.108 C
HETATM    7  C6  UNL     1     -33.188  -1.584 189.860  1.00  0.00     0.104 C
HETATM    8  N2  UNL     1     -32.639  -2.429 190.418  1.00  0.00    -0.191 NA
BRANCH   6   9
HETATM    9  C7  UNL     1     -33.110   0.584 188.703  1.00  0.00     0.262 C
HETATM   10  O1  UNL     1     -31.913   0.456 188.435  1.00  0.00    -0.267 OA
HETATM   11  N3  UNL     1     -33.679   1.887 188.545  1.00  0.00    -0.352 N
ATOM     12  H3  UNL     1     -34.668   2.015 188.759  1.00  0.00     0.163 HD
BRANCH  11  13
HETATM   13  C8  UNL     1     -32.908   3.043 188.089  1.00  0.00     0.085 C
HETATM   14  C9  UNL     1     -33.506   4.231 188.755  1.00  0.00     0.028 C
HETATM   15  C10 UNL     1     -33.716   5.417 187.838  1.00  0.00     0.042 C
HETATM   16  C11 UNL     1     -32.715   5.477 186.750  1.00  0.00     0.097 C
HETATM   17  C18 UNL     1     -33.010   4.279 185.866  1.00  0.00     0.042 C
HETATM   18  C19 UNL     1     -32.867   2.986 186.622  1.00  0.00     0.028 C
BRANCH  16  19
HETATM   19  N4  UNL     1     -31.383   5.323 187.343  1.00  0.00    -0.348 N
HETATM   20  C12 UNL     1     -30.863   6.167 188.351  1.00  0.00     0.182 C
HETATM   21  N5  UNL     1     -30.844   7.447 188.269  1.00  0.00    -0.374 N
HETATM   22  N6  UNL     1     -30.312   5.594 189.558  1.00  0.00    -0.064 NA
ATOM     23  H52 UNL     1     -31.233   7.851 187.418  1.00  0.00     0.158 HD
ATOM     24  H51 UNL     1     -30.469   8.056 188.997  1.00  0.00     0.158 HD
ATOM     25  H4  UNL     1     -30.795   4.559 187.009  1.00  0.00     0.163 HD
ENDBRANCH  16  19
BRANCH  16  26
HETATM   26  C13 UNL     1     -32.815   6.695 185.963  1.00  0.00     0.142 C
BRANCH  26  27
HETATM   27  O2  UNL     1     -33.580   7.610 186.518  1.00  0.00    -0.348 OA
ATOM     28  H2  UNL     1     -33.286   8.498 186.350  1.00  0.00     0.219 HD
ENDBRANCH  26  27
BRANCH  26  29
HETATM   29  N7  UNL     1     -32.277   7.100 184.749  1.00  0.00    -0.359 N
HETATM   30  C14 UNL     1     -30.797   7.152 184.659  1.00  0.00     0.151 C
HETATM   31  C15 UNL     1     -30.341   8.427 184.006  1.00  0.00     0.187 C
HETATM   32  O3  UNL     1     -31.243   8.891 183.052  1.00  0.00    -0.388 OA
HETATM   33  C16 UNL     1     -31.944   7.808 182.521  1.00  0.00     0.187 C
HETATM   34  C17 UNL     1     -33.028   7.492 183.599  1.00  0.00     0.151 C
ENDBRANCH  26  29
ENDBRANCH  16  26
ENDBRANCH  11  13
ENDBRANCH   6   9
ENDBRANCH   4   5
ENDBRANCH   3   4
TORSDOF 8
ENDMDL