MODEL 5
REMARK VINA RESULT: -7.164547417      1.277      2.091
REMARK  7 active torsions:
REMARK  status: ('A' for Active; 'I' for Inactive)
REMARK    1  A    between atoms: C2_2  and  N1_3
REMARK    2  A    between atoms: N1_3  and  S1_5
REMARK    3  A    between atoms: S1_5  and  N2_8
REMARK       I    between atoms: N2_8  and  C3_10
REMARK    4  A    between atoms: C3_10  and  C4_12
REMARK       I    between atoms: N3_14  and  C6_15
REMARK    5  A    between atoms: C6_15  and  C7_17
REMARK    6  A    between atoms: C7_17  and  C8_19
REMARK    7  A    between atoms: C16_27  and  N5_28
ROOT
HETATM    1  C4  UNL     1     -38.006  -1.737 189.459  1.00  0.00     0.115 C
HETATM    2  C5  UNL     1     -36.694  -2.162 188.845  1.00  0.00     0.141 C
HETATM    3  N3  UNL     1     -36.938  -3.548 189.272  1.00  0.00    -0.346 N
HETATM    4  C6  UNL     1     -36.169  -4.719 189.391  1.00  0.00     0.264 C
HETATM    5  O4  UNL     1     -34.972  -4.635 189.036  1.00  0.00    -0.267 OA
HETATM    6  C17 UNL     1     -38.321  -3.214 189.490  1.00  0.00     0.141 C
ENDROOT
BRANCH   4   7
HETATM    7  C7  UNL     1     -36.715  -5.967 189.894  1.00  0.00     0.098 C
HETATM    8  N4  UNL     1     -38.076  -6.267 189.566  1.00  0.00    -0.101 NA
BRANCH   7   9
HETATM    9  C8  UNL     1     -36.374  -6.261 191.373  1.00  0.00     0.069 C
HETATM   10  C9  UNL     1     -35.097  -5.517 191.764  1.00  0.00     0.013 C
HETATM   11  C10 UNL     1     -34.047  -6.442 192.331  1.00  0.00     0.001 C
HETATM   12  C11 UNL     1     -33.868  -6.505 193.778  1.00  0.00     0.000 C
HETATM   13  C12 UNL     1     -34.762  -5.727 194.666  1.00  0.00     0.000 C
HETATM   14  C13 UNL     1     -35.957  -6.486 195.182  1.00  0.00     0.000 C
HETATM   15  C14 UNL     1     -36.622  -7.381 194.182  1.00  0.00     0.002 C
HETATM   16  C15 UNL     1     -37.761  -6.827 193.433  1.00  0.00     0.033 C
HETATM   17  C16 UNL     1     -37.542  -5.950 192.270  1.00  0.00     0.193 C
BRANCH  17  18
HETATM   18  N5  UNL     1     -37.718  -4.590 192.630  1.00  0.00    -0.074 N
ATOM     19  H53 UNL     1     -38.346  -4.527 193.431  1.00  0.00     0.274 HD
ATOM     20  H52 UNL     1     -36.856  -4.230 193.039  1.00  0.00     0.274 HD
ATOM     21  H51 UNL     1     -38.038  -3.962 191.893  1.00  0.00     0.274 HD
ENDBRANCH  17  18
ENDBRANCH   7   9
ENDBRANCH   4   7
BRANCH   1  22
HETATM   22  C3  UNL     1     -38.797  -0.937 188.519  1.00  0.00     0.239 C
HETATM   23  N2  UNL     1     -40.211  -0.823 188.635  1.00  0.00    -0.237 N
ATOM     24  H2  UNL     1     -40.708  -1.309 189.382  1.00  0.00     0.183 HD
HETATM   25  O3  UNL     1     -38.216  -0.322 187.577  1.00  0.00    -0.272 OA
BRANCH  23  26
HETATM   26  S1  UNL     1     -41.067   0.140 187.507  1.00  0.00     0.321 S
HETATM   27  O1  UNL     1     -42.473   0.346 187.958  1.00  0.00    -0.182 OA
HETATM   28  O2  UNL     1     -41.014  -0.498 186.144  1.00  0.00    -0.182 OA
BRANCH  26  29
HETATM   29  N1  UNL     1     -40.288   1.685 187.396  1.00  0.00    -0.303 N
ATOM     30  H1  UNL     1     -39.877   2.193 188.179  1.00  0.00     0.173 HD
BRANCH  29  31
HETATM   31  C2  UNL     1     -40.308   2.145 186.020  1.00  0.00     0.129 C
HETATM   32  C1  UNL     1     -40.275   3.662 186.038  1.00  0.00     0.027 C
ENDBRANCH  29  31
ENDBRANCH  26  29
ENDBRANCH  23  26
ENDBRANCH   1  22
TORSDOF 7
ENDMDL