MODEL 5
REMARK VINA RESULT: -6.826671367      1.679      1.948
REMARK  9 active torsions:
REMARK  status: ('A' for Active; 'I' for Inactive)
REMARK    1  A    between atoms: C2_2  and  C4_4
REMARK       I    between atoms: C4_4  and  N1_6
REMARK    2  A    between atoms: N1_6  and  S1_8
REMARK    3  A    between atoms: S1_8  and  N2_11
REMARK       I    between atoms: N3_14  and  C7_15
REMARK    4  A    between atoms: C7_15  and  C8_17
REMARK    5  A    between atoms: C8_17  and  N4_18
REMARK    6  A    between atoms: C8_17  and  C10_27
REMARK    7  A    between atoms: N4_18  and  C9_20
REMARK    8  A    between atoms: C9_20  and  O5_21
REMARK    9  A    between atoms: N5_23  and  O6_25
ROOT
HETATM    1  N2  UNL     1     -36.005  -4.085 189.067  1.00  0.00    -0.190 NA
HETATM    2  C5  UNL     1     -37.395  -3.856 188.724  1.00  0.00     0.129 C
HETATM    3  C6  UNL     1     -37.852  -2.644 189.551  1.00  0.00     0.141 C
HETATM    4  N3  UNL     1     -37.179  -1.518 188.986  1.00  0.00    -0.348 N
HETATM    5  C7  UNL     1     -37.853  -0.355 188.566  1.00  0.00     0.243 C
HETATM    6  O4  UNL     1     -37.063   0.520 188.044  1.00  0.00    -0.271 OA
HETATM    7  C14 UNL     1     -35.716  -1.658 188.873  1.00  0.00     0.141 C
HETATM    8  C15 UNL     1     -35.341  -2.934 189.592  1.00  0.00     0.129 C
ENDROOT
BRANCH   5   9
HETATM    9  C8  UNL     1     -39.302  -0.095 188.676  1.00  0.00     0.184 C
BRANCH   9  10
HETATM   10  N4  UNL     1     -40.023  -1.109 189.419  1.00  0.00    -0.341 N
ATOM     11  H4  UNL     1     -40.059  -2.026 188.975  1.00  0.00     0.164 HD
BRANCH  10  12
HETATM   12  C9  UNL     1     -40.673  -1.023 190.648  1.00  0.00     0.237 C
HETATM   13  N5  UNL     1     -41.016  -2.155 191.229  1.00  0.00    -0.233 N
ATOM     14  H5  UNL     1     -41.494  -2.114 192.129  1.00  0.00     0.198 HD
BRANCH  12  15
HETATM   15  O5  UNL     1     -41.029   0.087 191.378  1.00  0.00    -0.331 OA
ATOM     16  H5  UNL     1     -40.713   0.980 191.318  1.00  0.00     0.221 HD
ENDBRANCH  12  15
BRANCH  13  17
HETATM   17  O6  UNL     1     -40.763  -3.383 190.683  1.00  0.00    -0.287 OA
ATOM     18  H6  UNL     1     -41.320  -4.138 190.824  1.00  0.00     0.244 HD
ENDBRANCH  13  17
ENDBRANCH  10  12
ENDBRANCH   9  10
BRANCH   9  19
HETATM   19  C10 UNL     1     -39.963   0.131 187.323  1.00  0.00    -0.022 C
HETATM   20  C11 UNL     1     -39.583   1.447 186.696  1.00  0.00     0.017 C
HETATM   21  C12 UNL     1     -39.643  -0.965 186.332  1.00  0.00     0.017 C
HETATM   22  C13 UNL     1     -41.472   0.152 187.446  1.00  0.00     0.017 C
ENDBRANCH   9  19
ENDBRANCH   5   9
BRANCH   1  23
HETATM   23  S1  UNL     1     -35.951  -5.431 190.147  1.00  0.00     0.305 S
HETATM   24  O2  UNL     1     -35.603  -6.712 189.416  1.00  0.00    -0.188 OA
HETATM   25  O3  UNL     1     -37.300  -5.669 190.775  1.00  0.00    -0.188 OA
BRANCH  23  26
HETATM   26  N1  UNL     1     -34.742  -5.150 191.341  1.00  0.00    -0.241 N
HETATM   27  C4  UNL     1     -34.536  -6.074 192.390  1.00  0.00     0.235 C
HETATM   28  O1  UNL     1     -35.220  -7.135 192.499  1.00  0.00    -0.272 OA
ATOM     29  H1  UNL     1     -34.168  -4.308 191.290  1.00  0.00     0.182 HD
BRANCH  27  30
HETATM   30  C2  UNL     1     -33.493  -5.806 193.398  1.00  0.00     0.071 C
HETATM   31  C1  UNL     1     -34.202  -5.629 194.741  1.00  0.00     0.019 C
HETATM   32  C3  UNL     1     -32.696  -4.585 193.030  1.00  0.00     0.019 C
ENDBRANCH  27  30
ENDBRANCH  23  26
ENDBRANCH   1  23
TORSDOF 9
ENDMDL