MODEL 1
REMARK VINA RESULT: -7.273006749      0.000      0.000
REMARK  9 active torsions:
REMARK  status: ('A' for Active; 'I' for Inactive)
REMARK    1  A    between atoms: O1_2  and  C2_3
REMARK    2  A    between atoms: C3_4  and  N1_5
REMARK    3  A    between atoms: C5_10  and  N2_11
REMARK       I    between atoms: N2_11  and  C6_13
REMARK    4  A    between atoms: C6_13  and  C7_15
REMARK    5  A    between atoms: C7_15  and  N3_17
REMARK    6  A    between atoms: N3_17  and  C9_19
REMARK    7  A    between atoms: C9_19  and  N4_21
REMARK    8  A    between atoms: N4_21  and  S2_23
REMARK    9  A    between atoms: S2_23  and  C10_26
ROOT
HETATM    1  N2  UNL     1     -38.129  -3.816 190.231  1.00  0.00    -0.354 N
ATOM      2  H2  UNL     1     -38.629  -4.231 191.018  1.00  0.00     0.162 HD
HETATM    3  C6  UNL     1     -38.594  -2.569 189.740  1.00  0.00     0.240 C
HETATM    4  O2  UNL     1     -37.983  -2.059 188.774  1.00  0.00    -0.271 OA
ENDROOT
BRANCH   3   5
HETATM    5  C7  UNL     1     -39.752  -1.837 190.295  1.00  0.00     0.172 C
HETATM    6  C8  UNL     1     -40.560  -2.689 191.248  1.00  0.00     0.042 C
BRANCH   5   7
HETATM    7  N3  UNL     1     -40.580  -1.340 189.245  1.00  0.00    -0.354 N
ATOM      8  H3  UNL     1     -40.815  -1.949 188.462  1.00  0.00     0.162 HD
BRANCH   7   9
HETATM    9  C9  UNL     1     -41.086  -0.007 189.271  1.00  0.00     0.181 C
HETATM   10  S1  UNL     1     -40.618   1.020 190.439  1.00  0.00    -0.040 SA
BRANCH   9  11
HETATM   11  N4  UNL     1     -41.947   0.430 188.230  1.00  0.00    -0.260 N
ATOM     12  H4  UNL     1     -42.935   0.571 188.444  1.00  0.00     0.181 HD
BRANCH  11  13
HETATM   13  S2  UNL     1     -41.414   0.727 186.650  1.00  0.00     0.236 S
HETATM   14  O3  UNL     1     -40.886  -0.574 186.037  1.00  0.00    -0.205 OA
HETATM   15  O4  UNL     1     -42.619   1.084 185.794  1.00  0.00    -0.205 OA
BRANCH  13  16
HETATM   16  C10 UNL     1     -40.142   1.919 186.471  1.00  0.00     0.130 A
HETATM   17  C11 UNL     1     -40.507   3.237 185.823  1.00  0.00     0.023 A
HETATM   18  C12 UNL     1     -40.127   3.138 187.274  1.00  0.00     0.023 A
ENDBRANCH  13  16
ENDBRANCH  11  13
ENDBRANCH   9  11
ENDBRANCH   7   9
ENDBRANCH   5   7
ENDBRANCH   3   5
BRANCH   1  19
HETATM   19  C5  UNL     1     -37.017  -4.531 189.708  1.00  0.00     0.097 C
HETATM   20  C4  UNL     1     -35.722  -3.833 190.069  1.00  0.00     0.061 C
HETATM   21  C3  UNL     1     -34.675  -4.894 189.935  1.00  0.00     0.215 C
HETATM   22  C2  UNL     1     -35.399  -6.222 189.864  1.00  0.00     0.161 C
HETATM   23  C13 UNL     1     -36.826  -5.895 190.298  1.00  0.00     0.001 C
HETATM   24  C14 UNL     1     -37.719  -6.903 189.610  1.00  0.00     0.020 C
HETATM   25  C15 UNL     1     -36.985  -5.961 191.777  1.00  0.00     0.020 C
BRANCH  21  26
HETATM   26  N1  UNL     1     -33.727  -4.876 191.038  1.00  0.00    -0.072 N
ATOM     27  H13 UNL     1     -33.733  -5.756 191.554  1.00  0.00     0.274 HD
ATOM     28  H12 UNL     1     -32.763  -4.898 190.707  1.00  0.00     0.274 HD
ATOM     29  H11 UNL     1     -33.896  -4.079 191.652  1.00  0.00     0.274 HD
ENDBRANCH  21  26
BRANCH  22  30
HETATM   30  O1  UNL     1     -34.823  -7.206 190.626  1.00  0.00    -0.388 OA
HETATM   31  C1  UNL     1     -34.031  -8.059 189.823  1.00  0.00     0.202 C
ENDBRANCH  22  30
ENDBRANCH   1  19
TORSDOF 9
ENDMDL