MODEL 4
REMARK VINA RESULT: -8.106353793      2.348      4.247
REMARK  7 active torsions:
REMARK  status: ('A' for Active; 'I' for Inactive)
REMARK    1  A    between atoms: C2_2  and  C4_4
REMARK    2  A    between atoms: C4_4  and  C5_5
REMARK    3  A    between atoms: C4_4  and  O3_25
REMARK    4  A    between atoms: C5_5  and  C6_6
REMARK    5  A    between atoms: C6_6  and  C8_14
REMARK       I    between atoms: N1_7  and  C7_9
REMARK       I    between atoms: C8_14  and  N4_16
REMARK    6  A    between atoms: N4_16  and  C9_18
REMARK    7  A    between atoms: O3_25  and  C15_26
REMARK       I    between atoms: C15_26  and  N5_28
ROOT
HETATM    1  C6  UNL     1     -36.413  -1.594 188.975  1.00  0.00     0.082 C
HETATM    2  N1  UNL     1     -35.226  -1.661 189.283  1.00  0.00    -0.330 N
ATOM      3  H1  UNL     1     -35.095  -2.618 189.611  1.00  0.00     0.168 HD
HETATM    4  C7  UNL     1     -34.018  -1.088 189.400  1.00  0.00     0.186 C
HETATM    5  N2  UNL     1     -33.598   0.025 188.864  1.00  0.00    -0.374 N
ATOM      6  H21 UNL     1     -32.680   0.460 188.953  1.00  0.00     0.158 HD
ATOM      7  H22 UNL     1     -34.297   0.492 188.287  1.00  0.00     0.158 HD
HETATM    8  N3  UNL     1     -33.025  -1.751 190.220  1.00  0.00    -0.064 NA
ENDROOT
BRANCH   1   9
HETATM    9  C5  UNL     1     -37.273  -2.837 189.144  1.00  0.00     0.096 C
BRANCH   9  10
HETATM   10  C4  UNL     1     -36.735  -3.721 190.219  1.00  0.00     0.142 C
BRANCH  10  11
HETATM   11  C2  UNL     1     -35.887  -4.881 189.643  1.00  0.00     0.007 C
HETATM   12  C1  UNL     1     -36.745  -6.106 189.555  1.00  0.00     0.012 C
HETATM   13  C3  UNL     1     -34.730  -5.138 190.572  1.00  0.00     0.012 C
ENDBRANCH  10  11
BRANCH  10  14
HETATM   14  O3  UNL     1     -37.830  -4.419 190.834  1.00  0.00    -0.298 OA
BRANCH  14  15
HETATM   15  C15 UNL     1     -38.373  -4.135 192.048  1.00  0.00     0.363 C
HETATM   16  O4  UNL     1     -37.750  -4.512 193.067  1.00  0.00    -0.238 OA
HETATM   17  N5  UNL     1     -39.604  -3.437 192.211  1.00  0.00    -0.325 N
HETATM   18  C16 UNL     1     -40.110  -3.208 193.529  1.00  0.00     0.147 C
HETATM   19  C19 UNL     1     -40.360  -2.942 191.079  1.00  0.00     0.147 C
HETATM   20  C17 UNL     1     -40.506  -1.767 193.665  1.00  0.00     0.133 C
HETATM   21  N6  UNL     1     -41.289  -1.236 192.604  1.00  0.00    -0.418 N
HETATM   22  C18 UNL     1     -40.905  -1.560 191.278  1.00  0.00     0.133 C
ATOM     23  H6  UNL     1     -42.098  -0.643 192.791  1.00  0.00     0.153 HD
ENDBRANCH  14  15
ENDBRANCH  10  14
ENDBRANCH   9  10
ENDBRANCH   1   9
BRANCH   1  24
HETATM   24  C8  UNL     1     -37.050  -0.356 188.544  1.00  0.00     0.264 C
HETATM   25  O1  UNL     1     -36.309   0.550 188.031  1.00  0.00    -0.266 OA
HETATM   26  N4  UNL     1     -38.434  -0.078 188.643  1.00  0.00    -0.348 N
ATOM     27  H4  UNL     1     -39.068  -0.774 189.036  1.00  0.00     0.163 HD
BRANCH  26  28
HETATM   28  C9  UNL     1     -38.942   1.172 188.196  1.00  0.00     0.119 C
HETATM   29  C10 UNL     1     -39.719   0.981 186.855  1.00  0.00     0.035 C
HETATM   30  C11 UNL     1     -40.781   0.041 187.298  1.00  0.00     0.011 C
HETATM   31  C14 UNL     1     -40.323   2.373 186.797  1.00  0.00     0.175 C
HETATM   32  C12 UNL     1     -41.168   0.642 188.647  1.00  0.00     0.034 C
HETATM   33  C13 UNL     1     -40.131   1.715 188.934  1.00  0.00     0.144 C
HETATM   34  O2  UNL     1     -40.477   2.796 188.114  1.00  0.00    -0.383 OA
ENDBRANCH  26  28
ENDBRANCH   1  24
TORSDOF 7
ENDMDL