MODEL 1
REMARK VINA RESULT: -7.882673620      0.000      0.000
REMARK  9 active torsions:
REMARK  status: ('A' for Active; 'I' for Inactive)
REMARK    1  A    between atoms: C2_2  and  N1_3
REMARK    2  A    between atoms: C2_2  and  C8_11
REMARK       I    between atoms: N1_3  and  C3_4
REMARK    3  A    between atoms: C3_4  and  O2_6
REMARK    4  A    between atoms: O2_6  and  C4_7
REMARK       I    between atoms: C8_11  and  N2_13
REMARK    5  A    between atoms: N2_13  and  C9_15
REMARK    6  A    between atoms: C9_15  and  C10_16
REMARK    7  A    between atoms: C9_15  and  C16_29
REMARK       I    between atoms: C10_16  and  N3_18
REMARK    8  A    between atoms: N3_18  and  C11_19
REMARK    9  A    between atoms: N4_23  and  N5_24
ROOT
HETATM    1  C9  UNL     1     -37.594  -5.315 191.010  1.00  0.00     0.098 C
ENDROOT
BRANCH   1   2
HETATM    2  N2  UNL     1     -37.942  -4.113 190.419  1.00  0.00    -0.319 N
HETATM    3  C8  UNL     1     -39.047  -3.288 190.296  1.00  0.00     0.282 C
HETATM    4  O3  UNL     1     -40.179  -3.726 190.704  1.00  0.00    -0.265 OA
ATOM      5  H2  UNL     1     -37.143  -3.714 189.925  1.00  0.00     0.169 HD
BRANCH   3   6
HETATM    6  C2  UNL     1     -38.924  -1.944 189.773  1.00  0.00     0.154 C
HETATM    7  C1  UNL     1     -37.822  -1.964 188.697  1.00  0.00     0.091 C
BRANCH   6   8
HETATM    8  N1  UNL     1     -39.690  -0.883 189.739  1.00  0.00    -0.345 NA
HETATM    9  C3  UNL     1     -40.474   0.263 189.877  1.00  0.00     0.441 C
HETATM   10  O1  UNL     1     -40.795   1.039 190.769  1.00  0.00    -0.221 OA
BRANCH   9  11
HETATM   11  O2  UNL     1     -41.124   0.657 188.636  1.00  0.00    -0.282 OA
BRANCH  11  12
HETATM   12  C4  UNL     1     -40.677   1.313 187.533  1.00  0.00     0.062 C
HETATM   13  C5  UNL     1     -39.554   0.736 186.756  1.00  0.00     0.046 C
HETATM   14  C6  UNL     1     -41.879   1.303 186.520  1.00  0.00     0.046 C
HETATM   15  C7  UNL     1     -40.339   2.779 187.734  1.00  0.00     0.046 C
ENDBRANCH  11  12
ENDBRANCH   9  11
ENDBRANCH   6   8
ENDBRANCH   3   6
ENDBRANCH   1   2
BRANCH   1  16
HETATM   16  C10 UNL     1     -37.315  -5.251 192.514  1.00  0.00     0.334 C
HETATM   17  O4  UNL     1     -37.936  -4.396 193.123  1.00  0.00    -0.250 OA
HETATM   18  N3  UNL     1     -36.402  -6.218 193.005  1.00  0.00    -0.395 NA
BRANCH  18  19
HETATM   19  C11 UNL     1     -35.552  -7.114 193.472  1.00  0.00     0.260 C
HETATM   20  C12 UNL     1     -34.504  -7.865 192.704  1.00  0.00     0.051 C
HETATM   21  C13 UNL     1     -33.746  -8.789 193.645  1.00  0.00     0.025 C
HETATM   22  C14 UNL     1     -34.160  -8.763 195.079  1.00  0.00     0.152 C
HETATM   23  N4  UNL     1     -34.155  -7.364 195.530  1.00  0.00    -0.265 N
HETATM   24  C15 UNL     1     -34.834  -6.500 194.665  1.00  0.00     0.273 C
HETATM   25  O5  UNL     1     -34.896  -5.290 194.803  1.00  0.00    -0.268 OA
BRANCH  23  26
HETATM   26  N5  UNL     1     -33.580  -6.873 196.694  1.00  0.00    -0.340 N
ATOM     27  H52 UNL     1     -32.566  -6.799 196.773  1.00  0.00     0.177 HD
ATOM     28  H51 UNL     1     -34.076  -6.540 197.522  1.00  0.00     0.177 HD
ENDBRANCH  23  26
ENDBRANCH  18  19
ENDBRANCH   1  16
BRANCH   1  29
HETATM   29  C16 UNL     1     -36.946  -6.452 190.385  1.00  0.00     0.034 C
HETATM   30  C17 UNL     1     -37.875  -7.220 189.429  1.00  0.00     0.016 C
HETATM   31  C18 UNL     1     -35.713  -6.191 189.551  1.00  0.00     0.016 C
ENDBRANCH   1  29
TORSDOF 9
ENDMDL