MODEL 5
REMARK VINA RESULT: -3.509323217      2.959      4.186
REMARK  2 active torsions:
REMARK  status: ('A' for Active; 'I' for Inactive)
REMARK    1  A    between atoms: C3_4  and  C4_5
REMARK    2  A    between atoms: C6_9  and  N1_10
ROOT
HETATM    1  C1  UNL     1      23.252 -31.098 -33.100  1.00  0.00     0.059 C
HETATM    2  C2  UNL     1      24.566 -30.807 -33.767  1.00  0.00     0.014 A
HETATM    3  S1  UNL     1      26.153 -31.018 -33.127  1.00  0.00    -0.088 SA
HETATM    4  C3  UNL     1      27.043 -30.473 -34.478  1.00  0.00     0.062 A
HETATM    5  C5  UNL     1      26.086 -30.146 -35.379  1.00  0.00     0.065 A
HETATM    6 BR1  UNL     1      26.643 -29.461 -37.113  1.00  0.00    -0.047 Br
HETATM    7  C6  UNL     1      24.818 -30.315 -35.019  1.00  0.00     0.134 A
ENDROOT
BRANCH   7   8
HETATM    8  N1  UNL     1      23.684 -30.006 -35.874  1.00  0.00    -0.113 N
HETATM    9  O2  UNL     1      23.193 -28.885 -35.760  1.00  0.00    -0.532 OA
HETATM   10  O3  UNL     1      23.192 -30.907 -36.756  1.00  0.00    -0.532 OA
ENDBRANCH   7   8
BRANCH   4  11
HETATM   11  C4  UNL     1      28.517 -30.397 -34.583  1.00  0.00     0.278 C
HETATM   12  O1  UNL     1      29.188 -29.708 -33.778  1.00  0.00    -0.301 OA
ENDBRANCH   4  11
TORSDOF 2
ENDMDL