MODEL 4
REMARK VINA RESULT: -4.756364856      3.723      6.733
REMARK  2 active torsions:
REMARK  status: ('A' for Active; 'I' for Inactive)
REMARK    1  A    between atoms: O1_2  and  C2_3
REMARK    2  A    between atoms: C2_3  and  C3_4
ROOT
HETATM    1  C3  UNL     1      29.899 -24.232 -31.991  1.00  0.00     0.112 C
HETATM    2  C4  UNL     1      29.719 -25.264 -33.037  1.00  0.00     0.135 C
HETATM    3  O2  UNL     1      29.115 -25.105 -34.067  1.00  0.00    -0.297 OA
HETATM    4  C5  UNL     1      30.339 -26.602 -32.786  1.00  0.00     0.079 C
HETATM    5  C6  UNL     1      30.541 -26.715 -31.292  1.00  0.00     0.019 C
HETATM    6  C7  UNL     1      29.319 -26.182 -30.531  1.00  0.00    -0.010 C
HETATM    7  C8  UNL     1      28.060 -26.776 -31.157  1.00  0.00     0.018 C
HETATM    8  C9  UNL     1      29.405 -26.705 -29.135  1.00  0.00     0.063 C
HETATM    9  C10 UNL     1      29.763 -25.587 -28.176  1.00  0.00     0.256 C
HETATM   10 CL1  UNL     1      30.383 -26.184 -26.638  1.00  0.00    -0.092 Cl
HETATM   11  O3  UNL     1      30.721 -24.804 -28.861  1.00  0.00    -0.220 OA
HETATM   12  O4  UNL     1      30.059 -24.048 -29.674  1.00  0.00    -0.232 OA
HETATM   13  C11 UNL     1      29.347 -24.695 -30.644  1.00  0.00     0.182 C
ENDROOT
BRANCH   1  14
HETATM   14  C2  UNL     1      29.236 -22.932 -32.334  1.00  0.00     0.181 C
BRANCH  14  15
HETATM   15  O1  UNL     1      29.555 -21.907 -31.459  1.00  0.00    -0.395 OA
HETATM   16  C1  UNL     1      29.825 -20.774 -32.245  1.00  0.00     0.201 C
ENDBRANCH  14  15
ENDBRANCH   1  14
TORSDOF 2
ENDMDL