MODEL 1
REMARK VINA RESULT: -6.126534189      0.000      0.000
REMARK  2 active torsions:
REMARK  status: ('A' for Active; 'I' for Inactive)
REMARK    1  A    between atoms: C2_2  and  C4_5
REMARK    2  A    between atoms: C4_5  and  C5_7
ROOT
HETATM    1  C5  UNL     1      30.504 -26.831 -27.718  1.00  0.00     0.138 C
HETATM    2  C6  UNL     1      29.486 -26.250 -26.787  1.00  0.00     0.044 C
HETATM    3  S1  UNL     1      32.045 -25.875 -27.812  1.00  0.00    -0.066 SA
HETATM    4  C7  UNL     1      33.136 -27.039 -27.048  1.00  0.00     0.198 C
HETATM    5  O2  UNL     1      34.318 -27.025 -27.066  1.00  0.00    -0.285 OA
HETATM    6  C8  UNL     1      32.239 -28.005 -26.399  1.00  0.00     0.134 C
HETATM    7  C9  UNL     1      31.948 -27.480 -24.988  1.00  0.00     0.027 C
HETATM    8  C10 UNL     1      31.011 -28.148 -27.172  1.00  0.00     0.165 C
HETATM    9  O3  UNL     1      30.409 -29.179 -27.394  1.00  0.00    -0.295 OA
ENDROOT
BRANCH   1  10
HETATM   10  C4  UNL     1      30.017 -27.013 -29.099  1.00  0.00     0.182 C
HETATM   11  O1  UNL     1      29.935 -28.156 -29.639  1.00  0.00    -0.290 OA
BRANCH  10  12
HETATM   12  C2  UNL     1      29.609 -25.880 -29.901  1.00  0.00    -0.003 C
HETATM   13  C1  UNL     1      29.571 -24.485 -29.386  1.00  0.00     0.053 C
HETATM   14  C3  UNL     1      29.231 -26.082 -31.173  1.00  0.00     0.095 C
HETATM   15 CL1  UNL     1      28.711 -24.777 -32.195  1.00  0.00    -0.096 Cl
ENDBRANCH  10  12
ENDBRANCH   1  10
TORSDOF 2
ENDMDL