MODEL 4
REMARK VINA RESULT: -6.134420240      6.207      9.225
REMARK  3 active torsions:
REMARK  status: ('A' for Active; 'I' for Inactive)
REMARK    1  A    between atoms: C2_2  and  O1_3
REMARK    2  A    between atoms: O1_3  and  C3_4
REMARK       I    between atoms: C3_4  and  N1_6
REMARK    3  A    between atoms: C4_8  and  C5_10
ROOT
HETATM    1  C5  UNL     1      27.169 -31.344 -34.192  1.00  0.00     0.271 C
HETATM    2  O3  UNL     1      25.928 -30.764 -34.195  1.00  0.00    -0.358 OA
HETATM    3  C6  UNL     1      25.176 -31.334 -35.206  1.00  0.00     0.069 C
HETATM    4  C7  UNL     1      25.258 -30.478 -36.444  1.00  0.00     0.038 C
HETATM    5  C8  UNL     1      24.284 -29.370 -36.127  1.00  0.00     0.003 C
HETATM    6  C9  UNL     1      23.194 -30.036 -35.349  1.00  0.00     0.003 C
HETATM    7  C10 UNL     1      23.706 -31.389 -34.910  1.00  0.00     0.038 C
HETATM    8  C11 UNL     1      25.756 -32.716 -35.426  1.00  0.00     0.119 C
HETATM    9  C12 UNL     1      27.180 -32.455 -35.154  1.00  0.00     0.166 C
HETATM   10  O4  UNL     1      28.120 -33.026 -35.618  1.00  0.00    -0.295 OA
ENDROOT
BRANCH   1  11
HETATM   11  C4  UNL     1      28.281 -30.389 -34.384  1.00  0.00     0.205 C
HETATM   12  N1  UNL     1      29.514 -30.716 -34.210  1.00  0.00    -0.280 N
HETATM   13  C3  UNL     1      30.566 -29.773 -34.403  1.00  0.00     0.371 C
ATOM     14  H1  UNL     1      29.744 -31.669 -33.930  1.00  0.00     0.173 HD
HETATM   15  O2  UNL     1      31.766 -30.155 -34.528  1.00  0.00    -0.238 OA
HETATM   16  F1  UNL     1      28.030 -29.110 -34.755  1.00  0.00    -0.188 F
BRANCH  13  17
HETATM   17  O1  UNL     1      30.336 -28.409 -34.460  1.00  0.00    -0.274 OA
BRANCH  17  18
HETATM   18  C2  UNL     1      30.650 -27.639 -33.356  1.00  0.00     0.137 C
HETATM   19  C1  UNL     1      30.287 -26.377 -33.303  1.00  0.00     0.038 C
ENDBRANCH  17  18
ENDBRANCH  13  17
ENDBRANCH   1  11
TORSDOF 3
ENDMDL