MODEL 4
REMARK VINA RESULT: -4.867214426      9.752     11.792
REMARK  2 active torsions:
REMARK  status: ('A' for Active; 'I' for Inactive)
REMARK    1  A    between atoms: S1_2  and  C2_3
REMARK    2  A    between atoms: C8_10  and  C9_11
ROOT
HETATM    1  C2  UNL     1      25.556 -33.832 -36.229  1.00  0.00     0.186 C
HETATM    2  C3  UNL     1      25.421 -32.900 -37.358  1.00  0.00     0.148 C
HETATM    3  O1  UNL     1      25.830 -33.184 -38.444  1.00  0.00    -0.296 OA
HETATM    4  C4  UNL     1      24.767 -31.606 -37.110  1.00  0.00     0.089 C
HETATM    5  C5  UNL     1      25.445 -30.786 -36.033  1.00  0.00    -0.023 C
HETATM    6  C6  UNL     1      26.652 -30.133 -36.677  1.00  0.00     0.016 C
HETATM    7  C7  UNL     1      24.527 -29.666 -35.590  1.00  0.00     0.016 C
HETATM    8  C8  UNL     1      25.832 -31.681 -34.885  1.00  0.00     0.151 C
HETATM    9  C10 UNL     1      25.233 -33.029 -35.007  1.00  0.00     0.161 C
HETATM   10  O3  UNL     1      24.502 -33.491 -34.162  1.00  0.00    -0.295 OA
ENDROOT
BRANCH   8  11
HETATM   11  C9  UNL     1      25.464 -31.103 -33.568  1.00  0.00     0.231 C
HETATM   12  O2  UNL     1      26.251 -30.734 -32.720  1.00  0.00    -0.279 OA
HETATM   13 CL1  UNL     1      23.750 -30.911 -33.150  1.00  0.00    -0.043 Cl
ENDBRANCH   8  11
BRANCH   1  14
HETATM   14  S1  UNL     1      27.196 -34.511 -36.022  1.00  0.00    -0.153 SA
HETATM   15  C1  UNL     1      27.415 -36.131 -36.772  1.00  0.00     0.091 C
ENDBRANCH   1  14
TORSDOF 2
ENDMDL