MODEL 2
REMARK VINA RESULT: -4.215296986      7.649      9.054
REMARK  3 active torsions:
REMARK  status: ('A' for Active; 'I' for Inactive)
REMARK    1  A    between atoms: O1_2  and  C2_3
REMARK    2  A    between atoms: C2_3  and  C3_5
REMARK    3  A    between atoms: C6_10  and  N1_11
ROOT
HETATM    1  C3  UNL     1      24.990 -30.260 -35.766  1.00  0.00     0.109 A
HETATM    2  C4  UNL     1      24.871 -29.259 -36.722  1.00  0.00     0.053 A
HETATM    3 BR1  UNL     1      23.193 -28.555 -37.304  1.00  0.00    -0.048 Br
HETATM    4  C5  UNL     1      26.143 -28.910 -37.129  1.00  0.00     0.164 A
HETATM    5  O3  UNL     1      26.993 -29.644 -36.471  1.00  0.00    -0.303 OA
HETATM    6  C6  UNL     1      26.344 -30.462 -35.647  1.00  0.00     0.162 A
ENDROOT
BRANCH   1   7
HETATM    7  C2  UNL     1      23.885 -30.915 -35.080  1.00  0.00     0.298 C
HETATM    8  O2  UNL     1      23.248 -31.835 -35.641  1.00  0.00    -0.259 OA
BRANCH   7   9
HETATM    9  O1  UNL     1      23.506 -30.550 -33.801  1.00  0.00    -0.322 OA
HETATM   10  C1  UNL     1      23.201 -29.245 -33.402  1.00  0.00     0.213 C
ENDBRANCH   7   9
ENDBRANCH   1   7
BRANCH   6  11
HETATM   11  N1  UNL     1      26.991 -31.388 -34.792  1.00  0.00    -0.369 N
HETATM   12  C7  UNL     1      27.327 -32.713 -35.266  1.00  0.00     0.151 C
HETATM   13  C8  UNL     1      27.337 -31.035 -33.438  1.00  0.00     0.151 C
ENDBRANCH   6  11
TORSDOF 3
ENDMDL