MODEL 1
REMARK VINA RESULT: -5.995981938      0.000      0.000
REMARK  2 active torsions:
REMARK  status: ('A' for Active; 'I' for Inactive)
REMARK    1  A    between atoms: O1_2  and  C2_3
REMARK    2  A    between atoms: C7_8  and  O2_9
ROOT
HETATM    1  C2  UNL     1      29.466 -24.699 -30.784  1.00  0.00     0.102 A
HETATM    2  C3  UNL     1      29.489 -24.659 -29.416  1.00  0.00     0.055 A
HETATM    3  C4  UNL     1      29.975 -25.765 -28.707  1.00  0.00     0.023 A
HETATM    4  C5  UNL     1      30.429 -26.887 -29.364  1.00  0.00    -0.001 A
HETATM    5  C6  UNL     1      30.401 -26.917 -30.743  1.00  0.00     0.051 A
HETATM    6  C7  UNL     1      29.919 -25.823 -31.464  1.00  0.00     0.102 A
HETATM    7  C9  UNL     1      30.928 -28.016 -28.539  1.00  0.00     0.274 C
HETATM    8  F1  UNL     1      29.816 -28.664 -28.001  1.00  0.00    -0.236 F
HETATM    9  C10 UNL     1      31.684 -27.437 -27.405  1.00  0.00     0.176 C
HETATM   10  O3  UNL     1      32.846 -27.772 -27.239  1.00  0.00    -0.294 OA
HETATM   11  C11 UNL     1      31.008 -26.471 -26.511  1.00  0.00     0.129 C
HETATM   12  C12 UNL     1      32.027 -25.459 -25.977  1.00  0.00     0.026 C
HETATM   13  C13 UNL     1      29.985 -25.688 -27.253  1.00  0.00     0.171 C
HETATM   14  O4  UNL     1      29.138 -24.967 -26.641  1.00  0.00    -0.291 OA
ENDROOT
BRANCH   1  15
HETATM   15  O1  UNL     1      29.000 -23.642 -31.513  1.00  0.00    -0.353 OA
HETATM   16  C1  UNL     1      29.745 -22.562 -31.976  1.00  0.00     0.210 C
ENDBRANCH   1  15
BRANCH   6  17
HETATM   17  O2  UNL     1      29.876 -25.816 -32.853  1.00  0.00    -0.353 OA
HETATM   18  C8  UNL     1      30.451 -26.924 -33.523  1.00  0.00     0.210 C
ENDBRANCH   6  17
TORSDOF 2
ENDMDL