MODEL 3
REMARK VINA RESULT: -5.470809171      2.238      3.352
REMARK  3 active torsions:
REMARK  status: ('A' for Active; 'I' for Inactive)
REMARK    1  A    between atoms: C2_2  and  O2_4
REMARK    2  A    between atoms: O2_4  and  C3_5
REMARK    3  A    between atoms: C3_5  and  C4_6
ROOT
HETATM    1  C3  UNL     1      30.556 -27.048 -27.224  1.00  0.00     0.114 C
HETATM    2  C7  UNL     1      30.455 -25.676 -26.746  1.00  0.00     0.214 C
HETATM    3  O3  UNL     1      29.377 -24.907 -27.127  1.00  0.00    -0.355 OA
HETATM    4  C8  UNL     1      29.205 -24.829 -28.500  1.00  0.00     0.295 A
HETATM    5  O4  UNL     1      30.410 -24.881 -29.190  1.00  0.00    -0.343 OA
HETATM    6  C9  UNL     1      29.439 -25.995 -29.242  1.00  0.00     0.113 A
HETATM    7  C10 UNL     1      28.956 -26.163 -30.642  1.00  0.00     0.051 C
HETATM    8  C11 UNL     1      29.830 -27.243 -28.537  1.00  0.00     0.088 C
ENDROOT
BRANCH   1   9
HETATM    9  O2  UNL     1      30.280 -28.070 -26.303  1.00  0.00    -0.304 OA
BRANCH   9  10
HETATM   10  C2  UNL     1      30.770 -29.325 -26.474  1.00  0.00     0.255 C
HETATM   11  C1  UNL     1      31.883 -29.928 -25.701  1.00  0.00     0.126 C
HETATM   12  O1  UNL     1      30.231 -30.004 -27.349  1.00  0.00    -0.266 OA
ENDBRANCH   9  10
ENDBRANCH   1   9
BRANCH   1  13
HETATM   13  C4  UNL     1      32.018 -27.297 -27.572  1.00  0.00     0.033 C
HETATM   14  C5  UNL     1      32.944 -26.926 -26.703  1.00  0.00     0.007 C
HETATM   15  C6  UNL     1      34.376 -27.155 -27.010  1.00  0.00     0.061 C
HETATM   16 CL1  UNL     1      32.564 -26.159 -25.165  1.00  0.00    -0.090 Cl
ENDBRANCH   1  13
TORSDOF 3
ENDMDL