MODEL 3
REMARK VINA RESULT: -4.583392624      7.918      9.966
REMARK  3 active torsions:
REMARK  status: ('A' for Active; 'I' for Inactive)
REMARK    1  A    between atoms: C2_2  and  O2_4
REMARK    2  A    between atoms: O2_4  and  C3_5
REMARK    3  A    between atoms: C9_13  and  C10_14
ROOT
HETATM    1  C3  UNL     1      26.649 -31.051 -34.716  1.00  0.00     0.279 C
HETATM    2  O3  UNL     1      26.376 -31.459 -36.031  1.00  0.00    -0.342 OA
HETATM    3  C4  UNL     1      25.969 -32.788 -36.073  1.00  0.00     0.117 C
HETATM    4  C5  UNL     1      27.108 -33.731 -35.708  1.00  0.00     0.054 C
HETATM    5  C6  UNL     1      25.537 -33.068 -37.507  1.00  0.00     0.054 C
HETATM    6  C7  UNL     1      24.854 -32.958 -35.128  1.00  0.00     0.161 C
HETATM    7  O4  UNL     1      24.013 -33.822 -35.386  1.00  0.00    -0.295 OA
HETATM    8  C8  UNL     1      24.668 -32.173 -33.895  1.00  0.00     0.095 C
HETATM    9  C9  UNL     1      25.364 -30.810 -34.031  1.00  0.00     0.072 C
ENDROOT
BRANCH   1  10
HETATM   10  O2  UNL     1      27.584 -30.045 -34.754  1.00  0.00    -0.289 OA
BRANCH  10  11
HETATM   11  C2  UNL     1      28.795 -30.022 -34.107  1.00  0.00     0.257 C
HETATM   12  C1  UNL     1      30.084 -30.371 -34.742  1.00  0.00     0.126 C
HETATM   13  O1  UNL     1      28.717 -29.670 -32.904  1.00  0.00    -0.266 OA
ENDBRANCH  10  11
ENDBRANCH   1  10
BRANCH   9  14
HETATM   14  C10 UNL     1      24.391 -30.003 -34.845  1.00  0.00    -0.005 C
HETATM   15  C11 UNL     1      23.499 -29.280 -34.177  1.00  0.00     0.081 C
HETATM   16 CL1  UNL     1      23.433 -29.247 -32.424  1.00  0.00    -0.097 Cl
ENDBRANCH   9  14
TORSDOF 3
ENDMDL