MODEL 2
REMARK VINA RESULT: -5.657307573      3.646      5.371
REMARK  8 active torsions:
REMARK  status: ('A' for Active; 'I' for Inactive)
REMARK    1  A    between atoms: O1_2  and  C2_3
REMARK    2  A    between atoms: C3_4  and  O2_5
REMARK    3  A    between atoms: C5_8  and  N1_9
REMARK    4  A    between atoms: C5_8  and  C6_15
REMARK    5  A    between atoms: N1_9  and  N2_11
REMARK    6  A    between atoms: N2_11  and  N3_12
REMARK       I    between atoms: C6_15  and  N4_17
REMARK    7  A    between atoms: N4_17  and  N5_19
REMARK    8  A    between atoms: N5_19  and  N6_20
ROOT
HETATM    1  C2  UNL     1      29.989 -25.197 -31.421  1.00  0.00     0.183 C
HETATM    2  C3  UNL     1      30.962 -26.350 -31.336  1.00  0.00     0.152 C
HETATM    3  C4  UNL     1      30.764 -27.215 -30.143  1.00  0.00     0.078 C
HETATM    4  C5  UNL     1      30.374 -26.502 -28.879  1.00  0.00     0.147 C
HETATM    5  C7  UNL     1      29.388 -25.383 -29.085  1.00  0.00     0.083 C
HETATM    6  C8  UNL     1      28.813 -25.477 -30.473  1.00  0.00     0.204 C
HETATM    7  F1  UNL     1      28.220 -26.672 -30.769  1.00  0.00    -0.247 F
ENDROOT
BRANCH   4   8
HETATM    8  N1  UNL     1      31.587 -25.960 -28.249  1.00  0.00    -0.233 N
ATOM      9  H1  UNL     1      31.766 -24.958 -28.308  1.00  0.00     0.198 HD
BRANCH   8  10
HETATM   10  N2  UNL     1      32.391 -26.669 -27.656  1.00  0.00    -0.247 NA
BRANCH  10  11
HETATM   11  N3  UNL     1      33.160 -27.579 -27.369  1.00  0.00    -0.261 N
ATOM     12  H32 UNL     1      33.589 -27.625 -28.293  1.00  0.00     0.193 HD
ATOM     13  H31 UNL     1      33.660 -28.307 -26.860  1.00  0.00     0.193 HD
ENDBRANCH  10  11
ENDBRANCH   8  10
ENDBRANCH   4   8
BRANCH   4  14
HETATM   14  C6  UNL     1      29.764 -27.424 -27.889  1.00  0.00     0.278 C
HETATM   15  O3  UNL     1      29.277 -28.507 -28.293  1.00  0.00    -0.268 OA
HETATM   16  N4  UNL     1      29.706 -27.130 -26.501  1.00  0.00    -0.181 N
ATOM     17  H4  UNL     1      30.528 -26.787 -26.003  1.00  0.00     0.207 HD
BRANCH  16  18
HETATM   18  N5  UNL     1      28.621 -27.303 -25.905  1.00  0.00    -0.241 NA
BRANCH  18  19
HETATM   19  N6  UNL     1      27.533 -27.702 -25.477  1.00  0.00    -0.260 N
ATOM     20  H62 UNL     1      27.794 -28.675 -25.643  1.00  0.00     0.193 HD
ATOM     21  H61 UNL     1      26.594 -27.806 -25.093  1.00  0.00     0.193 HD
ENDBRANCH  18  19
ENDBRANCH  16  18
ENDBRANCH   4  14
BRANCH   2  22
HETATM   22  O2  UNL     1      30.877 -27.182 -32.461  1.00  0.00    -0.393 OA
ATOM     23  H2  UNL     1      31.271 -28.031 -32.300  1.00  0.00     0.210 HD
ENDBRANCH   2  22
BRANCH   1  24
HETATM   24  O1  UNL     1      29.552 -24.961 -32.703  1.00  0.00    -0.385 OA
HETATM   25  C1  UNL     1      29.099 -23.676 -32.841  1.00  0.00     0.202 C
ENDBRANCH   1  24
TORSDOF 8
ENDMDL