MODEL 1
REMARK VINA RESULT: -6.370769354      0.000      0.000
REMARK  3 active torsions:
REMARK  status: ('A' for Active; 'I' for Inactive)
REMARK    1  A    between atoms: C4_4  and  C5_5
REMARK    2  A    between atoms: C5_5  and  C6_6
REMARK    3  A    between atoms: C11_16  and  O3_18
ROOT
HETATM    1  C6  UNL     1      29.256 -25.947 -30.192  1.00  0.00     0.144 C
HETATM    2  N1  UNL     1      28.659 -27.028 -29.871  1.00  0.00    -0.244 N
ATOM      3  H1  UNL     1      28.037 -27.557 -30.481  1.00  0.00     0.196 HD
HETATM    4  O1  UNL     1      28.975 -27.366 -28.598  1.00  0.00    -0.235 OA
HETATM    5  C7  UNL     1      30.169 -26.694 -28.258  1.00  0.00     0.234 C
HETATM    6  C8  UNL     1      31.323 -27.543 -28.697  1.00  0.00     0.101 C
HETATM    7  C9  UNL     1      32.303 -27.786 -27.567  1.00  0.00     0.177 C
HETATM    8  O2  UNL     1      32.570 -26.645 -26.851  1.00  0.00    -0.354 OA
HETATM    9  C10 UNL     1      31.499 -26.084 -26.214  1.00  0.00     0.346 C
HETATM   10  F1  UNL     1      31.496 -26.458 -24.864  1.00  0.00    -0.216 F
HETATM   11  C11 UNL     1      30.170 -26.359 -26.816  1.00  0.00     0.167 C
HETATM   12  C12 UNL     1      29.285 -25.128 -26.595  1.00  0.00     0.057 C
HETATM   13  O4  UNL     1      30.006 -25.536 -29.099  1.00  0.00    -0.294 OA
ENDROOT
BRANCH  11  14
HETATM   14  O3  UNL     1      29.548 -27.397 -26.106  1.00  0.00    -0.379 OA
ATOM     15  H3  UNL     1      28.967 -27.022 -25.455  1.00  0.00     0.211 HD
ENDBRANCH  11  14
BRANCH   1  16
HETATM   16  C5  UNL     1      29.139 -25.274 -31.529  1.00  0.00     0.113 C
BRANCH  16  17
HETATM   17  C4  UNL     1      29.543 -23.857 -31.331  1.00  0.00    -0.017 C
HETATM   18  C2  UNL     1      29.536 -23.053 -32.385  1.00  0.00    -0.091 C
HETATM   19  C1  UNL     1      29.941 -21.637 -32.181  1.00  0.00     0.042 C
HETATM   20  C3  UNL     1      29.140 -23.533 -33.733  1.00  0.00     0.042 C
ENDBRANCH  16  17
ENDBRANCH   1  16
TORSDOF 3
ENDMDL