MODEL 4
REMARK VINA RESULT: -5.732970007      2.560      4.871
REMARK  3 active torsions:
REMARK  status: ('A' for Active; 'I' for Inactive)
REMARK    1  A    between atoms: C2_2  and  O2_4
REMARK    2  A    between atoms: O2_4  and  N1_5
REMARK    3  A    between atoms: N1_5  and  C3_7
ROOT
HETATM    1  C3  UNL     1      29.370 -26.475 -30.594  1.00  0.00     0.068 C
HETATM    2  C4  UNL     1      28.055 -27.086 -30.090  1.00  0.00     0.042 C
HETATM    3  C5  UNL     1      29.521 -25.156 -29.885  1.00  0.00     0.035 C
HETATM    4  C6  UNL     1      30.786 -24.519 -30.340  1.00  0.00     0.020 C
HETATM    5  C7  UNL     1      30.758 -24.257 -31.792  1.00  0.00     0.116 C
HETATM    6  C8  UNL     1      29.789 -23.240 -32.215  1.00  0.00     0.266 C
HETATM    7  O3  UNL     1      29.516 -22.081 -31.822  1.00  0.00    -0.265 OA
HETATM    8  O4  UNL     1      29.343 -24.103 -33.190  1.00  0.00    -0.313 OA
HETATM    9  C9  UNL     1      30.080 -25.218 -32.656  1.00  0.00     0.166 C
HETATM   10  C10 UNL     1      29.238 -26.258 -32.053  1.00  0.00     0.142 C
HETATM   11 CL1  UNL     1      29.476 -27.782 -32.982  1.00  0.00    -0.120 Cl
ENDROOT
BRANCH   1  12
HETATM   12  N1  UNL     1      30.425 -27.337 -30.182  1.00  0.00    -0.282 N
ATOM     13  H1  UNL     1      31.233 -27.522 -30.775  1.00  0.00     0.189 HD
BRANCH  12  14
HETATM   14  O2  UNL     1      30.291 -27.893 -28.964  1.00  0.00    -0.204 OA
BRANCH  14  15
HETATM   15  C2  UNL     1      31.161 -27.541 -27.955  1.00  0.00     0.277 C
HETATM   16  C1  UNL     1      30.721 -26.925 -26.669  1.00  0.00     0.128 C
HETATM   17  O1  UNL     1      32.393 -27.740 -28.105  1.00  0.00    -0.264 OA
ENDBRANCH  14  15
ENDBRANCH  12  14
ENDBRANCH   1  12
TORSDOF 3
ENDMDL