MODEL 1
REMARK VINA RESULT: -4.973841060      0.000      0.000
REMARK  4 active torsions:
REMARK  status: ('A' for Active; 'I' for Inactive)
REMARK    1  A    between atoms: O1_2  and  C2_3
REMARK    2  A    between atoms: C2_3  and  C3_5
REMARK    3  A    between atoms: C6_10  and  N1_11
REMARK    4  A    between atoms: N1_11  and  S2_13
ROOT
HETATM    1  C3  UNL     1      29.722 -25.276 -31.858  1.00  0.00     0.110 A
HETATM    2  S1  UNL     1      30.193 -25.800 -33.443  1.00  0.00    -0.052 SA
HETATM    3  C4  UNL     1      29.961 -27.464 -33.258  1.00  0.00     0.160 A
HETATM    4  F1  UNL     1      30.164 -28.461 -34.181  1.00  0.00    -0.198 F
HETATM    5  C5  UNL     1      29.523 -27.582 -31.974  1.00  0.00     0.081 A
HETATM    6  C6  UNL     1      29.399 -26.449 -31.246  1.00  0.00     0.069 A
ENDROOT
BRANCH   6   7
HETATM    7  N1  UNL     1      28.935 -26.492 -29.858  1.00  0.00    -0.283 N
ATOM      8  H1  UNL     1      27.985 -26.192 -29.639  1.00  0.00     0.178 HD
BRANCH   7   9
HETATM    9  S2  UNL     1      29.962 -27.039 -28.585  1.00  0.00     0.227 S
HETATM   10  C7  UNL     1      30.474 -25.633 -27.613  1.00  0.00     0.186 C
HETATM   11  O3  UNL     1      31.144 -27.713 -29.175  1.00  0.00    -0.206 OA
HETATM   12  O4  UNL     1      29.210 -27.955 -27.645  1.00  0.00    -0.206 OA
ENDBRANCH   7   9
ENDBRANCH   6   7
BRANCH   1  13
HETATM   13  C2  UNL     1      29.706 -23.878 -31.376  1.00  0.00     0.302 C
HETATM   14  O2  UNL     1      29.884 -23.614 -30.193  1.00  0.00    -0.259 OA
BRANCH  13  15
HETATM   15  O1  UNL     1      29.476 -22.879 -32.345  1.00  0.00    -0.322 OA
HETATM   16  C1  UNL     1      29.877 -21.563 -31.995  1.00  0.00     0.213 C
ENDBRANCH  13  15
ENDBRANCH   1  13
TORSDOF 4
ENDMDL