MODEL 2
REMARK VINA RESULT: -4.111543162      3.435      5.583
REMARK  4 active torsions:
REMARK  status: ('A' for Active; 'I' for Inactive)
REMARK    1  A    between atoms: C2_2  and  N1_4
REMARK    2  A    between atoms: N1_4  and  C5_6
REMARK    3  A    between atoms: C7_13  and  C8_14
REMARK    4  A    between atoms: C8_14  and  N5_15
ROOT
HETATM    1  C5  UNL     1      22.897 -30.246 -34.609  1.00  0.00     0.102 A
HETATM    2  N2  UNL     1      23.186 -29.396 -33.706  1.00  0.00    -0.319 N
ATOM      3  H2  UNL     1      23.665 -28.548 -34.007  1.00  0.00     0.169 HD
HETATM    4  C6  UNL     1      22.908 -29.516 -32.336  1.00  0.00     0.190 A
HETATM    5  N3  UNL     1      23.238 -28.555 -31.346  1.00  0.00    -0.063 NA
HETATM    6  N4  UNL     1      22.308 -30.584 -31.968  1.00  0.00    -0.356 N
ATOM      7  H4  UNL     1      22.095 -30.691 -30.976  1.00  0.00     0.162 HD
HETATM    8  C7  UNL     1      21.911 -31.645 -32.852  1.00  0.00     0.127 A
HETATM    9  C11 UNL     1      22.200 -31.501 -34.282  1.00  0.00     0.174 A
HETATM   10 CL1  UNL     1      20.653 -31.537 -35.225  1.00  0.00    -0.115 Cl
ENDROOT
BRANCH   1  11
HETATM   11  N1  UNL     1      23.258 -29.969 -35.996  1.00  0.00    -0.370 N
HETATM   12  C4  UNL     1      23.657 -31.072 -36.827  1.00  0.00     0.151 C
BRANCH  11  13
HETATM   13  C2  UNL     1      23.218 -28.644 -36.512  1.00  0.00     0.077 C
HETATM   14  C1  UNL     1      24.234 -28.405 -37.608  1.00  0.00     0.032 C
HETATM   15  C3  UNL     1      21.848 -28.363 -37.038  1.00  0.00     0.032 C
ENDBRANCH  11  13
ENDBRANCH   1  11
BRANCH   8  16
HETATM   16  C8  UNL     1      22.592 -32.901 -32.246  1.00  0.00     0.142 C
BRANCH  16  17
HETATM   17  N5  UNL     1      21.703 -33.395 -31.283  1.00  0.00    -0.419 N
HETATM   18  C9  UNL     1      20.489 -33.945 -31.701  1.00  0.00     0.142 C
HETATM   19  C10 UNL     1      22.121 -33.547 -29.961  1.00  0.00     0.142 C
ENDBRANCH  16  17
ENDBRANCH   8  16
TORSDOF 4
ENDMDL