MODEL 2
REMARK VINA RESULT: -5.688719953      2.015      2.898
REMARK  3 active torsions:
REMARK  status: ('A' for Active; 'I' for Inactive)
REMARK    1  A    between atoms: N1_2  and  C2_5
REMARK    2  A    between atoms: C4_8  and  N2_9
REMARK    3  A    between atoms: C6_15  and  C7_16
ROOT
HETATM    1  C2  UNL     1      29.142 -25.188 -31.973  1.00  0.00     0.248 C
HETATM    2  C3  UNL     1      29.567 -24.365 -30.800  1.00  0.00     0.206 C
HETATM    3  O1  UNL     1      29.602 -25.003 -29.596  1.00  0.00    -0.364 OA
HETATM    4  C4  UNL     1      30.068 -26.253 -29.530  1.00  0.00     0.233 C
HETATM    5  C10 UNL     1      30.529 -26.812 -30.884  1.00  0.00     0.099 C
HETATM    6  C11 UNL     1      29.303 -26.671 -31.763  1.00  0.00     0.134 C
HETATM    7  C12 UNL     1      29.440 -27.419 -33.068  1.00  0.00     0.054 C
HETATM    8  F1  UNL     1      28.167 -27.115 -31.109  1.00  0.00    -0.241 F
ENDROOT
BRANCH   4   9
HETATM    9  N2  UNL     1      31.101 -26.566 -28.601  1.00  0.00    -0.302 N
HETATM   10  C5  UNL     1      32.239 -27.181 -29.028  1.00  0.00     0.203 A
HETATM   11  N3  UNL     1      33.046 -27.366 -28.000  1.00  0.00    -0.295 N
HETATM   12  N4  UNL     1      32.448 -26.888 -26.953  1.00  0.00    -0.287 N
ATOM     13  H3  UNL     1      33.968 -27.804 -28.024  1.00  0.00     0.187 HD
HETATM   14  C6  UNL     1      31.253 -26.390 -27.293  1.00  0.00     0.105 A
ATOM     15  H4  UNL     1      32.832 -26.890 -26.008  1.00  0.00     0.188 HD
BRANCH  14  16
HETATM   16  C7  UNL     1      30.302 -25.773 -26.374  1.00  0.00     0.055 A
HETATM   17  C8  UNL     1      29.217 -26.725 -25.777  1.00  0.00     0.013 A
HETATM   18  C9  UNL     1      30.375 -26.335 -24.957  1.00  0.00     0.013 A
ENDBRANCH  14  16
ENDBRANCH   4   9
BRANCH   1  19
HETATM   19  N1  UNL     1      29.984 -24.834 -33.101  1.00  0.00    -0.070 N
HETATM   20  C1  UNL     1      29.537 -23.623 -33.752  1.00  0.00     0.267 C
ATOM     21  H12 UNL     1      30.057 -25.605 -33.764  1.00  0.00     0.277 HD
ATOM     22  H11 UNL     1      30.964 -24.766 -32.825  1.00  0.00     0.277 HD
ENDBRANCH   1  19
TORSDOF 3
ENDMDL