MODEL 1
REMARK VINA RESULT: -6.909984596      0.000      0.000
REMARK  4 active torsions:
REMARK  status: ('A' for Active; 'I' for Inactive)
REMARK    1  A    between atoms: C3_4  and  C4_5
REMARK    2  A    between atoms: C4_5  and  O2_7
REMARK    3  A    between atoms: O2_7  and  C5_8
REMARK    4  A    between atoms: C5_8  and  C6_9
ROOT
HETATM    1  C6  UNL     1      29.956 -26.176 -31.189  1.00  0.00     0.049 A
HETATM    2  C7  UNL     1      29.705 -26.322 -32.534  1.00  0.00     0.062 A
HETATM    3  C8  UNL     1      29.680 -27.691 -33.102  1.00  0.00     0.077 C
HETATM    4  O3  UNL     1      29.480 -25.278 -33.295  1.00  0.00    -0.316 OA
HETATM    5  C9  UNL     1      29.469 -24.057 -32.867  1.00  0.00     0.092 A
HETATM    6  C10 UNL     1      29.197 -22.926 -33.825  1.00  0.00     0.080 C
HETATM    7  C11 UNL     1      29.711 -23.818 -31.516  1.00  0.00     0.196 A
HETATM    8  F1  UNL     1      29.712 -22.560 -31.053  1.00  0.00    -0.199 F
HETATM    9  C12 UNL     1      29.960 -24.911 -30.663  1.00  0.00     0.223 A
HETATM   10  O4  UNL     1      30.169 -24.638 -29.470  1.00  0.00    -0.284 OA
ENDROOT
BRANCH   1  11
HETATM   11  C5  UNL     1      30.310 -27.333 -30.331  1.00  0.00     0.224 C
BRANCH  11  12
HETATM   12  O2  UNL     1      31.439 -27.106 -29.557  1.00  0.00    -0.313 OA
BRANCH  12  13
HETATM   13  C4  UNL     1      31.525 -27.464 -28.239  1.00  0.00     0.284 C
HETATM   14  O1  UNL     1      32.642 -27.513 -27.718  1.00  0.00    -0.260 OA
BRANCH  13  15
HETATM   15  C3  UNL     1      30.303 -27.790 -27.467  1.00  0.00     0.103 C
HETATM   16  C2  UNL     1      29.841 -26.977 -26.583  1.00  0.00     0.026 C
HETATM   17  C1  UNL     1      28.592 -27.326 -25.797  1.00  0.00     0.065 C
HETATM   18  N1  UNL     1      30.440 -25.742 -26.316  1.00  0.00    -0.107 NA
ENDBRANCH  13  15
ENDBRANCH  12  13
ENDBRANCH  11  12
ENDBRANCH   1  11
TORSDOF 4
ENDMDL