MODEL 2
REMARK VINA RESULT: -4.950522315      2.083      5.680
REMARK  4 active torsions:
REMARK  status: ('A' for Active; 'I' for Inactive)
REMARK    1  A    between atoms: O1_2  and  C2_3
REMARK    2  A    between atoms: C2_3  and  C3_5
REMARK    3  A    between atoms: C7_11  and  O3_12
REMARK    4  A    between atoms: O3_12  and  C8_13
ROOT
HETATM    1  C3  UNL     1      23.909 -29.884 -36.573  1.00  0.00     0.065 A
HETATM    2  C4  UNL     1      25.080 -29.487 -35.964  1.00  0.00     0.049 A
HETATM    3  C5  UNL     1      26.149 -30.302 -35.888  1.00  0.00     0.088 A
HETATM    4  N1  UNL     1      27.335 -29.846 -35.248  1.00  0.00    -0.099 NA
HETATM    5  C6  UNL     1      26.069 -31.570 -36.436  1.00  0.00     0.175 A
HETATM    6  F1  UNL     1      27.191 -32.340 -36.322  1.00  0.00    -0.201 F
HETATM    7  C7  UNL     1      24.929 -32.021 -37.057  1.00  0.00     0.131 A
HETATM    8  C11 UNL     1      23.849 -31.167 -37.121  1.00  0.00     0.097 A
HETATM    9  C12 UNL     1      22.622 -31.564 -37.760  1.00  0.00     0.103 C
HETATM   10  N2  UNL     1      21.628 -31.917 -38.294  1.00  0.00    -0.191 NA
ENDROOT
BRANCH   1  11
HETATM   11  C2  UNL     1      22.817 -28.937 -36.604  1.00  0.00     0.294 C
HETATM   12  O2  UNL     1      22.782 -28.067 -37.500  1.00  0.00    -0.259 OA
BRANCH  11  13
HETATM   13  O1  UNL     1      21.821 -28.998 -35.646  1.00  0.00    -0.322 OA
HETATM   14  C1  UNL     1      20.482 -29.095 -36.083  1.00  0.00     0.213 C
ENDBRANCH  11  13
ENDBRANCH   1  11
BRANCH   7  15
HETATM   15  O3  UNL     1      24.877 -33.263 -37.584  1.00  0.00    -0.342 OA
BRANCH  15  16
HETATM   16  C8  UNL     1      25.421 -33.719 -38.794  1.00  0.00     0.121 C
HETATM   17  C9  UNL     1      26.450 -34.796 -38.662  1.00  0.00     0.040 C
HETATM   18  C10 UNL     1      24.360 -34.198 -39.762  1.00  0.00     0.040 C
ENDBRANCH  15  16
ENDBRANCH   7  15
TORSDOF 4
ENDMDL