MODEL 1
REMARK VINA RESULT: -7.097419018      0.000      0.000
REMARK  6 active torsions:
REMARK  status: ('A' for Active; 'I' for Inactive)
REMARK    1  A    between atoms: C3_3  and  C4_4
REMARK    2  A    between atoms: C4_4  and  O1_7
REMARK    3  A    between atoms: O1_7  and  C7_8
REMARK    4  A    between atoms: C7_8  and  C8_10
REMARK    5  A    between atoms: C8_10  and  S1_11
REMARK    6  A    between atoms: S1_11  and  C9_12
ROOT
HETATM    1  C1  UNL     1      26.929 -28.126 -25.134  1.00  0.00     0.112 C
HETATM    2  C2  UNL     1      28.150 -27.638 -25.767  1.00  0.00    -0.108 C
HETATM    3  C3  UNL     1      29.152 -27.202 -26.279  1.00  0.00    -0.069 C
ENDROOT
BRANCH   3   4
HETATM    4  C4  UNL     1      30.387 -26.625 -26.893  1.00  0.00     0.126 C
HETATM    5  C5  UNL     1      31.142 -27.712 -27.591  1.00  0.00     0.061 C
HETATM    6  C6  UNL     1      31.243 -26.107 -25.756  1.00  0.00     0.061 C
BRANCH   4   7
HETATM    7  O1  UNL     1      29.965 -25.574 -27.682  1.00  0.00    -0.297 OA
BRANCH   7   8
HETATM    8  C7  UNL     1      29.982 -25.440 -29.045  1.00  0.00     0.270 C
HETATM    9  O2  UNL     1      30.833 -24.700 -29.537  1.00  0.00    -0.264 OA
BRANCH   8  10
HETATM   10  C8  UNL     1      29.017 -26.146 -29.935  1.00  0.00     0.193 C
BRANCH  10  11
HETATM   11  S1  UNL     1      29.571 -26.275 -31.632  1.00  0.00    -0.081 SA
BRANCH  11  12
HETATM   12  C9  UNL     1      29.420 -24.674 -32.411  1.00  0.00     0.176 A
HETATM   13  N1  UNL     1      29.750 -23.493 -31.852  1.00  0.00    -0.263 N
HETATM   14  N2  UNL     1      29.511 -22.535 -32.713  1.00  0.00    -0.226 N
ATOM     15  H1  UNL     1      30.125 -23.365 -30.912  1.00  0.00     0.190 HD
HETATM   16  N3  UNL     1      29.035 -23.071 -33.812  1.00  0.00    -0.226 N
ATOM     17  H2  UNL     1      29.670 -21.540 -32.556  1.00  0.00     0.210 HD
HETATM   18  N4  UNL     1      28.978 -24.369 -33.633  1.00  0.00    -0.263 N
ATOM     19  H3  UNL     1      28.759 -22.567 -34.654  1.00  0.00     0.210 HD
ATOM     20  H4  UNL     1      28.647 -25.043 -34.324  1.00  0.00     0.190 HD
ENDBRANCH  11  12
ENDBRANCH  10  11
ENDBRANCH   8  10
ENDBRANCH   7   8
ENDBRANCH   4   7
ENDBRANCH   3   4
TORSDOF 6
ENDMDL