MODEL 4
REMARK VINA RESULT: -6.110940304      1.789      5.650
REMARK  4 active torsions:
REMARK  status: ('A' for Active; 'I' for Inactive)
REMARK    1  A    between atoms: C4_4  and  C5_5
REMARK    2  A    between atoms: C5_5  and  N2_9
REMARK    3  A    between atoms: N2_9  and  C6_11
REMARK    4  A    between atoms: C9_16  and  N4_17
ROOT
HETATM    1  C1  UNL     1      54.439 -13.070 -29.345  1.00  0.00     0.068 C
HETATM    2  C2  UNL     1      55.892 -13.284 -29.134  1.00  0.00     0.025 A
HETATM    3  C3  UNL     1      56.482 -13.088 -27.879  1.00  0.00     0.059 A
HETATM    4  C4  UNL     1      57.815 -13.280 -27.666  1.00  0.00     0.096 A
HETATM    5  N3  UNL     1      58.545 -13.673 -28.738  1.00  0.00    -0.188 N
ATOM      6  H3  UNL     1      59.546 -13.826 -28.609  1.00  0.00     0.184 HD
HETATM    7  C9  UNL     1      58.028 -13.874 -29.957  1.00  0.00     0.680 A
HETATM    8  N5  UNL     1      56.709 -13.673 -30.125  1.00  0.00    -0.196 N
ATOM      9  H5  UNL     1      56.311 -13.824 -31.052  1.00  0.00     0.184 HD
ENDROOT
BRANCH   4  10
HETATM   10  C5  UNL     1      58.385 -13.075 -26.346  1.00  0.00     0.153 C
HETATM   11  N1  UNL     1      58.907 -11.958 -25.985  1.00  0.00    -0.206 N
HETATM   12  F1  UNL     1      58.972 -10.901 -26.779  1.00  0.00    -0.100 F
ATOM     13  H1  UNL     1      59.290 -11.883 -25.043  1.00  0.00     0.201 HD
BRANCH  10  14
HETATM   14  N2  UNL     1      58.380 -14.145 -25.381  1.00  0.00    -0.369 N
ATOM     15  H2  UNL     1      58.668 -15.084 -25.657  1.00  0.00     0.161 HD
BRANCH  14  16
HETATM   16  C6  UNL     1      57.968 -13.884 -24.026  1.00  0.00     0.075 C
HETATM   17  C7  UNL     1      57.828 -15.195 -23.264  1.00  0.00     0.031 C
HETATM   18  C8  UNL     1      56.661 -13.118 -23.973  1.00  0.00     0.031 C
ENDBRANCH  14  16
ENDBRANCH  10  14
ENDBRANCH   4  10
BRANCH   7  19
HETATM   19  N4  UNL     1      58.832 -14.289 -31.069  1.00  0.00    -0.226 N
HETATM   20  C10 UNL     1      58.762 -15.663 -31.525  1.00  0.00     0.168 C
HETATM   21  C11 UNL     1      59.718 -13.374 -31.754  1.00  0.00     0.168 C
ENDBRANCH   7  19
TORSDOF 4
ENDMDL