MODEL 3
REMARK VINA RESULT: -5.712461289      1.169      1.562
REMARK  5 active torsions:
REMARK  status: ('A' for Active; 'I' for Inactive)
REMARK    1  A    between atoms: S1_2  and  C2_3
REMARK    2  A    between atoms: C3_6  and  C4_7
REMARK    3  A    between atoms: C4_7  and  N2_8
REMARK    4  A    between atoms: N2_8  and  C6_10
REMARK    5  A    between atoms: C6_10  and  C8_12
ROOT
HETATM    1  C2  UNL     1      58.060 -14.657 -24.001  1.00  0.00     0.141 A
HETATM    2  N1  UNL     1      58.390 -14.725 -25.235  1.00  0.00    -0.358 N
ATOM      3  H1  UNL     1      58.703 -15.582 -25.691  1.00  0.00     0.162 HD
HETATM    4  C3  UNL     1      58.268 -13.466 -25.902  1.00  0.00     0.176 A
HETATM    5  C9  UNL     1      57.787 -12.582 -24.801  1.00  0.00     0.119 A
HETATM    6  N3  UNL     1      57.485 -11.200 -24.844  1.00  0.00    -0.085 NA
HETATM    7  N4  UNL     1      57.689 -13.307 -23.761  1.00  0.00    -0.327 N
ATOM      8  H4  UNL     1      57.377 -12.958 -22.854  1.00  0.00     0.169 HD
ENDROOT
BRANCH   4   9
HETATM    9  C4  UNL     1      57.190 -13.429 -26.964  1.00  0.00     0.304 C
BRANCH   9  10
HETATM   10  N2  UNL     1      57.710 -13.561 -28.313  1.00  0.00     0.091 N
HETATM   11  C5  UNL     1      58.021 -14.943 -28.618  1.00  0.00     0.310 C
BRANCH  10  12
HETATM   12  C6  UNL     1      56.730 -13.005 -29.226  1.00  0.00     0.232 C
HETATM   13  C7  UNL     1      55.392 -12.736 -28.578  1.00  0.00     0.044 C
BRANCH  12  14
HETATM   14  C8  UNL     1      56.598 -13.843 -30.470  1.00  0.00     0.150 C
HETATM   15 CL1  UNL     1      54.937 -14.522 -30.554  1.00  0.00    -0.128 Cl
ENDBRANCH  12  14
ENDBRANCH  10  12
ENDBRANCH   9  10
ENDBRANCH   4   9
BRANCH   1  16
HETATM   16  S1  UNL     1      58.089 -16.034 -22.869  1.00  0.00    -0.099 SA
HETATM   17  C1  UNL     1      58.095 -17.558 -23.817  1.00  0.00     0.099 C
ENDBRANCH   1  16
TORSDOF 5
ENDMDL