MODEL 5
REMARK VINA RESULT: -5.336755242      4.612      7.021
REMARK  4 active torsions:
REMARK  status: ('A' for Active; 'I' for Inactive)
REMARK    1  A    between atoms: N1_2  and  N2_4
REMARK       I    between atoms: N2_4  and  C3_6
REMARK    2  A    between atoms: C3_6  and  C4_8
REMARK    3  A    between atoms: C5_11  and  C6_12
REMARK    4  A    between atoms: C6_12  and  C7_13
ROOT
HETATM    1  C4  UNL     1      57.233 -13.411 -29.778  1.00  0.00     0.161 A
HETATM    2  N3  UNL     1      57.356 -12.621 -28.733  1.00  0.00    -0.334 N
ATOM      3  H3  UNL     1      58.079 -11.902 -28.702  1.00  0.00     0.168 HD
HETATM    4  C5  UNL     1      56.522 -12.780 -27.728  1.00  0.00     0.089 A
HETATM    5  N4  UNL     1      55.601 -13.739 -27.838  1.00  0.00    -0.314 N
ATOM      6  H4  UNL     1      54.879 -14.006 -27.169  1.00  0.00     0.175 HD
HETATM    7  S1  UNL     1      55.923 -14.400 -29.351  1.00  0.00     0.011 SA
ENDROOT
BRANCH   1   8
HETATM    8  C3  UNL     1      58.030 -13.439 -31.020  1.00  0.00     0.291 C
HETATM    9  N2  UNL     1      59.334 -14.001 -31.029  1.00  0.00    -0.284 N
ATOM     10  H2  UNL     1      59.688 -14.379 -30.150  1.00  0.00     0.184 HD
HETATM   11  O1  UNL     1      57.541 -12.965 -32.053  1.00  0.00    -0.264 OA
BRANCH   9  12
HETATM   12  N1  UNL     1      60.166 -14.078 -32.139  1.00  0.00    -0.237 NA
HETATM   13  C1  UNL     1      61.120 -12.991 -32.063  1.00  0.00     0.135 C
HETATM   14  C2  UNL     1      60.873 -15.318 -32.255  1.00  0.00     0.135 C
ENDBRANCH   9  12
ENDBRANCH   1   8
BRANCH   4  15
HETATM   15  C6  UNL     1      56.645 -11.874 -26.506  1.00  0.00     0.085 C
BRANCH  15  16
HETATM   16  C7  UNL     1      57.856 -12.242 -25.733  1.00  0.00    -0.045 C
HETATM   17  C8  UNL     1      57.575 -11.860 -24.277  1.00  0.00     0.015 C
HETATM   18  C9  UNL     1      59.094 -11.487 -26.155  1.00  0.00     0.015 C
HETATM   19  C10 UNL     1      58.133 -13.728 -25.732  1.00  0.00     0.015 C
ENDBRANCH  15  16
ENDBRANCH   4  15
TORSDOF 4
ENDMDL