MODEL 3
REMARK VINA RESULT: -3.951754446      2.026      4.159
REMARK  4 active torsions:
REMARK  status: ('A' for Active; 'I' for Inactive)
REMARK    1  A    between atoms: C2_2  and  O1_3
REMARK    2  A    between atoms: O1_3  and  C3_4
REMARK    3  A    between atoms: C7_9  and  O2_10
REMARK    4  A    between atoms: C11_15  and  O4_16
ROOT
HETATM    1  C3  UNL     1      61.278 -22.647 -33.676  1.00  0.00     0.129 C
HETATM    2  C4  UNL     1      62.214 -23.151 -32.596  1.00  0.00     0.035 C
HETATM    3  C5  UNL     1      62.123 -22.271 -31.365  1.00  0.00     0.043 C
HETATM    4  C6  UNL     1      60.693 -22.171 -30.884  1.00  0.00     0.212 C
HETATM    5  F1  UNL     1      60.594 -21.550 -29.689  1.00  0.00    -0.246 F
HETATM    6  C7  UNL     1      59.792 -21.623 -31.965  1.00  0.00     0.157 C
HETATM    7  C9  UNL     1      58.403 -21.697 -31.488  1.00  0.00     0.167 C
HETATM    8  O3  UNL     1      57.923 -20.875 -30.747  1.00  0.00    -0.294 OA
HETATM    9  C10 UNL     1      57.562 -22.826 -31.937  1.00  0.00     0.113 C
HETATM   10  C11 UNL     1      57.477 -22.762 -33.444  1.00  0.00     0.125 C
HETATM   11  C12 UNL     1      58.805 -22.475 -34.101  1.00  0.00     0.043 C
HETATM   12  C13 UNL     1      59.896 -22.662 -33.097  1.00  0.00     0.062 C
ENDROOT
BRANCH   1  13
HETATM   13  O1  UNL     1      61.714 -21.401 -34.051  1.00  0.00    -0.386 OA
BRANCH  13  14
HETATM   14  C2  UNL     1      62.563 -21.390 -35.130  1.00  0.00     0.163 C
HETATM   15  C1  UNL     1      63.949 -20.918 -34.833  1.00  0.00     0.033 C
ENDBRANCH  13  14
ENDBRANCH   1  13
BRANCH   6  16
HETATM   16  O2  UNL     1      60.195 -20.441 -32.491  1.00  0.00    -0.374 OA
HETATM   17  C8  UNL     1      60.212 -19.337 -31.704  1.00  0.00     0.203 C
ENDBRANCH   6  16
BRANCH  10  18
HETATM   18  O4  UNL     1      56.598 -21.722 -33.754  1.00  0.00    -0.395 OA
ATOM     19  H4  UNL     1      56.212 -21.931 -34.598  1.00  0.00     0.210 HD
ENDBRANCH  10  18
TORSDOF 4
ENDMDL