MODEL 5
REMARK VINA RESULT: -6.007012790      2.730      5.389
REMARK  5 active torsions:
REMARK  status: ('A' for Active; 'I' for Inactive)
REMARK    1  A    between atoms: C2_2  and  O1_4
REMARK    2  A    between atoms: O1_4  and  C4_5
REMARK    3  A    between atoms: C4_5  and  C5_7
REMARK    4  A    between atoms: C5_7  and  O3_8
REMARK    5  A    between atoms: O3_8  and  C6_9
ROOT
HETATM    1  C6  UNL     1      58.583 -13.083 -26.818  1.00  0.00     0.253 C
HETATM    2  C7  UNL     1      59.866 -13.700 -26.402  1.00  0.00     0.082 C
HETATM    3  N1  UNL     1      58.629 -11.688 -26.288  1.00  0.00    -0.031 N
ATOM      4  H11 UNL     1      59.032 -11.023 -26.948  1.00  0.00     0.281 HD
ATOM      5  H12 UNL     1      59.316 -11.567 -25.543  1.00  0.00     0.281 HD
HETATM    6  C8  UNL     1      57.296 -11.341 -25.883  1.00  0.00     0.246 C
HETATM    7  C9  UNL     1      56.218 -12.053 -26.683  1.00  0.00     0.204 C
HETATM    8  O4  UNL     1      56.292 -13.422 -26.555  1.00  0.00    -0.379 OA
HETATM    9  C10 UNL     1      57.491 -13.779 -25.978  1.00  0.00     0.187 C
HETATM   10  C11 UNL     1      57.515 -13.342 -24.552  1.00  0.00     0.076 C
HETATM   11  C12 UNL     1      57.138 -11.865 -24.446  1.00  0.00     0.205 C
HETATM   12  F1  UNL     1      58.033 -11.166 -23.666  1.00  0.00    -0.247 F
ENDROOT
BRANCH   1  13
HETATM   13  O3  UNL     1      58.232 -12.971 -28.093  1.00  0.00    -0.316 OA
BRANCH  13  14
HETATM   14  C5  UNL     1      58.427 -13.827 -29.076  1.00  0.00     0.220 C
BRANCH  14  15
HETATM   15  C4  UNL     1      58.059 -13.526 -30.465  1.00  0.00     0.305 C
HETATM   16  O2  UNL     1      58.847 -13.488 -31.401  1.00  0.00    -0.258 OA
BRANCH  15  17
HETATM   17  O1  UNL     1      56.700 -13.263 -30.731  1.00  0.00    -0.312 OA
BRANCH  17  18
HETATM   18  C2  UNL     1      55.771 -14.301 -30.809  1.00  0.00     0.124 C
HETATM   19  C1  UNL     1      55.368 -14.825 -29.441  1.00  0.00     0.040 C
HETATM   20  C3  UNL     1      54.504 -13.890 -31.539  1.00  0.00     0.040 C
ENDBRANCH  17  18
ENDBRANCH  15  17
ENDBRANCH  14  15
ENDBRANCH  13  14
ENDBRANCH   1  13
TORSDOF 5
ENDMDL