MODEL 3
REMARK VINA RESULT: -3.828719067      1.052      2.787
REMARK  5 active torsions:
REMARK  status: ('A' for Active; 'I' for Inactive)
REMARK    1  A    between atoms: N1_2  and  C2_4
REMARK    2  A    between atoms: N2_9  and  C6_10
REMARK    3  A    between atoms: C6_10  and  O1_11
REMARK    4  A    between atoms: O1_11  and  S2_12
REMARK    5  A    between atoms: S2_12  and  N3_13
ROOT
HETATM    1  C2  UNL     1      57.784 -12.253 -25.439  1.00  0.00     0.148 A
HETATM    2  S1  UNL     1      57.416 -12.506 -23.797  1.00  0.00    -0.064 SA
HETATM    3  C3  UNL     1      57.794 -14.163 -23.715  1.00  0.00     0.078 A
HETATM    4  C4  UNL     1      58.194 -14.444 -24.990  1.00  0.00     0.018 A
HETATM    5  C5  UNL     1      58.625 -15.878 -25.316  1.00  0.00     0.069 C
HETATM    6  N2  UNL     1      58.184 -13.455 -25.863  1.00  0.00    -0.308 N
ENDROOT
BRANCH   6   7
HETATM    7  C6  UNL     1      58.606 -13.659 -27.279  1.00  0.00     0.321 C
BRANCH   7   8
HETATM    8  O1  UNL     1      57.736 -14.571 -27.833  1.00  0.00    -0.270 OA
BRANCH   8   9
HETATM    9  S2  UNL     1      56.955 -13.159 -29.213  1.00  0.00     0.160 SA
HETATM   10  F1  UNL     1      55.660 -13.323 -27.564  1.00  0.00    -0.128 F
HETATM   11  S3  UNL     1      58.067 -13.432 -30.057  1.00  0.00     0.047 SA
BRANCH   9  12
HETATM   12  N3  UNL     1      55.488 -14.112 -29.972  1.00  0.00    -0.339 N
ATOM     13  H32 UNL     1      54.973 -14.898 -29.576  1.00  0.00     0.167 HD
ATOM     14  H31 UNL     1      55.360 -13.631 -30.863  1.00  0.00     0.167 HD
ENDBRANCH   9  12
ENDBRANCH   8   9
ENDBRANCH   7   8
ENDBRANCH   6   7
BRANCH   1  15
HETATM   15  N1  UNL     1      57.705 -11.146 -26.157  1.00  0.00    -0.375 N
HETATM   16  C1  UNL     1      58.913 -10.337 -26.195  1.00  0.00     0.148 C
ATOM     17  H1  UNL     1      56.855 -10.877 -26.652  1.00  0.00     0.161 HD
ENDBRANCH   1  15
TORSDOF 5
ENDMDL