MODEL 3
REMARK VINA RESULT: -4.333140466      3.286      3.980
REMARK  3 active torsions:
REMARK  status: ('A' for Active; 'I' for Inactive)
REMARK    1  A    between atoms: C2_2  and  O1_3
REMARK    2  A    between atoms: O1_3  and  C3_4
REMARK    3  A    between atoms: C3_4  and  C4_6
REMARK       I    between atoms: N1_12  and  C9_13
REMARK       I    between atoms: C9_13  and  N2_15
ROOT
HETATM    1  C4  UNL     1      57.815 -14.351 -28.112  1.00  0.00     0.199 C
HETATM    2  C5  UNL     1      58.946 -14.980 -27.427  1.00  0.00     0.112 C
HETATM    3  S1  UNL     1      58.634 -14.579 -25.688  1.00  0.00    -0.136 SA
HETATM    4  C6  UNL     1      57.671 -13.062 -26.092  1.00  0.00     0.079 C
HETATM    5  C7  UNL     1      56.733 -12.682 -25.011  1.00  0.00     0.051 C
HETATM    6  C8  UNL     1      58.709 -11.998 -26.374  1.00  0.00     0.051 C
HETATM    7  N1  UNL     1      57.058 -13.460 -27.336  1.00  0.00    -0.300 N
HETATM    8  C9  UNL     1      55.779 -12.984 -27.731  1.00  0.00     0.348 C
HETATM    9  O3  UNL     1      55.113 -12.177 -27.029  1.00  0.00    -0.245 OA
HETATM   10  N2  UNL     1      55.154 -13.389 -28.961  1.00  0.00    -0.173 N
ATOM     11  H2  UNL     1      55.648 -14.042 -29.569  1.00  0.00     0.204 HD
HETATM   12  F1  UNL     1      53.949 -12.945 -29.340  1.00  0.00    -0.097 F
ENDROOT
BRANCH   1  13
HETATM   13  C3  UNL     1      58.284 -13.725 -29.404  1.00  0.00     0.282 C
HETATM   14  O2  UNL     1      58.277 -12.476 -29.553  1.00  0.00    -0.263 OA
BRANCH  13  15
HETATM   15  O1  UNL     1      58.739 -14.482 -30.473  1.00  0.00    -0.320 OA
BRANCH  15  16
HETATM   16  C2  UNL     1      59.326 -13.822 -31.607  1.00  0.00     0.174 C
HETATM   17  C1  UNL     1      60.548 -14.532 -32.079  1.00  0.00     0.034 C
ENDBRANCH  15  16
ENDBRANCH  13  15
ENDBRANCH   1  13
TORSDOF 3
ENDMDL