MODEL 3
REMARK VINA RESULT: -3.571429931      0.977      2.406
REMARK  2 active torsions:
REMARK  status: ('A' for Active; 'I' for Inactive)
REMARK    1  A    between atoms: N2_8  and  C4_9
REMARK    2  A    between atoms: C4_9  and  C5_10
ROOT
HETATM    1  N1  UNL     1       5.538  16.377  15.045  1.00  0.00    -0.388 N
ATOM      2  H11 UNL     1       5.021  15.550  15.339  1.00  0.00     0.157 HD
ATOM      3  H12 UNL     1       6.486  16.717  15.207  1.00  0.00     0.157 HD
HETATM    4  C1  UNL     1       4.856  17.155  14.321  1.00  0.00     0.101 C
HETATM    5  S1  UNL     1       5.753  18.590  13.810  1.00  0.00    -0.104 SA
HETATM    6  C2  UNL     1       5.125  19.995  14.773  1.00  0.00     0.100 C
HETATM    7  C3  UNL     1       4.076  20.770  14.011  1.00  0.00     0.127 C
HETATM    8  N2  UNL     1       2.752  20.280  14.230  1.00  0.00    -0.409 N
HETATM    9  C6  UNL     1       2.373  19.138  13.466  1.00  0.00     0.127 C
HETATM   10  C7  UNL     1       2.054  17.930  14.348  1.00  0.00     0.100 C
HETATM   11  S2  UNL     1       3.214  16.569  14.040  1.00  0.00    -0.104 SA
ENDROOT
BRANCH   8  12
HETATM   12  C4  UNL     1       1.745  21.278  14.386  1.00  0.00     0.148 C
BRANCH  12  13
HETATM   13  C5  UNL     1       2.225  22.604  14.888  1.00  0.00     0.241 C
HETATM   14  F1  UNL     1       1.129  23.209  15.521  1.00  0.00    -0.254 F
ENDBRANCH  12  13
ENDBRANCH   8  12
TORSDOF 2
ENDMDL