MODEL 3
REMARK VINA RESULT: -6.272913210      1.137      1.819
REMARK  3 active torsions:
REMARK  status: ('A' for Active; 'I' for Inactive)
REMARK    1  A    between atoms: C2_2  and  N1_4
REMARK    2  A    between atoms: N1_4  and  C4_7
REMARK    3  A    between atoms: C4_7  and  C5_8
ROOT
HETATM    1  C5  UNL     1       2.530  20.497  14.413  1.00  0.00     0.210 C
HETATM    2  C6  UNL     1       3.772  21.415  14.537  1.00  0.00     0.209 C
HETATM    3  O1  UNL     1       3.348  22.385  15.470  1.00  0.00    -0.338 OA
HETATM    4  C7  UNL     1       2.292  23.084  14.850  1.00  0.00     0.273 C
HETATM    5  C8  UNL     1       1.140  23.042  15.828  1.00  0.00     0.101 C
HETATM    6 CL1  UNL     1       2.780  24.784  14.535  1.00  0.00    -0.055 Cl
HETATM    7  O2  UNL     1       1.904  22.477  13.676  1.00  0.00    -0.183 OA
HETATM    8  O3  UNL     1       1.535  21.253  13.864  1.00  0.00    -0.227 OA
ENDROOT
BRANCH   1   9
HETATM    9  C4  UNL     1       2.930  19.395  13.468  1.00  0.00     0.269 C
BRANCH   9  10
HETATM   10  N1  UNL     1       4.267  18.895  13.765  1.00  0.00    -0.069 N
ATOM     11  H12 UNL     1       4.842  19.573  14.267  1.00  0.00     0.277 HD
ATOM     12  H11 UNL     1       4.853  18.812  12.934  1.00  0.00     0.277 HD
BRANCH  10  13
HETATM   13  C2  UNL     1       4.121  17.653  14.473  1.00  0.00     0.178 C
HETATM   14  C1  UNL     1       5.288  16.755  14.213  1.00  0.00     0.039 C
HETATM   15  C3  UNL     1       2.798  16.977  14.126  1.00  0.00     0.039 C
ENDBRANCH  10  13
ENDBRANCH   9  10
ENDBRANCH   1   9
TORSDOF 3
ENDMDL