MODEL 2
REMARK VINA RESULT: -5.340837239      3.003      5.840
REMARK  3 active torsions:
REMARK  status: ('A' for Active; 'I' for Inactive)
REMARK    1  A    between atoms: N1_2  and  C2_4
REMARK    2  A    between atoms: C4_7  and  C5_8
REMARK    3  A    between atoms: C6_9  and  C7_10
ROOT
HETATM    1  C2  UNL     1       4.392  17.747  13.920  1.00  0.00     0.187 A
HETATM    2  O1  UNL     1       3.173  17.720  13.520  1.00  0.00    -0.299 OA
HETATM    3  C3  UNL     1       2.430  18.734  13.574  1.00  0.00     0.163 A
HETATM    4  C4  UNL     1       2.971  19.895  14.084  1.00  0.00     0.031 A
HETATM    5  S1  UNL     1       4.557  19.369  14.443  1.00  0.00    -0.045 SA
ENDROOT
BRANCH   4   6
HETATM    6  C5  UNL     1       2.330  21.204  14.256  1.00  0.00     0.028 C
HETATM    7  C6  UNL     1       2.977  22.218  14.767  1.00  0.00     0.086 C
BRANCH   7   8
HETATM    8  C7  UNL     1       2.359  23.525  14.947  1.00  0.00     0.198 C
HETATM    9  O2  UNL     1       1.441  23.644  15.805  1.00  0.00    -0.645 OA
HETATM   10  O3  UNL     1       2.734  24.635  14.222  1.00  0.00    -0.645 OA
ENDBRANCH   7   8
ENDBRANCH   4   6
BRANCH   1  11
HETATM   11  N1  UNL     1       5.239  16.768  13.910  1.00  0.00    -0.369 N
HETATM   12  C1  UNL     1       6.477  16.942  14.628  1.00  0.00     0.148 C
ATOM     13  H1  UNL     1       5.036  15.903  13.411  1.00  0.00     0.161 HD
ENDBRANCH   1  11
TORSDOF 3
ENDMDL