MODEL 4
REMARK VINA RESULT: -7.089533502      2.586      5.515
REMARK  4 active torsions:
REMARK  status: ('A' for Active; 'I' for Inactive)
REMARK    1  A    between atoms: O1_1  and  N1_3
REMARK    2  A    between atoms: N1_3  and  N2_5
REMARK    3  A    between atoms: C3_10  and  N4_11
REMARK    4  A    between atoms: N4_11  and  C4_13
ROOT
HETATM    1  N2  UNL     1       2.439  23.220  15.624  1.00  0.00    -0.103 N
HETATM    2  C1  UNL     1       2.555  24.510  14.926  1.00  0.00     0.190 C
HETATM    3  C2  UNL     1       3.657  24.183  13.945  1.00  0.00     0.160 C
HETATM    4  N3  UNL     1       3.413  22.788  13.668  1.00  0.00    -0.223 N
ATOM      5  H3  UNL     1       3.738  22.293  12.837  1.00  0.00     0.177 HD
HETATM    6  C3  UNL     1       2.737  22.266  14.606  1.00  0.00     0.692 C
ENDROOT
BRANCH   6   7
HETATM    7  N4  UNL     1       2.335  20.887  14.622  1.00  0.00    -0.220 N
ATOM      8  H4  UNL     1       1.506  20.606  15.145  1.00  0.00     0.178 HD
BRANCH   7   9
HETATM    9  C4  UNL     1       3.098  19.896  13.899  1.00  0.00     0.099 C
HETATM   10  C5  UNL     1       4.436  19.770  14.572  1.00  0.00     0.026 C
HETATM   11  C6  UNL     1       5.155  18.502  14.270  1.00  0.00     0.002 C
HETATM   12  C7  UNL     1       4.237  17.332  14.545  1.00  0.00     0.000 C
HETATM   13  C8  UNL     1       3.127  17.417  13.491  1.00  0.00     0.002 C
HETATM   14  C9  UNL     1       2.317  18.641  13.827  1.00  0.00     0.026 C
ENDBRANCH   7   9
ENDBRANCH   6   7
BRANCH   1  15
HETATM   15  N1  UNL     1       2.116  22.974  16.960  1.00  0.00    -0.194 N
ATOM     16  H1  UNL     1       2.793  23.159  17.700  1.00  0.00     0.216 HD
BRANCH  15  17
HETATM   17  O1  UNL     1       0.982  22.524  17.237  1.00  0.00    -0.274 OA
ATOM     18  H1  UNL     1       0.330  23.112  17.601  1.00  0.00     0.246 HD
ENDBRANCH  15  17
ENDBRANCH   1  15
TORSDOF 4
ENDMDL