MODEL 3
REMARK VINA RESULT: -7.170759126      5.050      6.621
REMARK  2 active torsions:
REMARK  status: ('A' for Active; 'I' for Inactive)
REMARK    1  A    between atoms: C4_4  and  N1_5
REMARK    2  A    between atoms: N1_5  and  N2_7
ROOT
HETATM    1  N1  UNL     1       1.479  17.015  12.548  1.00  0.00    -0.279 N
ATOM      2  H1  UNL     1       0.925  17.818  12.846  1.00  0.00     0.189 HD
ENDROOT
BRANCH   1   3
HETATM    3  C4  UNL     1       1.000  16.254  11.465  1.00  0.00     0.165 A
HETATM    4  C3  UNL     1      -0.290  16.212  10.991  1.00  0.00     0.069 A
HETATM    5  C2  UNL     1      -0.316  15.337   9.918  1.00  0.00     0.006 A
HETATM    6  C1  UNL     1      -1.472  14.960   9.080  1.00  0.00     0.054 C
HETATM    7  C10 UNL     1       0.979  14.887   9.798  1.00  0.00     0.237 A
HETATM    8  O3  UNL     1       1.727  15.453  10.732  1.00  0.00    -0.265 OA
HETATM    9  F1  UNL     1       1.451  14.009   8.886  1.00  0.00    -0.177 F
ENDBRANCH   1   3
BRANCH   1  10
HETATM   10  N2  UNL     1       2.663  16.745  13.242  1.00  0.00    -0.299 N
HETATM   11  C5  UNL     1       3.330  17.649  13.865  1.00  0.00     0.080 C
HETATM   12  C6  UNL     1       4.590  17.404  14.613  1.00  0.00     0.071 C
HETATM   13  C9  UNL     1       3.071  19.077  14.016  1.00  0.00     0.241 C
HETATM   14  C7  UNL     1       5.374  18.675  14.280  1.00  0.00     0.093 C
HETATM   15  C8  UNL     1       4.327  19.715  14.423  1.00  0.00     0.201 C
HETATM   16  O1  UNL     1       4.408  20.901  14.800  1.00  0.00    -0.289 OA
HETATM   17  O2  UNL     1       1.953  19.620  13.821  1.00  0.00    -0.282 OA
ATOM     18  H2  UNL     1       3.014  15.787  13.254  1.00  0.00     0.186 HD
ENDBRANCH   1  10
TORSDOF 2
ENDMDL