MODEL 4
REMARK VINA RESULT: -4.366078121      3.493      4.721
REMARK  3 active torsions:
REMARK  status: ('A' for Active; 'I' for Inactive)
REMARK    1  A    between atoms: C2_2  and  C4_4
REMARK    2  A    between atoms: C4_4  and  C5_9
REMARK    3  A    between atoms: N1_5  and  O1_7
ROOT
HETATM    1  C4  UNL     1      -0.719  15.548   9.283  1.00  0.00     0.031 C
HETATM    2  N1  UNL     1      -1.733  14.899   9.564  1.00  0.00    -0.276 N
ATOM      3  H1  UNL     1      -2.009  14.945  10.545  1.00  0.00     0.193 HD
ENDROOT
BRANCH   1   4
HETATM    4  C2  UNL     1      -0.135  15.637   7.959  1.00  0.00     0.026 C
HETATM    5  C1  UNL     1       0.589  14.379   7.560  1.00  0.00     0.016 C
HETATM    6  C3  UNL     1       0.827  16.773   7.706  1.00  0.00     0.016 C
ENDBRANCH   1   4
BRANCH   1   7
HETATM    7  C5  UNL     1      -0.085  16.284  10.436  1.00  0.00     0.183 C
HETATM    8  C6  UNL     1      -0.701  15.889  11.768  1.00  0.00     0.274 C
HETATM    9  O2  UNL     1      -1.550  16.349  12.560  1.00  0.00    -0.264 OA
HETATM   10  O3  UNL     1       0.105  14.769  11.732  1.00  0.00    -0.292 OA
HETATM   11  C7  UNL     1       1.072  15.636  11.101  1.00  0.00     0.160 C
HETATM   12  C8  UNL     1       1.595  16.564  12.204  1.00  0.00     0.066 C
HETATM   13 CL1  UNL     1       2.291  14.804  10.189  1.00  0.00    -0.087 Cl
ENDBRANCH   1   7
BRANCH   2  14
HETATM   14  O1  UNL     1      -2.515  14.158   8.805  1.00  0.00    -0.290 OA
ATOM     15  H1  UNL     1      -2.619  13.215   8.758  1.00  0.00     0.244 HD
ENDBRANCH   2  14
TORSDOF 3
ENDMDL