MODEL 3
REMARK VINA RESULT: -3.539429070      2.793      3.193
REMARK  2 active torsions:
REMARK  status: ('A' for Active; 'I' for Inactive)
REMARK    1  A    between atoms: N1_2  and  C3_4
REMARK    2  A    between atoms: S1_7  and  N3_8
ROOT
HETATM    1  C3  UNL     1       3.411  20.234  14.399  1.00  0.00     0.106 C
HETATM    2  N2  UNL     1       4.427  20.813  14.819  1.00  0.00    -0.308 N
ATOM      3  H2  UNL     1       5.334  20.457  15.121  1.00  0.00     0.176 HD
HETATM    4  S1  UNL     1       3.588  22.958  14.691  1.00  0.00    -0.005 SA
HETATM    5  C4  UNL     1       1.828  22.105  14.649  1.00  0.00     0.051 C
HETATM    6  C5  UNL     1       0.874  22.844  13.734  1.00  0.00     0.034 C
HETATM    7  C6  UNL     1       1.189  21.952  15.989  1.00  0.00     0.034 C
HETATM    8  C7  UNL     1       2.185  20.808  13.980  1.00  0.00     0.044 C
ENDROOT
BRANCH   1   9
HETATM    9  N1  UNL     1       3.584  18.766  14.341  1.00  0.00    -0.376 N
HETATM   10  C1  UNL     1       2.480  17.866  14.330  1.00  0.00     0.150 C
HETATM   11  C2  UNL     1       4.918  18.268  14.295  1.00  0.00     0.150 C
ENDBRANCH   1   9
BRANCH   4  12
HETATM   12  N3  UNL     1       4.323  23.752  13.165  1.00  0.00    -0.264 N
HETATM   13 CL1  UNL     1       3.169  24.346  12.025  1.00  0.00     0.018 Cl
ATOM     14  H3  UNL     1       5.330  23.828  13.017  1.00  0.00     0.189 HD
ENDBRANCH   4  12
TORSDOF 2
ENDMDL