MODEL 2
REMARK VINA RESULT: -4.947271643      1.649      1.655
REMARK  4 active torsions:
REMARK  status: ('A' for Active; 'I' for Inactive)
REMARK    1  A    between atoms: S1_2  and  C2_3
REMARK    2  A    between atoms: C2_3  and  S2_7
REMARK    3  A    between atoms: S2_7  and  C3_8
REMARK    4  A    between atoms: C3_8  and  C4_9
REMARK       I    between atoms: C4_9  and  N2_11
ROOT
HETATM    1  S2  UNL     1       1.814  21.571  13.888  1.00  0.00    -0.096 SA
ENDROOT
BRANCH   1   2
HETATM    2  C2  UNL     1       1.856  22.823  15.157  1.00  0.00     0.101 C
HETATM    3  N1  UNL     1       1.214  22.589  16.233  1.00  0.00    -0.388 N
ATOM      4  H12 UNL     1       1.239  23.306  16.959  1.00  0.00     0.157 HD
ATOM      5  H11 UNL     1       0.692  21.725  16.380  1.00  0.00     0.157 HD
BRANCH   2   6
HETATM    6  S1  UNL     1       2.771  24.337  14.899  1.00  0.00    -0.110 SA
HETATM    7  C1  UNL     1       4.148  24.093  13.763  1.00  0.00     0.097 C
ENDBRANCH   2   6
ENDBRANCH   1   2
BRANCH   1   8
HETATM    8  C3  UNL     1       2.307  19.960  14.557  1.00  0.00     0.185 C
BRANCH   8   9
HETATM    9  C4  UNL     1       3.783  19.809  14.566  1.00  0.00     0.243 C
HETATM   10  O1  UNL     1       4.515  20.821  14.730  1.00  0.00    -0.271 OA
HETATM   11  N2  UNL     1       4.314  18.502  14.388  1.00  0.00    -0.264 N
HETATM   12  C5  UNL     1       5.776  18.385  14.402  1.00  0.00     0.174 C
HETATM   13 CL1  UNL     1       3.295  17.128  14.165  1.00  0.00     0.015 Cl
ENDBRANCH   8   9
ENDBRANCH   1   8
TORSDOF 4
ENDMDL