MODEL 5
REMARK VINA RESULT: -5.352612760      4.287      5.863
REMARK  2 active torsions:
REMARK  status: ('A' for Active; 'I' for Inactive)
REMARK    1  A    between atoms: O1_2  and  C2_3
REMARK    2  A    between atoms: C5_7  and  C6_8
ROOT
HETATM    1  C2  UNL     1       3.629  18.240  14.273  1.00  0.00     0.139 A
HETATM    2  C3  UNL     1       4.200  17.006  14.043  1.00  0.00     0.086 A
HETATM    3  C4  UNL     1       5.420  16.492  14.731  1.00  0.00     0.079 C
HETATM    4  O2  UNL     1       3.508  16.380  13.142  1.00  0.00    -0.309 OA
HETATM    5  C5  UNL     1       2.499  17.065  12.716  1.00  0.00     0.119 A
HETATM    6  C9  UNL     1       2.541  18.267  13.417  1.00  0.00     0.185 A
HETATM    7  F1  UNL     1       1.672  19.296  13.298  1.00  0.00    -0.200 F
ENDROOT
BRANCH   5   8
HETATM    8  C6  UNL     1       1.501  16.708  11.718  1.00  0.00     0.077 C
HETATM    9  C7  UNL     1       0.372  16.174  12.085  1.00  0.00     0.120 A
HETATM   10  N1  UNL     1      -0.829  15.690  11.495  1.00  0.00    -0.293 N
HETATM   11  C8  UNL     1      -0.218  15.788  13.378  1.00  0.00     0.288 A
HETATM   12  N2  UNL     1      -1.392  15.325  12.706  1.00  0.00    -0.264 N
ATOM     13  H1  UNL     1      -1.156  15.632  10.531  1.00  0.00     0.187 HD
ATOM     14  H2  UNL     1      -2.274  14.903  12.997  1.00  0.00     0.190 HD
HETATM   15  O3  UNL     1       0.166  15.848  14.569  1.00  0.00    -0.264 OA
ENDBRANCH   5   8
BRANCH   1  16
HETATM   16  O1  UNL     1       4.061  19.218  15.163  1.00  0.00    -0.351 OA
HETATM   17  C1  UNL     1       4.378  20.500  14.588  1.00  0.00     0.210 C
ENDBRANCH   1  16
TORSDOF 2
ENDMDL