MODEL 1
REMARK VINA RESULT: -4.917590946      0.000      0.000
REMARK  4 active torsions:
REMARK  status: ('A' for Active; 'I' for Inactive)
REMARK    1  A    between atoms: C2_2  and  C4_4
REMARK    2  A    between atoms: C2_2  and  O1_6
REMARK    3  A    between atoms: O1_6  and  C5_7
REMARK    4  A    between atoms: N2_9  and  O2_11
ROOT
HETATM    1  O1  UNL     1     -23.095  -3.702  22.186  1.00  0.00    -0.312 OA
ENDROOT
BRANCH   1   2
HETATM    2  C2  UNL     1     -22.527  -3.473  23.416  1.00  0.00     0.072 C
HETATM    3  C1  UNL     1     -23.642  -3.254  24.431  1.00  0.00     0.047 C
HETATM    4  C3  UNL     1     -21.617  -4.502  23.961  1.00  0.00     0.047 C
BRANCH   2   5
HETATM    5  C4  UNL     1     -21.702  -2.181  23.262  1.00  0.00     0.123 C
HETATM    6 BR1  UNL     1     -21.834  -1.084  24.833  1.00  0.00    -0.093 Br
ENDBRANCH   2   5
ENDBRANCH   1   2
BRANCH   1   7
HETATM    7  C5  UNL     1     -22.465  -4.497  21.248  1.00  0.00     0.252 C
HETATM    8  N1  UNL     1     -21.432  -4.052  20.377  1.00  0.00    -0.054 NA
HETATM    9  N2  UNL     1     -22.907  -5.706  21.228  1.00  0.00    -0.235 N
ATOM     10  H2  UNL     1     -23.650  -6.000  21.862  1.00  0.00     0.197 HD
BRANCH   9  11
HETATM   11  O2  UNL     1     -22.353  -6.590  20.333  1.00  0.00    -0.287 OA
ATOM     12  H2  UNL     1     -22.799  -7.415  20.178  1.00  0.00     0.244 HD
ENDBRANCH   9  11
ENDBRANCH   1   7
TORSDOF 4
ENDMDL