MODEL 1
REMARK VINA RESULT: -5.469598217      0.000      0.000
REMARK  3 active torsions:
REMARK  status: ('A' for Active; 'I' for Inactive)
REMARK    1  A    between atoms: C6_6  and  C7_7
REMARK    2  A    between atoms: C7_7  and  N1_8
REMARK    3  A    between atoms: N2_12  and  O3_14
ROOT
HETATM    1  C1  UNL     1     -20.214  -0.272  25.519  1.00  0.00     0.015 C
HETATM    2  C2  UNL     1     -21.382  -0.746  24.639  1.00  0.00    -0.043 C
HETATM    3  C3  UNL     1     -22.601  -0.004  25.207  1.00  0.00     0.015 C
HETATM    4  C4  UNL     1     -21.132  -0.383  23.232  1.00  0.00     0.010 C
HETATM    5  C5  UNL     1     -21.163  -1.454  22.228  1.00  0.00     0.013 C
HETATM    6  C6  UNL     1     -22.050  -2.607  22.480  1.00  0.00     0.057 C
HETATM    7  C8  UNL     1     -22.460  -2.774  23.891  1.00  0.00     0.016 C
HETATM    8  N2  UNL     1     -23.563  -3.399  24.201  1.00  0.00    -0.277 N
ATOM      9  H2  UNL     1     -24.161  -3.782  23.469  1.00  0.00     0.193 HD
HETATM   10  C9  UNL     1     -21.564  -2.202  24.914  1.00  0.00     0.063 C
ENDROOT
BRANCH   6  11
HETATM   11  C7  UNL     1     -21.340  -3.907  22.081  1.00  0.00     0.211 C
BRANCH  11  12
HETATM   12  N1  UNL     1     -21.873  -4.393  20.824  1.00  0.00    -0.155 N
HETATM   13  O1  UNL     1     -22.982  -4.977  20.735  1.00  0.00    -0.537 OA
HETATM   14  O2  UNL     1     -21.183  -4.241  19.638  1.00  0.00    -0.537 OA
ENDBRANCH  11  12
ENDBRANCH   6  11
BRANCH   8  15
HETATM   15  O3  UNL     1     -23.910  -3.533  25.523  1.00  0.00    -0.290 OA
ATOM     16  H3  UNL     1     -23.818  -2.788  26.105  1.00  0.00     0.244 HD
ENDBRANCH   8  15
TORSDOF 3
ENDMDL