MODEL 1
REMARK VINA RESULT: -4.700751977      0.000      0.000
REMARK  2 active torsions:
REMARK  status: ('A' for Active; 'I' for Inactive)
REMARK       I    between atoms: C2_2  and  N1_4
REMARK    1  A    between atoms: N1_4  and  N2_6
REMARK    2  A    between atoms: C3_8  and  C5_10
ROOT
HETATM    1  N2  UNL     1     -20.986  -1.413  23.957  1.00  0.00    -0.300 N
ATOM      2  H2  UNL     1     -20.257  -1.479  23.247  1.00  0.00     0.186 HD
HETATM    3  C3  UNL     1     -21.968  -2.229  23.881  1.00  0.00     0.050 C
HETATM    4  C4  UNL     1     -23.029  -2.144  24.902  1.00  0.00     0.072 C
ENDROOT
BRANCH   1   5
HETATM    5  N1  UNL     1     -20.845  -0.445  24.941  1.00  0.00    -0.270 N
HETATM    6  C2  UNL     1     -21.073   0.928  24.682  1.00  0.00     0.232 C
HETATM    7  C1  UNL     1     -20.918   1.953  25.742  1.00  0.00     0.119 C
HETATM    8  O1  UNL     1     -21.414   1.319  23.540  1.00  0.00    -0.272 OA
ATOM      9  H1  UNL     1     -20.567  -0.731  25.880  1.00  0.00     0.190 HD
ENDBRANCH   1   5
BRANCH   3  10
HETATM   10  C5  UNL     1     -22.010  -3.207  22.799  1.00  0.00     0.071 A
HETATM   11  C6  UNL     1     -21.789  -3.009  21.451  1.00  0.00     0.100 A
HETATM   12  S1  UNL     1     -22.066  -4.646  21.173  1.00  0.00    -0.022 SA
HETATM   13  N3  UNL     1     -22.270  -4.544  22.820  1.00  0.00    -0.320 N
HETATM   14  C7  UNL     1     -22.601  -5.532  23.865  1.00  0.00     0.165 C
ENDBRANCH   3  10
TORSDOF 2
ENDMDL