MODEL 3
REMARK VINA RESULT: -4.207873270      2.059      3.305
REMARK  4 active torsions:
REMARK  status: ('A' for Active; 'I' for Inactive)
REMARK    1  A    between atoms: C2_2  and  C3_3
REMARK    2  A    between atoms: C3_3  and  N1_4
REMARK    3  A    between atoms: N1_4  and  N2_6
REMARK    4  A    between atoms: C6_15  and  O3_16
ROOT
HETATM    1  C3  UNL     1     -22.492  -3.942  23.278  1.00  0.00     0.203 C
HETATM    2  O1  UNL     1     -23.003  -5.152  22.750  1.00  0.00    -0.283 OA
HETATM    3  C4  UNL     1     -22.110  -5.523  21.753  1.00  0.00     0.265 C
HETATM    4  O2  UNL     1     -22.018  -6.714  21.302  1.00  0.00    -0.265 OA
HETATM    5  C5  UNL     1     -21.307  -4.345  21.312  1.00  0.00     0.171 C
HETATM    6  C6  UNL     1     -22.057  -3.218  22.040  1.00  0.00     0.195 C
HETATM    7 CL1  UNL     1     -20.998  -1.856  22.379  1.00  0.00    -0.082 Cl
ENDROOT
BRANCH   1   8
HETATM    8  C2  UNL     1     -23.504  -3.199  24.094  1.00  0.00     0.063 C
HETATM    9  C1  UNL     1     -22.938  -2.042  24.846  1.00  0.00     0.010 C
ENDBRANCH   1   8
BRANCH   1  10
HETATM   10  N1  UNL     1     -21.307  -4.278  24.035  1.00  0.00    -0.283 N
ATOM     11  H1  UNL     1     -20.409  -3.893  23.743  1.00  0.00     0.185 HD
BRANCH  10  12
HETATM   12  N2  UNL     1     -21.348  -5.016  25.021  1.00  0.00    -0.251 N
HETATM   13  N3  UNL     1     -21.744  -5.923  25.762  1.00  0.00    -0.331 N
ATOM     14  H32 UNL     1     -22.513  -6.254  25.179  1.00  0.00     0.178 HD
ATOM     15  H31 UNL     1     -21.778  -6.534  26.579  1.00  0.00     0.178 HD
ATOM     16  H2  UNL     1     -20.569  -4.649  25.568  1.00  0.00     0.207 HD
ENDBRANCH  10  12
ENDBRANCH   1  10
BRANCH   6  17
HETATM   17  O3  UNL     1     -23.116  -2.888  21.198  1.00  0.00    -0.370 OA
ATOM     18  H3  UNL     1     -23.279  -1.953  21.151  1.00  0.00     0.212 HD
ENDBRANCH   6  17
TORSDOF 4
ENDMDL