MODEL 4
REMARK VINA RESULT: -4.566260757      2.230      3.268
REMARK  3 active torsions:
REMARK  status: ('A' for Active; 'I' for Inactive)
REMARK    1  A    between atoms: C2_2  and  C3_4
REMARK    2  A    between atoms: C4_7  and  C5_8
REMARK    3  A    between atoms: C5_8  and  O2_10
ROOT
HETATM    1  C3  UNL     1     -21.940  -1.867  24.404  1.00  0.00     0.119 C
HETATM    2  N1  UNL     1     -21.199  -2.822  23.989  1.00  0.00    -0.360 N
ATOM      3  H1  UNL     1     -20.188  -2.870  24.111  1.00  0.00     0.162 HD
HETATM    4  C4  UNL     1     -22.006  -3.835  23.313  1.00  0.00     0.205 C
HETATM    5  C7  UNL     1     -23.383  -3.554  23.866  1.00  0.00     0.111 C
HETATM    6  C8  UNL     1     -23.600  -4.178  25.220  1.00  0.00     0.034 C
HETATM    7  N2  UNL     1     -23.289  -2.115  24.064  1.00  0.00    -0.368 N
ATOM      8  H2  UNL     1     -24.039  -1.429  23.977  1.00  0.00     0.161 HD
ENDROOT
BRANCH   4   9
HETATM    9  C5  UNL     1     -21.946  -3.575  21.869  1.00  0.00     0.283 C
HETATM   10  O1  UNL     1     -21.392  -2.541  21.419  1.00  0.00    -0.263 OA
BRANCH   9  11
HETATM   11  O2  UNL     1     -22.494  -4.455  20.954  1.00  0.00    -0.325 OA
HETATM   12  C6  UNL     1     -22.330  -5.869  21.063  1.00  0.00     0.213 C
ENDBRANCH   9  11
ENDBRANCH   4   9
BRANCH   1  13
HETATM   13  C2  UNL     1     -21.473  -0.689  25.121  1.00  0.00     0.068 C
HETATM   14  C1  UNL     1     -22.291   0.242  25.570  1.00  0.00     0.041 C
HETATM   15 CL1  UNL     1     -19.759  -0.474  25.412  1.00  0.00    -0.081 Cl
ENDBRANCH   1  13
TORSDOF 3
ENDMDL