MODEL 4
REMARK VINA RESULT: -3.536416083      4.011      5.015
REMARK  2 active torsions:
REMARK  status: ('A' for Active; 'I' for Inactive)
REMARK    1  A    between atoms: S1_2  and  C2_3
REMARK    2  A    between atoms: C2_3  and  C3_4
ROOT
HETATM    1  C3  UNL     1     -22.302  -1.347  24.257  1.00  0.00     0.222 C
HETATM    2  O1  UNL     1     -22.235  -0.736  25.483  1.00  0.00    -0.266 OA
HETATM    3  N1  UNL     1     -20.988  -0.478  25.828  1.00  0.00    -0.044 NA
HETATM    4  C4  UNL     1     -20.381   0.410  24.856  1.00  0.00     0.260 C
HETATM    5 CL1  UNL     1     -20.963   2.074  24.993  1.00  0.00    -0.068 Cl
HETATM    6 CL2  UNL     1     -18.619   0.287  24.849  1.00  0.00    -0.068 Cl
HETATM    7  S2  UNL     1     -21.033  -0.399  23.346  1.00  0.00    -0.073 SA
ENDROOT
BRANCH   1   8
HETATM    8  C2  UNL     1     -22.010  -2.806  24.247  1.00  0.00     0.118 C
BRANCH   8   9
HETATM    9  S1  UNL     1     -22.862  -3.515  22.797  1.00  0.00    -0.170 SA
HETATM   10  C1  UNL     1     -21.774  -3.582  21.358  1.00  0.00     0.089 C
ENDBRANCH   8   9
ENDBRANCH   1   8
TORSDOF 2
ENDMDL