MODEL 4
REMARK VINA RESULT: -4.410035700      2.408      3.328
REMARK  2 active torsions:
REMARK  status: ('A' for Active; 'I' for Inactive)
REMARK    1  A    between atoms: C2_2  and  N1_3
REMARK    2  A    between atoms: C2_2  and  C4_7
ROOT
HETATM    1  N1  UNL     1     -21.102  -1.542  22.749  1.00  0.00    -0.319 N
ATOM      2  H1  UNL     1     -20.383  -0.828  22.636  1.00  0.00     0.172 HD
HETATM    3  C3  UNL     1     -21.352  -2.485  21.747  1.00  0.00     0.178 C
HETATM    4  N2  UNL     1     -21.572  -3.270  20.927  1.00  0.00    -0.172 NA
ENDROOT
BRANCH   1   5
HETATM    5  C2  UNL     1     -21.897  -1.615  23.947  1.00  0.00     0.137 C
HETATM    6  C1  UNL     1     -21.286  -0.775  25.046  1.00  0.00     0.039 C
BRANCH   5   7
HETATM    7  C4  UNL     1     -22.018  -3.005  24.453  1.00  0.00     0.054 C
HETATM    8  N3  UNL     1     -21.121  -3.875  24.708  1.00  0.00    -0.270 N
HETATM    9  O1  UNL     1     -21.677  -5.052  25.166  1.00  0.00    -0.268 OA
ATOM     10  H3  UNL     1     -20.120  -3.721  24.589  1.00  0.00     0.194 HD
HETATM   11  C5  UNL     1     -22.972  -5.087  24.567  1.00  0.00     0.103 C
HETATM   12  C6  UNL     1     -23.913  -6.010  25.238  1.00  0.00     0.050 C
HETATM   13  C7  UNL     1     -22.788  -5.314  23.103  1.00  0.00     0.050 C
HETATM   14  C8  UNL     1     -23.352  -3.612  24.755  1.00  0.00     0.168 C
HETATM   15 CL1  UNL     1     -24.577  -3.107  23.593  1.00  0.00    -0.115 Cl
ENDBRANCH   5   7
ENDBRANCH   1   5
TORSDOF 2
ENDMDL