MODEL 4
REMARK VINA RESULT: -5.221373633      2.473      5.671
REMARK  4 active torsions:
REMARK  status: ('A' for Active; 'I' for Inactive)
REMARK    1  A    between atoms: C2_2  and  N1_3
REMARK    2  A    between atoms: N1_3  and  C3_5
REMARK    3  A    between atoms: C4_8  and  N3_9
REMARK    4  A    between atoms: N3_9  and  C5_11
ROOT
HETATM    1  C3  UNL     1     -21.217  -1.035  23.752  1.00  0.00     0.153 A
HETATM    2  N2  UNL     1     -21.132  -1.892  22.746  1.00  0.00    -0.316 N
ATOM      3  H2  UNL     1     -20.474  -1.722  21.986  1.00  0.00     0.170 HD
HETATM    4  C4  UNL     1     -21.896  -2.963  22.727  1.00  0.00     0.155 A
HETATM    5  S1  UNL     1     -22.970  -3.171  24.039  1.00  0.00    -0.013 SA
HETATM    6  S2  UNL     1     -22.348  -1.403  24.978  1.00  0.00    -0.013 SA
ENDROOT
BRANCH   4   7
HETATM    7  N3  UNL     1     -21.837  -3.844  21.735  1.00  0.00    -0.340 N
ATOM      8  H3  UNL     1     -21.166  -3.700  20.981  1.00  0.00     0.164 HD
BRANCH   7   9
HETATM    9  C5  UNL     1     -22.686  -4.982  21.700  1.00  0.00     0.266 C
HETATM   10  C6  UNL     1     -22.025  -6.212  21.112  1.00  0.00     0.069 C
HETATM   11  F1  UNL     1     -23.847  -4.655  21.002  1.00  0.00    -0.227 F
ENDBRANCH   7   9
ENDBRANCH   4   7
BRANCH   1  12
HETATM   12  N1  UNL     1     -20.460   0.058  23.801  1.00  0.00    -0.370 N
ATOM     13  H1  UNL     1     -20.229   0.550  22.938  1.00  0.00     0.161 HD
BRANCH  12  14
HETATM   14  C2  UNL     1     -19.969   0.547  25.040  1.00  0.00     0.117 C
HETATM   15  C1  UNL     1     -20.759   1.781  25.474  1.00  0.00     0.026 C
ENDBRANCH  12  14
ENDBRANCH   1  12
TORSDOF 4
ENDMDL