MODEL 2
REMARK VINA RESULT: -5.382875010      1.579      2.612
REMARK  2 active torsions:
REMARK  status: ('A' for Active; 'I' for Inactive)
REMARK    1  A    between atoms: O1_2  and  C2_3
REMARK    2  A    between atoms: C3_4  and  O2_5
ROOT
HETATM    1  C2  UNL     1     -22.143  -4.064  23.092  1.00  0.00     0.143 A
HETATM    2  C3  UNL     1     -22.771  -4.031  24.326  1.00  0.00     0.104 A
HETATM    3  C4  UNL     1     -22.795  -2.877  25.098  1.00  0.00     0.079 A
HETATM    4  C5  UNL     1     -22.180  -1.731  24.631  1.00  0.00     0.108 A
HETATM    5  C6  UNL     1     -21.552  -1.741  23.415  1.00  0.00     0.143 A
HETATM    6  C7  UNL     1     -21.546  -2.890  22.679  1.00  0.00     0.188 A
HETATM    7  F1  UNL     1     -20.923  -2.888  21.480  1.00  0.00    -0.200 F
HETATM    8  O3  UNL     1     -20.940  -0.556  22.978  1.00  0.00    -0.343 OA
HETATM    9  C8  UNL     1     -21.434   0.647  23.539  1.00  0.00     0.202 C
HETATM   10  C9  UNL     1     -21.313   0.481  25.056  1.00  0.00     0.202 C
HETATM   11  O4  UNL     1     -22.201  -0.560  25.406  1.00  0.00    -0.346 OA
ENDROOT
BRANCH   1  12
HETATM   12  O1  UNL     1     -22.146  -5.224  22.371  1.00  0.00    -0.350 OA
HETATM   13  C1  UNL     1     -22.854  -5.484  21.206  1.00  0.00     0.210 C
ENDBRANCH   1  12
BRANCH   2  14
HETATM   14  O2  UNL     1     -23.378  -5.176  24.778  1.00  0.00    -0.358 OA
ATOM     15  H2  UNL     1     -24.173  -5.465  24.344  1.00  0.00     0.217 HD
ENDBRANCH   2  14
TORSDOF 2
ENDMDL