MODEL 5
REMARK VINA RESULT: -3.011934431      4.766      6.425
REMARK  3 active torsions:
REMARK  status: ('A' for Active; 'I' for Inactive)
REMARK    1  A    between atoms: C1_2  and  C2_3
REMARK    2  A    between atoms: C2_3  and  O1_4
REMARK    3  A    between atoms: O1_4  and  C3_5
ROOT
HETATM    1  C3  UNL     1     -26.078  -7.384  26.640  1.00  0.00     0.271 C
HETATM    2  N1  UNL     1     -27.222  -7.284  27.521  1.00  0.00    -0.309 N
ATOM      3  H1  UNL     1     -27.176  -7.888  28.342  1.00  0.00     0.182 HD
HETATM    4  N2  UNL     1     -28.242  -6.596  27.449  1.00  0.00    -0.338 N
ATOM      5  H2  UNL     1     -28.924  -6.696  28.201  1.00  0.00     0.179 HD
HETATM    6  C4  UNL     1     -28.554  -5.667  26.400  1.00  0.00     0.139 C
HETATM    7  C5  UNL     1     -27.399  -4.751  26.089  1.00  0.00     0.024 C
HETATM    8  C6  UNL     1     -26.251  -4.915  27.046  1.00  0.00     0.045 C
HETATM    9  C7  UNL     1     -25.354  -6.065  26.731  1.00  0.00     0.170 C
HETATM   10  C8  UNL     1     -24.538  -5.754  25.511  1.00  0.00     0.045 C
HETATM   11  C9  UNL     1     -23.094  -5.856  25.962  1.00  0.00     0.030 C
HETATM   12  C10 UNL     1     -23.227  -6.783  27.156  1.00  0.00     0.233 C
HETATM   13  N3  UNL     1     -24.396  -6.183  27.819  1.00  0.00    -0.062 N
ATOM     14  H31 UNL     1     -24.735  -6.695  28.634  1.00  0.00     0.278 HD
ATOM     15  H32 UNL     1     -24.205  -5.313  28.317  1.00  0.00     0.278 HD
ENDROOT
BRANCH   1  16
HETATM   16  O1  UNL     1     -26.492  -7.697  25.372  1.00  0.00    -0.361 OA
BRANCH  16  17
HETATM   17  C2  UNL     1     -26.863  -9.036  25.339  1.00  0.00     0.202 C
BRANCH  17  18
HETATM   18  C1  UNL     1     -28.103  -9.274  24.528  1.00  0.00     0.248 C
HETATM   19  F1  UNL     1     -27.754 -10.145  23.501  1.00  0.00    -0.253 F
ENDBRANCH  17  18
ENDBRANCH  16  17
ENDBRANCH   1  16
TORSDOF 3
ENDMDL