MODEL 5
REMARK VINA RESULT: -5.208291833      3.543      5.286
REMARK  11 active torsions:
REMARK  status: ('A' for Active; 'I' for Inactive)
REMARK    1  A    between atoms: N1_1  and  S1_4
REMARK    2  A    between atoms: S1_4  and  N2_5
REMARK    3  A    between atoms: S1_4  and  N3_8
REMARK    4  A    between atoms: C1_16  and  O1_17
REMARK    5  A    between atoms: C2_20  and  C3_21
REMARK    6  A    between atoms: C3_21  and  O2_22
REMARK    7  A    between atoms: C3_21  and  C4_24
REMARK    8  A    between atoms: C4_24  and  C5_26
REMARK    9  A    between atoms: C5_26  and  O4_27
REMARK   10  A    between atoms: C5_26  and  C6_29
REMARK   11  A    between atoms: C6_29  and  O5_30
ROOT
HETATM    1  S1  UNL     1       4.603 -25.609 -17.602  1.00  0.00     0.026 SA
HETATM    2  N7  UNL     1       5.484 -26.196 -19.018  1.00  0.00    -0.308 N
ATOM      3  H7  UNL     1       6.175 -25.602 -19.476  1.00  0.00     0.173 HD
HETATM    4  C1  UNL     1       5.221 -27.500 -19.512  1.00  0.00     0.291 C
HETATM    5  S2  UNL     1       3.521 -27.902 -18.920  1.00  0.00    -0.093 SA
HETATM    6  C2  UNL     1       3.103 -26.193 -18.404  1.00  0.00     0.196 C
ENDROOT
BRANCH   1   7
HETATM    7  N1  UNL     1       4.090 -26.506 -16.080  1.00  0.00    -0.353 N
ATOM      8  H12 UNL     1       3.897 -26.183 -15.131  1.00  0.00     0.166 HD
ATOM      9  H11 UNL     1       4.069 -27.425 -16.521  1.00  0.00     0.166 HD
ENDBRANCH   1   7
BRANCH   1  10
HETATM   10  N2  UNL     1       6.062 -25.061 -16.964  1.00  0.00    -0.353 N
ATOM     11  H22 UNL     1       6.395 -24.971 -16.004  1.00  0.00     0.166 HD
ATOM     12  H21 UNL     1       6.483 -24.856 -17.870  1.00  0.00     0.166 HD
ENDBRANCH   1  10
BRANCH   1  13
HETATM   13  N3  UNL     1       3.889 -23.750 -17.654  1.00  0.00    -0.120 N
HETATM   14  N4  UNL     1       3.616 -22.861 -16.766  1.00  0.00    -0.195 N
HETATM   15  N5  UNL     1       3.224 -21.996 -17.721  1.00  0.00     0.014 NA
ATOM     16  H4  UNL     1       3.673 -22.826 -15.748  1.00  0.00     0.208 HD
HETATM   17  N6  UNL     1       3.525 -22.958 -18.603  1.00  0.00    -0.195 N
ATOM     18  H6  UNL     1       3.483 -23.033 -19.619  1.00  0.00     0.208 HD
ENDBRANCH   1  13
BRANCH   6  19
HETATM   19  C3  UNL     1       1.703 -26.071 -17.832  1.00  0.00     0.218 C
BRANCH  19  20
HETATM   20  O2  UNL     1       1.666 -24.861 -17.077  1.00  0.00    -0.386 OA
ATOM     21  H2  UNL     1       2.532 -24.474 -17.132  1.00  0.00     0.210 HD
ENDBRANCH  19  20
BRANCH  19  22
HETATM   22  C4  UNL     1       0.585 -26.005 -18.740  1.00  0.00     0.187 C
HETATM   23  O3  UNL     1      -0.567 -26.344 -18.472  1.00  0.00    -0.292 OA
BRANCH  22  24
HETATM   24  C5  UNL     1       0.794 -25.503 -20.126  1.00  0.00     0.213 C
BRANCH  24  25
HETATM   25  O4  UNL     1       1.148 -24.132 -20.075  1.00  0.00    -0.386 OA
ATOM     26  H4  UNL     1       0.665 -23.660 -20.743  1.00  0.00     0.210 HD
ENDBRANCH  24  25
BRANCH  24  27
HETATM   27  C6  UNL     1      -0.510 -25.544 -20.920  1.00  0.00     0.203 C
BRANCH  27  28
HETATM   28  O5  UNL     1      -1.362 -24.507 -20.666  1.00  0.00    -0.398 OA
ATOM     29  H5  UNL     1      -1.406 -24.248 -19.753  1.00  0.00     0.209 HD
ENDBRANCH  27  28
ENDBRANCH  24  27
ENDBRANCH  22  24
ENDBRANCH  19  22
ENDBRANCH   6  19
BRANCH   4  30
HETATM   30  O1  UNL     1       5.175 -27.539 -20.886  1.00  0.00    -0.367 OA
ATOM     31  H1  UNL     1       4.287 -27.600 -21.216  1.00  0.00     0.213 HD
ENDBRANCH   4  30
TORSDOF 11
ENDMDL