MODEL 2
REMARK VINA RESULT: -6.291102099      2.925      5.177
REMARK  8 active torsions:
REMARK  status: ('A' for Active; 'I' for Inactive)
REMARK    1  A    between atoms: C2_3  and  N2_4
REMARK    2  A    between atoms: N7_16  and  C4_17
REMARK    3  A    between atoms: C4_17  and  C5_18
REMARK    4  A    between atoms: C6_19  and  N8_20
REMARK    5  A    between atoms: N8_20  and  O1_21
REMARK    6  A    between atoms: N8_20  and  N9_23
REMARK    7  A    between atoms: N9_23  and  N10_25
REMARK    8  A    between atoms: C9_35  and  O3_36
ROOT
HETATM    1  C5  UNL     1       1.584 -25.320 -18.285  1.00  0.00     0.063 A
HETATM    2  C6  UNL     1       0.675 -26.351 -18.199  1.00  0.00     0.104 A
HETATM    3  C7  UNL     1      -0.338 -26.392 -19.162  1.00  0.00     0.109 A
HETATM    4  C8  UNL     1      -0.488 -25.479 -20.179  1.00  0.00     0.249 A
HETATM    5  O2  UNL     1      -1.405 -25.548 -21.025  1.00  0.00    -0.268 OA
HETATM    6  N12 UNL     1       0.403 -24.493 -20.231  1.00  0.00    -0.303 N
ATOM      7  H12 UNL     1       0.331 -23.791 -20.967  1.00  0.00     0.171 HD
HETATM    8  C9  UNL     1       1.380 -24.408 -19.343  1.00  0.00     0.157 A
ENDROOT
BRANCH   1   9
HETATM    9  C4  UNL     1       2.638 -25.101 -17.331  1.00  0.00     0.138 C
BRANCH   9  10
HETATM   10  N7  UNL     1       3.469 -23.996 -17.122  1.00  0.00    -0.232 N
HETATM   11  N6  UNL     1       3.147 -22.986 -16.219  1.00  0.00    -0.233 N
HETATM   12  N5  UNL     1       3.989 -22.037 -16.209  1.00  0.00    -0.266 N
ATOM     13  H6  UNL     1       2.318 -23.008 -15.624  1.00  0.00     0.209 HD
HETATM   14  C3  UNL     1       4.942 -22.342 -17.112  1.00  0.00     0.184 A
ATOM     15  H5  UNL     1       3.952 -21.200 -15.628  1.00  0.00     0.190 HD
HETATM   16  N4  UNL     1       6.047 -21.678 -17.495  1.00  0.00    -0.267 N
HETATM   17  C10 UNL     1       4.602 -23.564 -17.672  1.00  0.00     0.192 A
HETATM   18  N3  UNL     1       6.844 -22.199 -18.440  1.00  0.00    -0.131 N
ATOM     19  H4  UNL     1       6.279 -20.781 -17.069  1.00  0.00     0.189 HD
HETATM   20  C2  UNL     1       6.512 -23.380 -18.981  1.00  0.00     0.694 A
ATOM     21  H3  UNL     1       7.685 -21.707 -18.741  1.00  0.00     0.205 HD
HETATM   22  N1  UNL     1       5.414 -24.093 -18.635  1.00  0.00    -0.166 N
HETATM   23  C1  UNL     1       5.108 -25.318 -19.274  1.00  0.00     0.177 C
BRANCH  20  24
HETATM   24  N2  UNL     1       7.289 -23.872 -19.889  1.00  0.00    -0.233 N
ATOM     25  H22 UNL     1       6.969 -24.697 -20.397  1.00  0.00     0.174 HD
ATOM     26  H21 UNL     1       8.183 -23.410 -20.052  1.00  0.00     0.174 HD
ENDBRANCH  20  24
ENDBRANCH   9  10
ENDBRANCH   1   9
BRANCH   2  27
HETATM   27  N8  UNL     1       0.626 -27.336 -17.205  1.00  0.00    -0.147 N
BRANCH  27  28
HETATM   28  O1  UNL     1       1.130 -28.543 -17.471  1.00  0.00    -0.266 OA
ATOM     29  H1  UNL     1       1.848 -28.614 -18.089  1.00  0.00     0.247 HD
ENDBRANCH  27  28
BRANCH  27  30
HETATM   30  N9  UNL     1      -0.412 -27.253 -16.286  1.00  0.00    -0.202 N
ATOM     31  H9  UNL     1      -1.321 -27.686 -16.450  1.00  0.00     0.212 HD
BRANCH  30  32
HETATM   32  N10 UNL     1      -0.119 -26.524 -15.104  1.00  0.00    -0.233 N
HETATM   33  N11 UNL     1      -0.687 -26.890 -14.031  1.00  0.00    -0.330 N
ATOM     34 2H11 UNL     1      -1.330 -27.681 -14.035  1.00  0.00     0.178 HD
ATOM     35 1H11 UNL     1      -0.478 -26.366 -13.182  1.00  0.00     0.178 HD
ATOM     36  H10 UNL     1       0.526 -25.734 -15.117  1.00  0.00     0.209 HD
ENDBRANCH  30  32
ENDBRANCH  27  30
ENDBRANCH   2  27
BRANCH   8  37
HETATM   37  O3  UNL     1       2.246 -23.304 -19.503  1.00  0.00    -0.345 OA
ATOM     38  H3  UNL     1       3.182 -23.412 -19.379  1.00  0.00     0.219 HD
ENDBRANCH   8  37
TORSDOF 8
ENDMDL