MODEL 5
REMARK VINA RESULT: -5.378751394      2.599      6.066
REMARK  10 active torsions:
REMARK  status: ('A' for Active; 'I' for Inactive)
REMARK    1  A    between atoms: N1_1  and  C1_5
REMARK    2  A    between atoms: C1_5  and  C2_6
REMARK       I    between atoms: C2_6  and  N2_8
REMARK    3  A    between atoms: N2_8  and  C3_10
REMARK    4  A    between atoms: C5_12  and  O2_13
REMARK    5  A    between atoms: C5_12  and  C6_15
REMARK    6  A    between atoms: C7_18  and  O5_19
REMARK    7  A    between atoms: C8_21  and  O6_22
REMARK    8  A    between atoms: C9_24  and  C10_25
REMARK    9  A    between atoms: C10_25  and  N3_26
REMARK   10  A    between atoms: C10_25  and  O7_30
ROOT
HETATM    1  C3  UNL     1       4.372 -25.016 -17.553  1.00  0.00     0.021 C
HETATM    2  C4  UNL     1       4.637 -26.299 -17.634  1.00  0.00     0.050 C
HETATM    3  C5  UNL     1       3.439 -27.063 -18.068  1.00  0.00     0.200 C
HETATM    4  C7  UNL     1       2.631 -25.976 -18.736  1.00  0.00     0.145 C
HETATM    5  C8  UNL     1       1.158 -26.322 -18.780  1.00  0.00     0.209 C
HETATM    6  C9  UNL     1       0.505 -25.383 -19.733  1.00  0.00     0.097 C
HETATM    7  N4  UNL     1       0.909 -24.219 -20.097  1.00  0.00    -0.268 N
ATOM      8  H4  UNL     1       0.300 -23.749 -20.767  1.00  0.00     0.194 HD
HETATM    9  O8  UNL     1       2.013 -23.508 -19.740  1.00  0.00    -0.280 OA
HETATM   10  C11 UNL     1       2.679 -23.476 -18.525  1.00  0.00     0.215 C
HETATM   11  C12 UNL     1       2.962 -24.807 -17.917  1.00  0.00     0.103 C
ENDROOT
BRANCH   1  12
HETATM   12  N2  UNL     1       5.310 -24.020 -17.166  1.00  0.00    -0.329 N
HETATM   13  C2  UNL     1       6.136 -23.333 -18.097  1.00  0.00     0.247 C
HETATM   14  O1  UNL     1       5.994 -23.658 -19.322  1.00  0.00    -0.271 OA
ATOM     15  H2  UNL     1       5.395 -23.788 -16.176  1.00  0.00     0.168 HD
BRANCH  13  16
HETATM   16  C1  UNL     1       7.104 -22.304 -17.694  1.00  0.00     0.332 C
BRANCH  16  17
HETATM   17  N1  UNL     1       7.293 -21.377 -18.789  1.00  0.00    -0.071 N
ATOM     18  H13 UNL     1       8.224 -21.447 -19.201  1.00  0.00     0.274 HD
ATOM     19  H12 UNL     1       6.751 -21.635 -19.614  1.00  0.00     0.274 HD
ATOM     20  H11 UNL     1       7.083 -20.432 -18.466  1.00  0.00     0.274 HD
ENDBRANCH  16  17
ENDBRANCH  13  16
ENDBRANCH   1  12
BRANCH   3  21
HETATM   21  O2  UNL     1       3.809 -28.031 -19.032  1.00  0.00    -0.372 OA
ATOM     22  H2  UNL     1       3.072 -28.601 -19.217  1.00  0.00     0.211 HD
ENDBRANCH   3  21
BRANCH   3  23
HETATM   23  C6  UNL     1       2.813 -27.689 -16.910  1.00  0.00     0.216 C
HETATM   24  O3  UNL     1       2.348 -28.882 -16.955  1.00  0.00    -0.645 OA
HETATM   25  O4  UNL     1       2.678 -27.053 -15.698  1.00  0.00    -0.645 OA
ENDBRANCH   3  23
BRANCH   4  26
HETATM   26  O5  UNL     1       3.108 -25.925 -20.046  1.00  0.00    -0.382 OA
ATOM     27  H5  UNL     1       3.267 -25.004 -20.214  1.00  0.00     0.210 HD
ENDBRANCH   4  26
BRANCH   5  28
HETATM   28  O6  UNL     1       1.092 -27.630 -19.274  1.00  0.00    -0.386 OA
ATOM     29  H6  UNL     1       0.280 -27.990 -18.938  1.00  0.00     0.210 HD
ENDBRANCH   5  28
BRANCH   6  30
HETATM   30  C10 UNL     1      -0.765 -25.796 -20.363  1.00  0.00     0.367 C
BRANCH  30  31
HETATM   31  N3  UNL     1      -0.586 -26.609 -21.539  1.00  0.00    -0.048 N
ATOM     32  H33 UNL     1       0.001 -26.130 -22.222  1.00  0.00     0.277 HD
ATOM     33  H32 UNL     1       0.009 -27.412 -21.336  1.00  0.00     0.277 HD
ATOM     34  H31 UNL     1      -1.464 -26.909 -21.965  1.00  0.00     0.277 HD
ENDBRANCH  30  31
BRANCH  30  35
HETATM   35  O7  UNL     1      -1.500 -24.667 -20.695  1.00  0.00    -0.365 OA
ATOM     36  H7  UNL     1      -2.158 -24.900 -21.340  1.00  0.00     0.212 HD
ENDBRANCH  30  35
ENDBRANCH   6  30
TORSDOF 10
ENDMDL