MODEL 5
REMARK VINA RESULT: -5.670734981      2.028      5.852
REMARK  7 active torsions:
REMARK  status: ('A' for Active; 'I' for Inactive)
REMARK    1  A    between atoms: N1_1  and  C1_4
REMARK    2  A    between atoms: C3_9  and  N3_10
REMARK    3  A    between atoms: C4_13  and  C5_14
REMARK    4  A    between atoms: N4_15  and  N5_17
REMARK    5  A    between atoms: N8_22  and  C7_23
REMARK    6  A    between atoms: C8_27  and  O4_28
REMARK    7  A    between atoms: C9_30  and  O5_31
ROOT
HETATM    1  C1  UNL     1       0.212 -28.845 -16.972  1.00  0.00     0.685 A
HETATM    2  N2  UNL     1       0.154 -29.374 -15.723  1.00  0.00    -0.154 N
ATOM      3  H2  UNL     1      -0.122 -30.345 -15.577  1.00  0.00     0.187 HD
HETATM    4  C2  UNL     1       0.463 -28.595 -14.702  1.00  0.00     0.295 A
HETATM    5  O1  UNL     1       0.416 -29.066 -13.523  1.00  0.00    -0.265 OA
HETATM    6  C3  UNL     1       0.848 -27.256 -14.838  1.00  0.00     0.200 A
HETATM    7  C4  UNL     1       0.900 -26.738 -16.117  1.00  0.00     0.111 A
HETATM    8  N8  UNL     1       0.577 -27.553 -17.169  1.00  0.00    -0.126 N
ENDROOT
BRANCH   8   9
HETATM    9  C7  UNL     1       0.619 -27.030 -18.490  1.00  0.00     0.456 C
HETATM   10  N9  UNL     1      -0.546 -26.232 -18.861  1.00  0.00     0.001 N
HETATM   11  C8  UNL     1      -0.126 -25.740 -20.161  1.00  0.00     0.379 C
ATOM     12  H92 UNL     1      -1.441 -26.720 -18.842  1.00  0.00     0.285 HD
ATOM     13  H91 UNL     1      -0.824 -25.518 -18.188  1.00  0.00     0.285 HD
HETATM   14  C9  UNL     1       1.355 -25.518 -19.930  1.00  0.00     0.318 C
HETATM   15  O6  UNL     1       1.636 -26.046 -18.658  1.00  0.00    -0.308 OA
BRANCH  11  16
HETATM   16  O4  UNL     1      -0.781 -24.567 -20.516  1.00  0.00    -0.366 OA
ATOM     17  H4  UNL     1      -0.195 -23.935 -20.916  1.00  0.00     0.212 HD
ENDBRANCH  11  16
BRANCH  14  18
HETATM   18  O5  UNL     1       1.567 -24.141 -19.983  1.00  0.00    -0.367 OA
ATOM     19  H5  UNL     1       1.518 -23.822 -19.089  1.00  0.00     0.212 HD
ENDBRANCH  14  18
ENDBRANCH   8   9
BRANCH   1  20
HETATM   20  N1  UNL     1      -0.086 -29.630 -17.929  1.00  0.00    -0.234 N
ATOM     21  H12 UNL     1      -1.037 -29.959 -18.097  1.00  0.00     0.174 HD
ATOM     22  H11 UNL     1       0.685 -29.917 -18.532  1.00  0.00     0.174 HD
ENDBRANCH   1  20
BRANCH   7  23
HETATM   23  C5  UNL     1       1.262 -25.347 -16.265  1.00  0.00     0.140 C
HETATM   24  N4  UNL     1       2.474 -24.935 -16.164  1.00  0.00    -0.308 N
ATOM     25  H4  UNL     1       3.194 -25.632 -15.973  1.00  0.00     0.186 HD
BRANCH  24  26
HETATM   26  N5  UNL     1       2.881 -23.621 -16.296  1.00  0.00    -0.276 N
HETATM   27  C6  UNL     1       3.718 -23.282 -17.206  1.00  0.00     0.215 C
HETATM   28  N6  UNL     1       4.157 -21.945 -17.370  1.00  0.00    -0.065 NA
HETATM   29  N7  UNL     1       4.227 -24.271 -18.080  1.00  0.00    -0.065 NA
ATOM     30  H5  UNL     1       2.512 -22.912 -15.662  1.00  0.00     0.189 HD
ENDBRANCH  24  26
ENDBRANCH   7  23
BRANCH   6  31
HETATM   31  N3  UNL     1       1.194 -26.546 -13.661  1.00  0.00    -0.107 N
HETATM   32  O2  UNL     1       0.310 -26.019 -12.971  1.00  0.00    -0.531 OA
HETATM   33  O3  UNL     1       2.496 -26.430 -13.257  1.00  0.00    -0.531 OA
ENDBRANCH   6  31
TORSDOF 7
ENDMDL