MODEL 3
REMARK VINA RESULT: -5.891336388      3.367      5.773
REMARK  7 active torsions:
REMARK  status: ('A' for Active; 'I' for Inactive)
REMARK    1  A    between atoms: N1_2  and  C2_5
REMARK    2  A    between atoms: C2_5  and  O1_6
REMARK    3  A    between atoms: C2_5  and  C3_8
REMARK    4  A    between atoms: C3_8  and  N2_9
REMARK    5  A    between atoms: C4_15  and  N4_16
REMARK    6  A    between atoms: C6_21  and  N5_22
REMARK    7  A    between atoms: C10_30  and  O4_31
ROOT
HETATM    1  C3  UNL     1      -2.210 -27.686 -24.544  1.00  0.00     0.355 C
HETATM    2  N3  UNL     1      -3.540 -27.675 -24.060  1.00  0.00    -0.338 N
ATOM      3  H3  UNL     1      -4.333 -27.786 -24.692  1.00  0.00     0.160 HD
HETATM    4  C4  UNL     1      -3.730 -27.503 -22.656  1.00  0.00     0.285 C
HETATM    5  C5  UNL     1      -2.432 -28.052 -22.031  1.00  0.00     0.110 C
HETATM    6  C6  UNL     1      -1.370 -27.081 -22.422  1.00  0.00     0.258 C
HETATM    7  O6  UNL     1      -1.184 -27.238 -23.809  1.00  0.00    -0.308 OA
ENDROOT
BRANCH   6   8
HETATM    8  N5  UNL     1      -0.087 -27.238 -21.780  1.00  0.00    -0.201 N
HETATM    9  C7  UNL     1       0.677 -28.333 -22.054  1.00  0.00     0.346 A
HETATM   10  O2  UNL     1       0.242 -29.149 -22.892  1.00  0.00    -0.245 OA
HETATM   11  N6  UNL     1       1.844 -28.490 -21.436  1.00  0.00    -0.272 N
HETATM   12  C8  UNL     1       2.311 -27.618 -20.548  1.00  0.00     0.282 A
ATOM     13  H6  UNL     1       2.404 -29.315 -21.652  1.00  0.00     0.174 HD
HETATM   14  O3  UNL     1       3.423 -27.777 -19.962  1.00  0.00    -0.265 OA
HETATM   15  C9  UNL     1       1.540 -26.508 -20.270  1.00  0.00     0.180 A
HETATM   16  C10 UNL     1       1.765 -25.442 -19.420  1.00  0.00     0.179 A
HETATM   17  N8  UNL     1       0.338 -26.317 -20.889  1.00  0.00    -0.187 N
HETATM   18  N7  UNL     1       0.721 -24.649 -19.543  1.00  0.00    -0.285 N
HETATM   19  C11 UNL     1      -0.169 -25.160 -20.438  1.00  0.00     0.348 A
ATOM     20  H7  UNL     1       0.596 -23.773 -19.037  1.00  0.00     0.172 HD
HETATM   21  O5  UNL     1      -1.248 -24.636 -20.769  1.00  0.00    -0.245 OA
BRANCH  16  22
HETATM   22  O4  UNL     1       2.899 -25.297 -18.614  1.00  0.00    -0.344 OA
ATOM     23  H4  UNL     1       3.103 -24.519 -18.108  1.00  0.00     0.219 HD
ENDBRANCH  16  22
ENDBRANCH   6   8
BRANCH   4  24
HETATM   24  N4  UNL     1      -3.893 -26.104 -22.433  1.00  0.00    -0.058 N
ATOM     25  H43 UNL     1      -3.419 -25.771 -21.594  1.00  0.00     0.276 HD
ATOM     26  H42 UNL     1      -3.385 -25.528 -23.104  1.00  0.00     0.276 HD
ATOM     27  H41 UNL     1      -4.896 -25.924 -22.427  1.00  0.00     0.276 HD
ENDBRANCH   4  24
BRANCH   1  28
HETATM   28  C2  UNL     1      -2.259 -26.776 -25.798  1.00  0.00     0.404 C
BRANCH  28  29
HETATM   29  N1  UNL     1      -1.222 -27.189 -26.741  1.00  0.00    -0.046 N
HETATM   30  C1  UNL     1      -1.262 -26.369 -27.937  1.00  0.00     0.270 C
ATOM     31  H12 UNL     1      -1.285 -28.183 -26.962  1.00  0.00     0.280 HD
ATOM     32  H11 UNL     1      -0.297 -27.186 -26.311  1.00  0.00     0.280 HD
ENDBRANCH  28  29
BRANCH  28  33
HETATM   33  O1  UNL     1      -2.112 -25.454 -25.483  1.00  0.00    -0.365 OA
ATOM     34  H1  UNL     1      -2.836 -25.163 -24.940  1.00  0.00     0.212 HD
ENDBRANCH  28  33
ENDBRANCH   1  28
BRANCH   1  35
HETATM   35  N2  UNL     1      -2.032 -29.034 -25.134  1.00  0.00    -0.023 N
ATOM     36  H23 UNL     1      -2.220 -29.092 -26.134  1.00  0.00     0.280 HD
ATOM     37  H22 UNL     1      -1.065 -29.351 -25.195  1.00  0.00     0.280 HD
ATOM     38  H21 UNL     1      -2.637 -29.611 -24.549  1.00  0.00     0.280 HD
ENDBRANCH   1  35
TORSDOF 7
ENDMDL