MODEL 3
REMARK VINA RESULT: -6.759380766      3.119      4.845
REMARK  11 active torsions:
REMARK  status: ('A' for Active; 'I' for Inactive)
REMARK    1  A    between atoms: C2_2  and  C9_31
REMARK    2  A    between atoms: N1_3  and  N2_5
REMARK    3  A    between atoms: N2_5  and  C3_7
REMARK    4  A    between atoms: C5_14  and  N6_15
REMARK    5  A    between atoms: N6_15  and  C6_17
REMARK    6  A    between atoms: C7_21  and  O1_22
REMARK    7  A    between atoms: C7_21  and  O2_24
REMARK    8  A    between atoms: C8_26  and  O3_27
REMARK    9  A    between atoms: C9_31  and  O4_32
REMARK   10  A    between atoms: C9_31  and  C10_34
REMARK   11  A    between atoms: C10_34  and  O5_36
ROOT
HETATM    1  C3  UNL     1       1.674 -24.102 -18.818  1.00  0.00     0.713 A
HETATM    2  N3  UNL     1       2.682 -23.203 -18.819  1.00  0.00    -0.161 N
ATOM      3  H3  UNL     1       2.938 -22.710 -19.675  1.00  0.00     0.187 HD
HETATM    4  C4  UNL     1       3.344 -22.969 -17.667  1.00  0.00     0.221 A
HETATM    5  N4  UNL     1       4.405 -22.018 -17.682  1.00  0.00    -0.062 NA
HETATM    6  N5  UNL     1       2.989 -23.631 -16.555  1.00  0.00    -0.162 N
ATOM      7  H5  UNL     1       3.497 -23.445 -15.690  1.00  0.00     0.187 HD
HETATM    8  C5  UNL     1       1.989 -24.527 -16.541  1.00  0.00     0.697 A
HETATM    9  N8  UNL     1       1.333 -24.760 -17.679  1.00  0.00    -0.021 N
ATOM     10  H8  UNL     1       0.570 -25.436 -17.694  1.00  0.00     0.203 HD
ENDROOT
BRANCH   8  11
HETATM   11  N6  UNL     1       1.651 -25.158 -15.477  1.00  0.00    -0.193 N
ATOM     12  H6  UNL     1       1.867 -24.779 -14.555  1.00  0.00     0.180 HD
BRANCH  11  13
HETATM   13  C6  UNL     1       0.958 -26.418 -15.612  1.00  0.00     0.342 C
HETATM   14  N7  UNL     1      -0.431 -26.319 -15.212  1.00  0.00     0.009 N
HETATM   15  C7  UNL     1      -0.192 -27.132 -14.038  1.00  0.00     0.366 C
ATOM     16  H72 UNL     1      -0.856 -25.397 -15.103  1.00  0.00     0.286 HD
ATOM     17  H71 UNL     1      -1.161 -26.593 -15.870  1.00  0.00     0.286 HD
HETATM   18  C8  UNL     1       1.221 -27.396 -14.511  1.00  0.00     0.261 C
BRANCH  15  19
HETATM   19  O1  UNL     1      -0.985 -28.285 -14.060  1.00  0.00    -0.342 OA
ATOM     20  H1  UNL     1      -0.629 -28.952 -13.486  1.00  0.00     0.215 HD
ENDBRANCH  15  19
BRANCH  15  21
HETATM   21  O2  UNL     1      -0.277 -26.444 -12.831  1.00  0.00    -0.342 OA
ATOM     22  H2  UNL     1       0.466 -25.882 -12.645  1.00  0.00     0.215 HD
ENDBRANCH  15  21
BRANCH  18  23
HETATM   23  O3  UNL     1       1.418 -28.698 -14.954  1.00  0.00    -0.384 OA
ATOM     24  H3  UNL     1       0.902 -29.344 -14.485  1.00  0.00     0.210 HD
ENDBRANCH  18  23
ENDBRANCH  11  13
ENDBRANCH   8  11
BRANCH   1  25
HETATM   25  N2  UNL     1       1.068 -24.301 -19.924  1.00  0.00    -0.131 N
ATOM     26  H2  UNL     1       1.517 -24.038 -20.802  1.00  0.00     0.205 HD
BRANCH  25  27
HETATM   27  N1  UNL     1      -0.188 -24.868 -19.942  1.00  0.00    -0.292 N
HETATM   28  C2  UNL     1      -0.528 -25.873 -20.678  1.00  0.00     0.031 C
HETATM   29  C1  UNL     1       0.502 -26.447 -21.557  1.00  0.00     0.068 C
ATOM     30  H1  UNL     1      -0.899 -24.466 -19.331  1.00  0.00     0.187 HD
BRANCH  28  31
HETATM   31  C9  UNL     1      -1.898 -26.382 -20.602  1.00  0.00     0.193 C
BRANCH  31  32
HETATM   32  O4  UNL     1      -1.989 -27.647 -21.179  1.00  0.00    -0.387 OA
ATOM     33  H4  UNL     1      -2.160 -28.309 -20.519  1.00  0.00     0.210 HD
ENDBRANCH  31  32
BRANCH  31  34
HETATM   34  C10 UNL     1      -2.915 -25.510 -21.302  1.00  0.00     0.148 C
HETATM   35  C11 UNL     1      -4.330 -25.924 -21.067  1.00  0.00     0.042 C
BRANCH  34  36
HETATM   36  O5  UNL     1      -2.749 -24.168 -21.057  1.00  0.00    -0.393 OA
ATOM     37  H5  UNL     1      -3.548 -23.663 -21.149  1.00  0.00     0.210 HD
ENDBRANCH  34  36
ENDBRANCH  31  34
ENDBRANCH  28  31
ENDBRANCH  25  27
ENDBRANCH   1  25
TORSDOF 11
ENDMDL