MODEL 1
REMARK VINA RESULT: -5.506057137      0.000      0.000
REMARK  10 active torsions:
REMARK  status: ('A' for Active; 'I' for Inactive)
REMARK    1  A    between atoms: N1_1  and  C1_4
REMARK    2  A    between atoms: N3_8  and  O1_10
REMARK    3  A    between atoms: N5_16  and  C5_17
REMARK    4  A    between atoms: C6_19  and  O3_20
REMARK    5  A    between atoms: C6_19  and  C7_22
REMARK    6  A    between atoms: C7_22  and  O4_23
REMARK    7  A    between atoms: C8_25  and  O5_26
REMARK    8  A    between atoms: C9_28  and  N6_29
REMARK    9  A    between atoms: C10_31  and  C11_32
REMARK   10  A    between atoms: C11_32  and  N7_33
ROOT
HETATM    1  C1  UNL     1       2.232 -25.739 -15.472  1.00  0.00     0.678 A
HETATM    2  N2  UNL     1       2.645 -24.479 -15.753  1.00  0.00    -0.173 N
ATOM      3  H2  UNL     1       3.068 -23.931 -15.005  1.00  0.00     0.186 HD
HETATM    4  C2  UNL     1       2.527 -23.912 -16.973  1.00  0.00     0.170 A
HETATM    5  N3  UNL     1       2.927 -22.707 -17.222  1.00  0.00    -0.251 N
ATOM      6  H3  UNL     1       2.828 -22.297 -18.150  1.00  0.00     0.196 HD
HETATM    7  C3  UNL     1       1.941 -24.698 -17.968  1.00  0.00     0.111 A
HETATM    8  N4  UNL     1       1.776 -24.228 -19.216  1.00  0.00    -0.347 N
ATOM      9  H4  UNL     1       2.083 -23.281 -19.437  1.00  0.00     0.167 HD
HETATM   10  C4  UNL     1       1.215 -24.974 -20.179  1.00  0.00     0.188 A
HETATM   11  N5  UNL     1       0.776 -26.253 -19.966  1.00  0.00    -0.297 N
HETATM   12  C9  UNL     1       0.923 -26.754 -18.738  1.00  0.00     0.140 A
HETATM   13  C12 UNL     1       1.519 -25.965 -17.707  1.00  0.00     0.124 A
HETATM   14  N8  UNL     1       1.677 -26.449 -16.466  1.00  0.00    -0.186 N
ATOM     15  H8  UNL     1       1.361 -27.399 -16.269  1.00  0.00     0.184 HD
ENDROOT
BRANCH  11  16
HETATM   16  C5  UNL     1       0.190 -26.957 -21.082  1.00  0.00     0.268 C
HETATM   17  O2  UNL     1      -0.320 -26.024 -22.054  1.00  0.00    -0.323 OA
HETATM   18  C6  UNL     1      -1.183 -27.046 -22.425  1.00  0.00     0.216 C
HETATM   19  C8  UNL     1      -1.213 -27.413 -20.932  1.00  0.00     0.232 C
BRANCH  18  20
HETATM   20  O3  UNL     1      -0.543 -27.998 -23.204  1.00  0.00    -0.361 OA
ATOM     21  H3  UNL     1      -1.093 -28.759 -23.349  1.00  0.00     0.213 HD
ENDBRANCH  18  20
BRANCH  18  22
HETATM   22  C7  UNL     1      -2.517 -26.613 -22.975  1.00  0.00     0.235 C
BRANCH  22  23
HETATM   23  O4  UNL     1      -2.275 -26.117 -24.267  1.00  0.00    -0.395 OA
ATOM     24  H4  UNL     1      -1.644 -25.413 -24.172  1.00  0.00     0.209 HD
ENDBRANCH  22  23
ENDBRANCH  18  22
BRANCH  19  25
HETATM   25  O5  UNL     1      -1.483 -28.759 -20.847  1.00  0.00    -0.386 OA
ATOM     26  H5  UNL     1      -2.385 -29.057 -20.850  1.00  0.00     0.210 HD
ENDBRANCH  19  25
ENDBRANCH  11  16
BRANCH  12  27
HETATM   27  N6  UNL     1       0.576 -27.885 -18.397  1.00  0.00    -0.352 N
HETATM   28  C10 UNL     1       0.927 -29.198 -18.331  1.00  0.00     0.089 C
ATOM     29  H6  UNL     1      -0.360 -27.805 -18.000  1.00  0.00     0.166 HD
BRANCH  28  30
HETATM   30  C11 UNL     1      -0.188 -30.139 -17.857  1.00  0.00     0.274 C
BRANCH  30  31
HETATM   31  N7  UNL     1      -0.563 -30.942 -19.006  1.00  0.00    -0.075 N
ATOM     32  H73 UNL     1      -1.564 -30.928 -19.200  1.00  0.00     0.274 HD
ATOM     33  H72 UNL     1      -0.257 -30.545 -19.894  1.00  0.00     0.274 HD
ATOM     34  H71 UNL     1      -0.197 -31.879 -18.835  1.00  0.00     0.274 HD
ENDBRANCH  30  31
ENDBRANCH  28  30
ENDBRANCH  12  27
BRANCH   1  35
HETATM   35  N1  UNL     1       2.379 -26.213 -14.281  1.00  0.00    -0.234 N
ATOM     36  H12 UNL     1       2.157 -25.672 -13.446  1.00  0.00     0.174 HD
ATOM     37  H11 UNL     1       2.730 -27.162 -14.151  1.00  0.00     0.174 HD
ENDBRANCH   1  35
BRANCH   5  38
HETATM   38  O1  UNL     1       3.489 -22.006 -16.191  1.00  0.00    -0.288 OA
ATOM     39  H1  UNL     1       4.008 -21.243 -16.414  1.00  0.00     0.244 HD
ENDBRANCH   5  38
TORSDOF 10
ENDMDL