MODEL 3
REMARK VINA RESULT: -5.696947692      3.901      7.071
REMARK  9 active torsions:
REMARK  status: ('A' for Active; 'I' for Inactive)
REMARK    1  A    between atoms: O1_2  and  C2_3
REMARK    2  A    between atoms: C4_6  and  C5_7
REMARK    3  A    between atoms: C5_7  and  O3_8
REMARK    4  A    between atoms: O3_8  and  C6_9
REMARK       I    between atoms: C6_9  and  N1_11
REMARK    5  A    between atoms: N1_11  and  N2_12
REMARK    6  A    between atoms: N1_11  and  N3_15
REMARK    7  A    between atoms: N3_15  and  O5_16
REMARK    8  A    between atoms: C7_18  and  N4_19
REMARK    9  A    between atoms: C10_32  and  O7_33
ROOT
HETATM    1  C2  UNL     1      -2.116 -26.502 -21.911  1.00  0.00     0.179 C
HETATM    2  C3  UNL     1      -2.194 -25.940 -20.500  1.00  0.00     0.203 C
HETATM    3  O2  UNL     1      -0.995 -25.546 -19.973  1.00  0.00    -0.379 OA
HETATM    4  C4  UNL     1       0.012 -26.438 -20.135  1.00  0.00     0.179 C
HETATM    5  C7  UNL     1       0.245 -26.737 -21.572  1.00  0.00     0.249 C
HETATM    6  C8  UNL     1      -1.002 -27.495 -22.037  1.00  0.00     0.138 C
HETATM    7  N5  UNL     1      -1.213 -28.630 -21.111  1.00  0.00    -0.323 N
ATOM      8  H5  UNL     1      -1.897 -28.562 -20.357  1.00  0.00     0.165 HD
HETATM    9  C9  UNL     1      -0.451 -29.817 -21.286  1.00  0.00     0.335 C
HETATM   10  O6  UNL     1      -0.251 -30.570 -20.287  1.00  0.00    -0.246 OA
HETATM   11  N6  UNL     1       0.042 -30.083 -22.582  1.00  0.00    -0.254 N
ATOM     12  H6  UNL     1       0.384 -31.017 -22.809  1.00  0.00     0.191 HD
HETATM   13  N7  UNL     1       0.069 -29.110 -23.535  1.00  0.00    -0.301 N
ATOM     14  H7  UNL     1       0.741 -29.120 -24.302  1.00  0.00     0.183 HD
HETATM   15  C10 UNL     1      -0.913 -28.066 -23.391  1.00  0.00     0.266 C
ENDROOT
BRANCH   4  16
HETATM   16  C5  UNL     1       1.263 -26.081 -19.379  1.00  0.00     0.215 C
BRANCH  16  17
HETATM   17  O3  UNL     1       1.914 -24.930 -19.821  1.00  0.00    -0.299 OA
BRANCH  17  18
HETATM   18  C6  UNL     1       2.217 -23.959 -18.872  1.00  0.00     0.399 C
HETATM   19  O4  UNL     1       1.252 -23.479 -18.199  1.00  0.00    -0.235 OA
HETATM   20  N1  UNL     1       3.520 -23.491 -18.622  1.00  0.00    -0.120 N
BRANCH  20  21
HETATM   21  N2  UNL     1       4.619 -23.968 -19.364  1.00  0.00    -0.320 N
ATOM     22  H22 UNL     1       4.843 -24.964 -19.379  1.00  0.00     0.178 HD
ATOM     23  H21 UNL     1       5.210 -23.332 -19.899  1.00  0.00     0.178 HD
ENDBRANCH  20  21
BRANCH  20  24
HETATM   24  N3  UNL     1       3.701 -22.532 -17.610  1.00  0.00     0.046 NA
BRANCH  24  25
HETATM   25  O5  UNL     1       3.041 -21.378 -17.869  1.00  0.00    -0.275 OA
ATOM     26  H5  UNL     1       2.435 -21.144 -17.175  1.00  0.00     0.240 HD
ENDBRANCH  24  25
ENDBRANCH  20  24
ENDBRANCH  17  18
ENDBRANCH  16  17
ENDBRANCH   4  16
BRANCH   5  27
HETATM   27  N4  UNL     1       1.469 -27.381 -21.877  1.00  0.00    -0.070 N
ATOM     28  H43 UNL     1       1.905 -27.722 -21.020  1.00  0.00     0.274 HD
ATOM     29  H42 UNL     1       1.288 -28.265 -22.353  1.00  0.00     0.274 HD
ATOM     30  H41 UNL     1       2.140 -26.830 -22.413  1.00  0.00     0.274 HD
ENDBRANCH   5  27
BRANCH   1  31
HETATM   31  O1  UNL     1      -3.352 -26.994 -22.244  1.00  0.00    -0.386 OA
HETATM   32  C1  UNL     1      -4.365 -26.343 -21.558  1.00  0.00     0.202 C
ENDBRANCH   1  31
BRANCH  15  33
HETATM   33  O7  UNL     1      -2.141 -28.674 -23.690  1.00  0.00    -0.373 OA
ATOM     34  H7  UNL     1      -2.030 -29.615 -23.622  1.00  0.00     0.212 HD
ENDBRANCH  15  33
TORSDOF 9
ENDMDL