MODEL 2
REMARK VINA RESULT: -6.545170488      4.057      6.087
REMARK  7 active torsions:
REMARK  status: ('A' for Active; 'I' for Inactive)
REMARK       I    between atoms: C1_2  and  N2_4
REMARK    1  A    between atoms: N2_4  and  N3_6
REMARK       I    between atoms: N3_6  and  C2_8
REMARK    2  A    between atoms: C2_8  and  C3_10
REMARK    3  A    between atoms: C3_10  and  N4_11
REMARK    4  A    between atoms: C4_16  and  C5_17
REMARK       I    between atoms: C5_17  and  N7_19
REMARK    5  A    between atoms: N7_19  and  C6_21
REMARK    6  A    between atoms: C8_26  and  O4_27
REMARK    7  A    between atoms: C9_29  and  O5_30
ROOT
HETATM    1  N4  UNL     1      -0.935 -27.092 -22.414  1.00  0.00    -0.209 N
HETATM    2  N5  UNL     1      -2.209 -26.811 -22.203  1.00  0.00    -0.224 N
ATOM      3  H5  UNL     1      -2.640 -26.666 -21.290  1.00  0.00     0.210 HD
HETATM    4  N6  UNL     1      -2.833 -26.748 -23.362  1.00  0.00    -0.264 N
ATOM      5  H6  UNL     1      -3.824 -26.547 -23.489  1.00  0.00     0.190 HD
HETATM    6  C4  UNL     1      -1.956 -26.990 -24.350  1.00  0.00     0.206 A
HETATM    7  N10 UNL     1      -0.792 -27.199 -23.721  1.00  0.00    -0.262 N
ATOM      8  H10 UNL     1       0.088 -27.413 -24.190  1.00  0.00     0.190 HD
ENDROOT
BRANCH   6   9
HETATM    9  C5  UNL     1      -2.250 -27.009 -25.787  1.00  0.00     0.289 C
HETATM   10  O3  UNL     1      -3.313 -27.531 -26.215  1.00  0.00    -0.264 OA
HETATM   11  N7  UNL     1      -1.294 -26.418 -26.653  1.00  0.00    -0.332 N
ATOM     12  H7  UNL     1      -0.439 -26.000 -26.287  1.00  0.00     0.164 HD
BRANCH  11  13
HETATM   13  C6  UNL     1      -1.571 -26.428 -28.076  1.00  0.00     0.230 C
HETATM   14  N8  UNL     1      -0.351 -26.690 -28.796  1.00  0.00    -0.117 NA
HETATM   15  N9  UNL     1      -0.147 -25.830 -29.855  1.00  0.00    -0.335 N
HETATM   16  C7  UNL     1      -1.256 -25.622 -30.721  1.00  0.00     0.169 C
ATOM     17  H9  UNL     1       0.750 -25.370 -30.008  1.00  0.00     0.175 HD
HETATM   18  C8  UNL     1      -2.540 -25.312 -30.001  1.00  0.00     0.169 C
HETATM   19  C9  UNL     1      -2.212 -25.129 -28.530  1.00  0.00     0.188 C
BRANCH  18  20
HETATM   20  O4  UNL     1      -3.173 -24.169 -30.517  1.00  0.00    -0.391 OA
ATOM     21  H4  UNL     1      -4.098 -24.145 -30.303  1.00  0.00     0.210 HD
ENDBRANCH  18  20
BRANCH  19  22
HETATM   22  O5  UNL     1      -1.383 -24.042 -28.416  1.00  0.00    -0.389 OA
ATOM     23  H5  UNL     1      -1.616 -23.326 -28.995  1.00  0.00     0.210 HD
ENDBRANCH  19  22
ENDBRANCH  11  13
ENDBRANCH   6   9
BRANCH   1  24
HETATM   24  C3  UNL     1       0.110 -27.242 -21.386  1.00  0.00     0.275 C
BRANCH  24  25
HETATM   25  C2  UNL     1       0.459 -25.877 -20.935  1.00  0.00     0.257 C
HETATM   26  N3  UNL     1       0.777 -25.573 -19.592  1.00  0.00    -0.265 N
ATOM     27  H3  UNL     1       0.776 -26.305 -18.883  1.00  0.00     0.190 HD
HETATM   28  O2  UNL     1       0.471 -24.963 -21.782  1.00  0.00    -0.270 OA
BRANCH  26  29
HETATM   29  N2  UNL     1       1.093 -24.260 -19.250  1.00  0.00    -0.251 N
HETATM   30  C1  UNL     1       2.450 -23.854 -19.132  1.00  0.00     0.347 C
HETATM   31  N1  UNL     1       2.793 -22.521 -18.785  1.00  0.00    -0.038 NA
HETATM   32  O1  UNL     1       3.380 -24.673 -19.332  1.00  0.00    -0.249 OA
ATOM     33  H2  UNL     1       0.345 -23.586 -19.084  1.00  0.00     0.191 HD
ENDBRANCH  26  29
ENDBRANCH  24  25
ENDBRANCH   1  24
TORSDOF 7
ENDMDL