MODEL 3
REMARK VINA RESULT: -5.855451278      5.465      7.071
REMARK  10 active torsions:
REMARK  status: ('A' for Active; 'I' for Inactive)
REMARK    1  A    between atoms: N1_1  and  C1_4
REMARK    2  A    between atoms: C2_5  and  N2_6
REMARK    3  A    between atoms: N2_6  and  N3_8
REMARK    4  A    between atoms: N3_8  and  N4_10
REMARK    5  A    between atoms: N4_10  and  O1_12
REMARK    6  A    between atoms: O1_12  and  C3_13
REMARK    7  A    between atoms: C4_17  and  N6_18
REMARK    8  A    between atoms: C5_22  and  O2_23
REMARK    9  A    between atoms: C6_25  and  O3_26
REMARK   10  A    between atoms: N9_36  and  C9_37
ROOT
HETATM    1  N3  UNL     1       0.810 -27.781 -22.052  1.00  0.00    -0.221 N
ATOM      2  H3  UNL     1       0.998 -28.208 -22.958  1.00  0.00     0.210 HD
ENDROOT
BRANCH   1   3
HETATM    3  N2  UNL     1      -0.376 -28.013 -21.346  1.00  0.00    -0.265 N
ATOM      4  H2  UNL     1      -0.371 -28.271 -20.359  1.00  0.00     0.190 HD
BRANCH   3   5
HETATM    5  C2  UNL     1      -1.476 -27.884 -22.008  1.00  0.00     0.181 C
HETATM    6  C1  UNL     1      -2.320 -26.950 -21.454  1.00  0.00     0.158 C
HETATM    7  N9  UNL     1      -3.618 -26.735 -21.732  1.00  0.00    -0.233 N
HETATM    8  C8  UNL     1      -4.398 -27.480 -22.532  1.00  0.00     0.325 C
HETATM    9  C7  UNL     1      -4.053 -28.542 -23.363  1.00  0.00     0.328 C
HETATM   10  O5  UNL     1      -5.625 -27.182 -22.542  1.00  0.00    -0.261 OA
HETATM   11  N8  UNL     1      -2.815 -28.946 -23.713  1.00  0.00    -0.260 N
HETATM   12  O4  UNL     1      -4.987 -29.213 -23.850  1.00  0.00    -0.261 OA
HETATM   13  N7  UNL     1      -1.665 -28.635 -23.107  1.00  0.00    -0.278 N
ATOM     14  H8  UNL     1      -2.749 -29.555 -24.528  1.00  0.00     0.190 HD
ATOM     15  H7  UNL     1      -0.821 -29.017 -23.534  1.00  0.00     0.189 HD
BRANCH   6  16
HETATM   16  N1  UNL     1      -1.835 -26.168 -20.552  1.00  0.00    -0.382 N
ATOM     17  H12 UNL     1      -1.013 -26.537 -20.075  1.00  0.00     0.157 HD
ATOM     18  H11 UNL     1      -2.303 -25.275 -20.401  1.00  0.00     0.157 HD
ENDBRANCH   6  16
BRANCH   7  19
HETATM   19  C9  UNL     1      -4.199 -25.613 -21.111  1.00  0.00     0.364 C
HETATM   20  O6  UNL     1      -3.931 -24.448 -21.497  1.00  0.00    -0.283 OA
ENDBRANCH   7  19
ENDBRANCH   3   5
ENDBRANCH   1   3
BRANCH   1  21
HETATM   21  N4  UNL     1       1.647 -26.989 -21.473  1.00  0.00    -0.191 N
ATOM     22  H4  UNL     1       2.631 -27.251 -21.421  1.00  0.00     0.217 HD
BRANCH  21  23
HETATM   23  O1  UNL     1       1.241 -25.817 -20.933  1.00  0.00    -0.227 OA
BRANCH  23  24
HETATM   24  C3  UNL     1       1.415 -25.446 -19.584  1.00  0.00     0.385 C
HETATM   25  N5  UNL     1       1.244 -24.023 -19.377  1.00  0.00    -0.012 N
HETATM   26  C4  UNL     1       2.051 -23.805 -18.189  1.00  0.00     0.414 C
ATOM     27  H52 UNL     1       1.478 -23.435 -20.177  1.00  0.00     0.283 HD
ATOM     28  H51 UNL     1       0.276 -23.706 -19.311  1.00  0.00     0.283 HD
HETATM   29  C5  UNL     1       3.367 -24.461 -18.611  1.00  0.00     0.209 C
HETATM   30  C6  UNL     1       2.845 -25.765 -19.204  1.00  0.00     0.209 C
BRANCH  26  31
HETATM   31  N6  UNL     1       1.538 -24.597 -17.096  1.00  0.00    -0.047 N
ATOM     32  H63 UNL     1       1.691 -25.595 -17.240  1.00  0.00     0.276 HD
ATOM     33  H62 UNL     1       2.092 -24.484 -16.247  1.00  0.00     0.276 HD
ATOM     34  H61 UNL     1       0.553 -24.380 -16.943  1.00  0.00     0.276 HD
ENDBRANCH  26  31
BRANCH  29  35
HETATM   35  O2  UNL     1       3.966 -23.657 -19.571  1.00  0.00    -0.389 OA
ATOM     36  H2  UNL     1       4.826 -24.011 -19.762  1.00  0.00     0.210 HD
ENDBRANCH  29  35
BRANCH  30  37
HETATM   37  O3  UNL     1       2.799 -26.782 -18.259  1.00  0.00    -0.388 OA
ATOM     38  H3  UNL     1       3.470 -27.412 -18.493  1.00  0.00     0.210 HD
ENDBRANCH  30  37
ENDBRANCH  23  24
ENDBRANCH  21  23
ENDBRANCH   1  21
TORSDOF 10
ENDMDL