MODEL 4
REMARK VINA RESULT: -8.952176599      2.492      7.428
REMARK  5 active torsions:
REMARK  status: ('A' for Active; 'I' for Inactive)
REMARK    1  A    between atoms: C2_2  and  C5_5
REMARK    2  A    between atoms: C6_10  and  O1_11
REMARK    3  A    between atoms: C7_13  and  C8_14
REMARK    4  A    between atoms: C8_14  and  C9_15
REMARK    5  A    between atoms: C9_15  and  C10_16
ROOT
HETATM    1  C10 UNL     1       7.320 -20.028  -3.598  1.00  0.00     0.123 A
HETATM    2  N3  UNL     1       7.113 -19.257  -2.478  1.00  0.00    -0.284 N
ATOM      3  H3  UNL     1       7.091 -18.238  -2.459  1.00  0.00     0.188 HD
HETATM    4  N4  UNL     1       6.947 -20.035  -1.442  1.00  0.00    -0.285 N
ATOM      5  H4  UNL     1       6.776 -19.713  -0.489  1.00  0.00     0.188 HD
HETATM    6  C11 UNL     1       7.034 -21.318  -1.815  1.00  0.00     0.136 A
HETATM    7  N5  UNL     1       7.264 -21.311  -3.131  1.00  0.00    -0.317 N
HETATM    8  C12 UNL     1       7.443 -22.550  -3.834  1.00  0.00     0.159 C
HETATM    9  C13 UNL     1       7.508 -23.715  -2.919  1.00  0.00     0.254 C
HETATM   10  N6  UNL     1       6.632 -23.688  -1.808  1.00  0.00    -0.058 N
ATOM     11  H61 UNL     1       6.680 -24.555  -1.273  1.00  0.00     0.278 HD
ATOM     12  H62 UNL     1       5.657 -23.736  -2.100  1.00  0.00     0.278 HD
HETATM   13  C14 UNL     1       6.879 -22.522  -0.960  1.00  0.00     0.184 C
HETATM   14  C15 UNL     1       5.656 -22.356  -0.092  1.00  0.00     0.047 C
HETATM   15  C16 UNL     1       6.013 -22.701   1.357  1.00  0.00     0.003 C
HETATM   16  C17 UNL     1       7.054 -21.695   1.787  1.00  0.00     0.000 C
HETATM   17  C18 UNL     1       8.312 -21.955   1.023  1.00  0.00     0.003 C
HETATM   18  C19 UNL     1       8.137 -22.820  -0.182  1.00  0.00     0.047 C
ENDROOT
BRANCH   1  19
HETATM   19  C9  UNL     1       7.540 -19.481  -4.925  1.00  0.00     0.051 C
BRANCH  19  20
HETATM   20  C8  UNL     1       8.066 -18.360  -5.273  1.00  0.00     0.022 C
BRANCH  20  21
HETATM   21  C7  UNL     1       9.467 -18.120  -5.591  1.00  0.00     0.041 A
HETATM   22  C5  UNL     1      10.373 -17.441  -4.766  1.00  0.00     0.048 A
HETATM   23  N1  UNL     1      11.539 -17.434  -5.412  1.00  0.00    -0.301 N
HETATM   24  N2  UNL     1      11.430 -18.045  -6.552  1.00  0.00    -0.279 N
ATOM     25  H1  UNL     1      12.397 -17.009  -5.060  1.00  0.00     0.186 HD
HETATM   26  C6  UNL     1      10.145 -18.498  -6.718  1.00  0.00     0.167 A
ATOM     27  H2  UNL     1      12.186 -18.171  -7.225  1.00  0.00     0.189 HD
BRANCH  22  28
HETATM   28  C2  UNL     1      10.050 -16.873  -3.466  1.00  0.00    -0.006 C
HETATM   29  C1  UNL     1      11.106 -15.817  -3.127  1.00  0.00     0.021 C
HETATM   30  C3  UNL     1      10.144 -17.922  -2.354  1.00  0.00     0.021 C
HETATM   31  C4  UNL     1       8.717 -16.156  -3.428  1.00  0.00     0.021 C
ENDBRANCH  22  28
BRANCH  26  32
HETATM   32  O1  UNL     1       9.708 -19.197  -7.848  1.00  0.00    -0.344 OA
ATOM     33  H1  UNL     1       8.831 -19.549  -7.943  1.00  0.00     0.219 HD
ENDBRANCH  26  32
ENDBRANCH  20  21
ENDBRANCH  19  20
ENDBRANCH   1  19
TORSDOF 5
ENDMDL