MODEL 2
REMARK VINA RESULT: -7.484221488      1.635      2.735
REMARK  9 active torsions:
REMARK  status: ('A' for Active; 'I' for Inactive)
REMARK    1  A    between atoms: C2_2  and  C3_3
REMARK    2  A    between atoms: C3_3  and  C6_6
REMARK    3  A    between atoms: C6_6  and  C7_7
REMARK    4  A    between atoms: C7_7  and  O1_8
REMARK    5  A    between atoms: C7_7  and  C8_10
REMARK    6  A    between atoms: C8_10  and  C9_11
REMARK    7  A    between atoms: C9_11  and  C10_12
REMARK    8  A    between atoms: C10_12  and  O2_13
REMARK    9  A    between atoms: O2_13  and  C11_14
ROOT
HETATM    1  C9  UNL     1       6.704 -19.137  -2.982  1.00  0.00     0.029 C
ENDROOT
BRANCH   1   2
HETATM    2  C8  UNL     1       7.478 -18.412  -1.907  1.00  0.00     0.034 C
BRANCH   2   3
HETATM    3  C7  UNL     1       6.851 -18.567  -0.541  1.00  0.00     0.122 C
BRANCH   3   4
HETATM    4  C6  UNL     1       6.075 -19.855  -0.552  1.00  0.00     0.070 C
BRANCH   4   5
HETATM    5  C3  UNL     1       6.556 -20.906   0.335  1.00  0.00    -0.061 C
HETATM    6  C4  UNL     1       7.794 -20.989   0.758  1.00  0.00    -0.024 C
HETATM    7  C5  UNL     1       8.173 -22.108   1.683  1.00  0.00     0.036 C
BRANCH   5   8
HETATM    8  C2  UNL     1       5.588 -21.910   0.778  1.00  0.00    -0.004 C
HETATM    9  C1  UNL     1       4.488 -21.560   1.410  1.00  0.00     0.012 C
ENDBRANCH   5   8
ENDBRANCH   4   5
ENDBRANCH   3   4
BRANCH   3  10
HETATM   10  O1  UNL     1       5.976 -17.529  -0.250  1.00  0.00    -0.395 OA
ATOM     11  H1  UNL     1       5.732 -17.104  -1.064  1.00  0.00     0.210 HD
ENDBRANCH   3  10
ENDBRANCH   2   3
ENDBRANCH   1   2
BRANCH   1  12
HETATM   12  C10 UNL     1       7.552 -19.990  -3.855  1.00  0.00     0.175 C
BRANCH  12  13
HETATM   13  O2  UNL     1       6.888 -21.133  -4.233  1.00  0.00    -0.351 OA
BRANCH  13  14
HETATM   14  C11 UNL     1       6.876 -22.424  -3.836  1.00  0.00     0.075 A
HETATM   15  C12 UNL     1       7.119 -22.895  -2.571  1.00  0.00     0.044 A
HETATM   16  C13 UNL     1       7.091 -24.247  -2.227  1.00  0.00    -0.059 A
HETATM   17  C14 UNL     1       7.361 -24.705  -0.837  1.00  0.00     0.048 C
HETATM   18  C15 UNL     1       6.803 -25.139  -3.236  1.00  0.00     0.007 A
HETATM   19  C16 UNL     1       6.559 -24.682  -4.509  1.00  0.00     0.010 A
HETATM   20  C17 UNL     1       6.585 -23.357  -4.848  1.00  0.00    -0.029 A
HETATM   21  C18 UNL     1       6.311 -22.914  -6.252  1.00  0.00     0.051 C
ENDBRANCH  13  14
ENDBRANCH  12  13
ENDBRANCH   1  12
TORSDOF 9
ENDMDL