MODEL 2
REMARK VINA RESULT: -6.949535446      1.020      2.230
REMARK  7 active torsions:
REMARK  status: ('A' for Active; 'I' for Inactive)
REMARK    1  A    between atoms: C2_2  and  C3_3
REMARK    2  A    between atoms: C3_3  and  C4_4
REMARK    3  A    between atoms: C4_4  and  C5_5
REMARK    4  A    between atoms: C6_7  and  C7_8
REMARK    5  A    between atoms: C6_7  and  O2_10
REMARK    6  A    between atoms: O2_10  and  C9_11
REMARK    7  A    between atoms: C9_11  and  C10_12
ROOT
HETATM    1  O2  UNL     1       8.331 -18.489  -2.116  1.00  0.00    -0.350 OA
ENDROOT
BRANCH   1   2
HETATM    2  C6  UNL     1       9.409 -17.878  -2.653  1.00  0.00     0.055 C
HETATM    3  C4  UNL     1       9.521 -16.552  -2.812  1.00  0.00     0.009 C
BRANCH   3   4
HETATM    4  C3  UNL     1      10.716 -15.921  -3.441  1.00  0.00     0.044 C
BRANCH   4   5
HETATM    5  C2  UNL     1      10.378 -15.082  -4.654  1.00  0.00     0.000 C
HETATM    6  C1  UNL     1      11.319 -13.881  -4.679  1.00  0.00     0.005 C
ENDBRANCH   4   5
ENDBRANCH   3   4
BRANCH   3   7
HETATM    7  C5  UNL     1       8.481 -15.675  -2.291  1.00  0.00     0.268 C
HETATM    8  O1  UNL     1       8.732 -14.717  -1.494  1.00  0.00    -0.302 OA
ENDBRANCH   3   7
BRANCH   2   9
HETATM    9  C7  UNL     1      10.510 -18.800  -3.097  1.00  0.00     0.061 C
HETATM   10  C8  UNL     1      10.297 -19.161  -4.567  1.00  0.00     0.012 C
ENDBRANCH   2   9
ENDBRANCH   1   2
BRANCH   1  11
HETATM   11  C9  UNL     1       7.119 -18.950  -2.490  1.00  0.00     0.215 C
BRANCH  11  12
HETATM   12  C10 UNL     1       7.035 -20.026  -3.502  1.00  0.00    -0.022 A
HETATM   13  C11 UNL     1       6.664 -19.835  -4.796  1.00  0.00    -0.053 A
HETATM   14  C12 UNL     1       6.560 -18.470  -5.331  1.00  0.00     0.049 C
HETATM   15  C13 UNL     1       6.431 -20.907  -5.683  1.00  0.00     0.014 A
HETATM   16  C14 UNL     1       6.575 -22.203  -5.266  1.00  0.00    -0.061 A
HETATM   17  C15 UNL     1       6.310 -23.333  -6.204  1.00  0.00     0.048 C
HETATM   18  C16 UNL     1       6.957 -22.413  -3.951  1.00  0.00     0.014 A
HETATM   19  C17 UNL     1       7.184 -21.352  -3.081  1.00  0.00    -0.053 A
HETATM   20  C18 UNL     1       7.600 -21.671  -1.687  1.00  0.00     0.049 C
ENDBRANCH  11  12
ENDBRANCH   1  11
TORSDOF 7
ENDMDL