MODEL 4
REMARK VINA RESULT: -7.169013372      1.267      1.378
REMARK  10 active torsions:
REMARK  status: ('A' for Active; 'I' for Inactive)
REMARK    1  A    between atoms: C2_2  and  C3_3
REMARK    2  A    between atoms: C5_5  and  C6_6
REMARK    3  A    between atoms: C6_6  and  C7_7
REMARK    4  A    between atoms: C7_7  and  C8_8
REMARK    5  A    between atoms: C14_14  and  O1_15
REMARK    6  A    between atoms: O1_15  and  C15_16
REMARK    7  A    between atoms: C15_16  and  C16_17
REMARK    8  A    between atoms: C16_17  and  C17_18
REMARK    9  A    between atoms: C17_18  and  C18_19
REMARK   10  A    between atoms: C18_19  and  O2_20
ROOT
HETATM    1  C8  UNL     1       7.153 -23.271  -3.877  1.00  0.00    -0.024 A
HETATM    2  C9  UNL     1       6.719 -24.008  -4.953  1.00  0.00     0.010 A
HETATM    3  C10 UNL     1       6.201 -23.453  -6.088  1.00  0.00     0.001 A
HETATM    4  C11 UNL     1       6.109 -22.099  -6.161  1.00  0.00     0.009 A
HETATM    5  C12 UNL     1       6.543 -21.320  -5.076  1.00  0.00    -0.028 A
HETATM    6  C13 UNL     1       6.390 -19.867  -5.274  1.00  0.00     0.051 C
HETATM    7  C14 UNL     1       7.066 -21.862  -3.924  1.00  0.00     0.081 A
ENDROOT
BRANCH   1   8
HETATM    8  C7  UNL     1       7.745 -24.031  -2.765  1.00  0.00     0.045 C
BRANCH   8   9
HETATM    9  C6  UNL     1       6.707 -24.416  -1.723  1.00  0.00     0.032 C
BRANCH   9  10
HETATM   10  C5  UNL     1       7.262 -24.122  -0.377  1.00  0.00    -0.024 C
HETATM   11  C3  UNL     1       6.896 -23.136   0.409  1.00  0.00    -0.088 C
HETATM   12  C4  UNL     1       7.583 -22.997   1.753  1.00  0.00     0.043 C
BRANCH  11  13
HETATM   13  C2  UNL     1       5.863 -22.118   0.127  1.00  0.00     0.029 C
HETATM   14  C1  UNL     1       4.856 -21.960   1.258  1.00  0.00     0.010 C
ENDBRANCH  11  13
ENDBRANCH   9  10
ENDBRANCH   8   9
ENDBRANCH   1   8
BRANCH   7  15
HETATM   15  O1  UNL     1       7.480 -21.190  -2.878  1.00  0.00    -0.350 OA
BRANCH  15  16
HETATM   16  C15 UNL     1       7.826 -20.096  -2.241  1.00  0.00     0.176 C
BRANCH  16  17
HETATM   17  C16 UNL     1       8.767 -19.947  -1.120  1.00  0.00     0.029 C
BRANCH  17  18
HETATM   18  C17 UNL     1      10.064 -19.251  -1.384  1.00  0.00     0.028 C
BRANCH  18  19
HETATM   19  C18 UNL     1       9.915 -18.166  -2.448  1.00  0.00     0.164 C
BRANCH  19  20
HETATM   20  O2  UNL     1      10.949 -17.246  -2.405  1.00  0.00    -0.401 OA
ATOM     21  H2  UNL     1      11.276 -17.114  -1.523  1.00  0.00     0.209 HD
ENDBRANCH  19  20
ENDBRANCH  18  19
ENDBRANCH  17  18
ENDBRANCH  16  17
ENDBRANCH  15  16
ENDBRANCH   7  15
TORSDOF 10
ENDMDL