MODEL 5
REMARK VINA RESULT: -6.855683424      2.184      5.220
REMARK  10 active torsions:
REMARK  status: ('A' for Active; 'I' for Inactive)
REMARK    1  A    between atoms: C2_2  and  C3_3
REMARK    2  A    between atoms: C3_3  and  C4_4
REMARK    3  A    between atoms: C4_4  and  C5_5
REMARK    4  A    between atoms: C5_5  and  C6_6
REMARK    5  A    between atoms: C6_6  and  C7_7
REMARK    6  A    between atoms: C7_7  and  C8_9
REMARK    7  A    between atoms: C8_9  and  C9_10
REMARK    8  A    between atoms: C9_10  and  O2_11
REMARK    9  A    between atoms: C9_10  and  C10_13
REMARK   10  A    between atoms: C10_13  and  C11_14
ROOT
HETATM    1  C9  UNL     1       7.040 -18.973  -0.851  1.00  0.00     0.129 C
ENDROOT
BRANCH   1   2
HETATM    2  C8  UNL     1       7.118 -17.567  -1.361  1.00  0.00     0.110 C
BRANCH   2   3
HETATM    3  C7  UNL     1       5.790 -17.126  -1.831  1.00  0.00     0.129 C
HETATM    4  O1  UNL     1       5.030 -16.566  -1.077  1.00  0.00    -0.298 OA
BRANCH   3   5
HETATM    5  C6  UNL     1       5.361 -17.363  -3.246  1.00  0.00     0.078 C
BRANCH   5   6
HETATM    6  C5  UNL     1       6.609 -17.083  -4.085  1.00  0.00     0.007 C
BRANCH   6   7
HETATM    7  C4  UNL     1       6.662 -17.986  -5.281  1.00  0.00     0.000 C
BRANCH   7   8
HETATM    8  C3  UNL     1       6.094 -19.328  -4.909  1.00  0.00    -0.000 C
BRANCH   8   9
HETATM    9  C2  UNL     1       6.967 -20.441  -5.395  1.00  0.00    -0.005 C
HETATM   10  C1  UNL     1       6.114 -21.667  -5.691  1.00  0.00     0.005 C
ENDBRANCH   8   9
ENDBRANCH   7   8
ENDBRANCH   6   7
ENDBRANCH   5   6
ENDBRANCH   3   5
ENDBRANCH   2   3
ENDBRANCH   1   2
BRANCH   1  11
HETATM   11  O2  UNL     1       5.654 -19.355  -0.836  1.00  0.00    -0.395 OA
ATOM     12  H2  UNL     1       5.501 -19.854  -0.042  1.00  0.00     0.210 HD
ENDBRANCH   1  11
BRANCH   1  13
HETATM   13  C10 UNL     1       7.761 -19.925  -1.760  1.00  0.00     0.070 C
BRANCH  13  14
HETATM   14  C11 UNL     1       7.508 -21.316  -1.333  1.00  0.00    -0.055 A
HETATM   15  C12 UNL     1       7.151 -22.357  -2.127  1.00  0.00     0.013 A
HETATM   16  C13 UNL     1       6.921 -23.639  -1.642  1.00  0.00    -0.061 A
HETATM   17  C14 UNL     1       6.530 -24.751  -2.548  1.00  0.00     0.048 C
HETATM   18  C15 UNL     1       7.064 -23.856  -0.292  1.00  0.00     0.013 A
HETATM   19  C16 UNL     1       7.429 -22.817   0.560  1.00  0.00    -0.061 A
HETATM   20  C17 UNL     1       7.587 -23.048   2.034  1.00  0.00     0.048 C
HETATM   21  C18 UNL     1       7.648 -21.560   0.038  1.00  0.00     0.013 A
ENDBRANCH  13  14
ENDBRANCH   1  13
TORSDOF 10
ENDMDL