MODEL 5
REMARK VINA RESULT: -6.897633869      2.259      3.654
REMARK  9 active torsions:
REMARK  status: ('A' for Active; 'I' for Inactive)
REMARK    1  A    between atoms: C2_2  and  C3_3
REMARK    2  A    between atoms: C3_3  and  C4_4
REMARK    3  A    between atoms: C6_6  and  C7_7
REMARK    4  A    between atoms: C7_7  and  O1_8
REMARK    5  A    between atoms: C7_7  and  C8_10
REMARK    6  A    between atoms: C11_13  and  O2_14
REMARK    7  A    between atoms: O2_14  and  C12_15
REMARK    8  A    between atoms: C14_17  and  C15_18
REMARK    9  A    between atoms: C16_19  and  C17_20
ROOT
HETATM    1  C4  UNL     1       7.257 -21.114  -3.643  1.00  0.00    -0.041 A
HETATM    2  C5  UNL     1       6.897 -19.715  -3.963  1.00  0.00     0.022 A
HETATM    3  C6  UNL     1       6.550 -18.879  -2.878  1.00  0.00     0.000 A
HETATM    4  C10 UNL     1       6.582 -19.399  -1.624  1.00  0.00     0.052 A
HETATM    5  C11 UNL     1       6.935 -20.729  -1.334  1.00  0.00     0.080 A
HETATM    6  C14 UNL     1       7.247 -21.523  -2.396  1.00  0.00     0.004 A
ENDROOT
BRANCH   3   7
HETATM    7  C7  UNL     1       6.083 -17.638  -3.185  1.00  0.00     0.075 C
BRANCH   7   8
HETATM    8  O1  UNL     1       4.776 -17.280  -2.798  1.00  0.00    -0.360 OA
ATOM      9  H1  UNL     1       4.485 -16.384  -2.921  1.00  0.00     0.217 HD
ENDBRANCH   7   8
BRANCH   7  10
HETATM   10  C8  UNL     1       6.575 -16.400  -3.868  1.00  0.00     0.027 C
HETATM   11  C9  UNL     1       7.632 -15.739  -3.772  1.00  0.00     0.014 C
ENDBRANCH   7  10
ENDBRANCH   3   7
BRANCH   1  12
HETATM   12  C3  UNL     1       7.808 -21.838  -4.800  1.00  0.00     0.066 C
BRANCH  12  13
HETATM   13  C2  UNL     1       6.806 -22.450  -5.682  1.00  0.00    -0.032 C
HETATM   14  C1  UNL     1       6.294 -23.601  -5.829  1.00  0.00     0.007 C
ENDBRANCH  12  13
ENDBRANCH   1  12
BRANCH   5  15
HETATM   15  O2  UNL     1       6.957 -21.191   0.002  1.00  0.00    -0.351 OA
BRANCH  15  16
HETATM   16  C12 UNL     1       5.654 -21.152   0.636  1.00  0.00     0.171 C
HETATM   17  C13 UNL     1       5.458 -22.510   1.358  1.00  0.00     0.034 C
ENDBRANCH  15  16
ENDBRANCH   5  15
BRANCH   6  18
HETATM   18  C15 UNL     1       7.471 -22.980  -2.032  1.00  0.00     0.011 C
HETATM   19  C16 UNL     1       6.798 -24.024  -1.835  1.00  0.00    -0.026 C
BRANCH  19  20
HETATM   20  C17 UNL     1       7.605 -25.276  -1.447  1.00  0.00     0.022 C
HETATM   21  C18 UNL     1       8.680 -25.550  -2.466  1.00  0.00     0.009 C
ENDBRANCH  19  20
ENDBRANCH   6  18
TORSDOF 9
ENDMDL