MODEL 3
REMARK VINA RESULT: -7.219945094      2.200      4.509
REMARK  9 active torsions:
REMARK  status: ('A' for Active; 'I' for Inactive)
REMARK    1  A    between atoms: O1_2  and  C2_3
REMARK    2  A    between atoms: C9_10  and  C10_11
REMARK    3  A    between atoms: C10_11  and  C11_12
REMARK    4  A    between atoms: C11_12  and  C12_13
REMARK    5  A    between atoms: C12_13  and  C13_14
REMARK    6  A    between atoms: C13_14  and  C14_15
REMARK    7  A    between atoms: C14_15  and  C15_16
REMARK    8  A    between atoms: C15_16  and  C16_17
REMARK    9  A    between atoms: C16_17  and  O2_20
ROOT
HETATM    1  C10 UNL     1       7.398 -21.178  -3.362  1.00  0.00     0.041 C
ENDROOT
BRANCH   1   2
HETATM    2  C9  UNL     1       7.382 -21.742  -1.983  1.00  0.00    -0.024 A
HETATM    3  C2  UNL     1       6.780 -22.931  -1.667  1.00  0.00     0.075 A
HETATM    4  C3  UNL     1       6.817 -23.376  -0.369  1.00  0.00     0.044 A
HETATM    5  C4  UNL     1       7.439 -22.678   0.654  1.00  0.00    -0.053 A
HETATM    6  C5  UNL     1       7.470 -23.171   2.053  1.00  0.00     0.049 C
HETATM    7  C6  UNL     1       8.034 -21.489   0.308  1.00  0.00    -0.055 A
HETATM    8  C7  UNL     1       8.715 -20.706   1.386  1.00  0.00     0.049 C
HETATM    9  C8  UNL     1       8.005 -21.033  -0.984  1.00  0.00     0.017 A
BRANCH   3  10
HETATM   10  O1  UNL     1       6.144 -23.672  -2.647  1.00  0.00    -0.355 OA
HETATM   11  C1  UNL     1       6.737 -24.868  -3.139  1.00  0.00     0.210 C
ENDBRANCH   3  10
ENDBRANCH   1   2
BRANCH   1  12
HETATM   12  C11 UNL     1       8.237 -19.938  -3.423  1.00  0.00     0.005 C
BRANCH  12  13
HETATM   13  C12 UNL     1       7.987 -19.115  -4.650  1.00  0.00     0.000 C
BRANCH  13  14
HETATM   14  C13 UNL     1       6.518 -18.784  -4.871  1.00  0.00     0.000 C
BRANCH  14  15
HETATM   15  C14 UNL     1       6.058 -17.573  -4.152  1.00  0.00     0.003 C
BRANCH  15  16
HETATM   16  C15 UNL     1       5.339 -17.721  -2.877  1.00  0.00     0.037 C
BRANCH  16  17
HETATM   17  C16 UNL     1       5.884 -17.122  -1.646  1.00  0.00     0.051 C
HETATM   18  C17 UNL     1       7.022 -16.172  -2.099  1.00  0.00     0.045 C
HETATM   19  C18 UNL     1       6.507 -18.006  -0.623  1.00  0.00     0.045 C
BRANCH  17  20
HETATM   20  O2  UNL     1       4.965 -16.296  -0.984  1.00  0.00    -0.391 OA
ATOM     21  H2  UNL     1       4.769 -16.589  -0.102  1.00  0.00     0.210 HD
ENDBRANCH  17  20
ENDBRANCH  16  17
ENDBRANCH  15  16
ENDBRANCH  14  15
ENDBRANCH  13  14
ENDBRANCH  12  13
ENDBRANCH   1  12
TORSDOF 9
ENDMDL