MODEL 4
REMARK VINA RESULT: -6.788173937      1.998      4.950
REMARK  10 active torsions:
REMARK  status: ('A' for Active; 'I' for Inactive)
REMARK    1  A    between atoms: C2_2  and  C3_3
REMARK    2  A    between atoms: C3_3  and  C4_4
REMARK    3  A    between atoms: C4_4  and  C5_5
REMARK    4  A    between atoms: C5_5  and  O1_6
REMARK    5  A    between atoms: O1_6  and  C6_7
REMARK    6  A    between atoms: C9_10  and  C10_11
REMARK    7  A    between atoms: C10_11  and  O2_13
REMARK    8  A    between atoms: C13_16  and  C14_17
REMARK    9  A    between atoms: C14_17  and  C16_19
REMARK   10  A    between atoms: C16_19  and  C17_20
ROOT
HETATM    1  C6  UNL     1       7.255 -20.905  -3.346  1.00  0.00     0.075 A
HETATM    2  C7  UNL     1       7.783 -19.629  -3.345  1.00  0.00     0.038 A
HETATM    3  C8  UNL     1       8.020 -19.037  -4.576  1.00  0.00     0.012 A
HETATM    4  C9  UNL     1       7.736 -19.707  -5.752  1.00  0.00    -0.029 A
HETATM    5  C12 UNL     1       7.211 -20.983  -5.673  1.00  0.00     0.020 A
HETATM    6  C13 UNL     1       6.956 -21.622  -4.470  1.00  0.00    -0.020 A
ENDROOT
BRANCH   1   7
HETATM    7  O1  UNL     1       6.985 -21.489  -2.101  1.00  0.00    -0.351 OA
BRANCH   7   8
HETATM    8  C5  UNL     1       7.904 -21.299  -1.025  1.00  0.00     0.175 C
BRANCH   8   9
HETATM    9  C4  UNL     1       8.125 -22.659  -0.363  1.00  0.00     0.027 C
BRANCH   9  10
HETATM   10  C3  UNL     1       6.759 -23.276  -0.118  1.00  0.00     0.002 C
BRANCH  10  11
HETATM   11  C2  UNL     1       6.194 -22.980   1.247  1.00  0.00    -0.004 C
HETATM   12  C1  UNL     1       5.032 -22.045   1.254  1.00  0.00     0.005 C
ENDBRANCH  10  11
ENDBRANCH   9  10
ENDBRANCH   8   9
ENDBRANCH   7   8
ENDBRANCH   1   7
BRANCH   6  13
HETATM   13  C14 UNL     1       6.589 -23.044  -4.369  1.00  0.00     0.017 C
HETATM   14  C15 UNL     1       6.220 -23.496  -5.825  1.00  0.00     0.015 C
BRANCH  13  15
HETATM   15  C16 UNL     1       7.853 -23.879  -4.068  1.00  0.00     0.009 C
BRANCH  15  16
HETATM   16  C17 UNL     1       7.538 -25.198  -3.445  1.00  0.00    -0.004 C
HETATM   17  C18 UNL     1       8.661 -25.601  -2.520  1.00  0.00     0.005 C
ENDBRANCH  15  16
ENDBRANCH  13  15
ENDBRANCH   6  13
BRANCH   4  18
HETATM   18  C10 UNL     1       8.039 -18.988  -6.985  1.00  0.00     0.147 C
HETATM   19  C11 UNL     1       9.560 -18.747  -7.059  1.00  0.00     0.044 C
BRANCH  18  20
HETATM   20  O2  UNL     1       7.712 -19.725  -8.125  1.00  0.00    -0.391 OA
ATOM     21  H2  UNL     1       8.429 -19.765  -8.747  1.00  0.00     0.210 HD
ENDBRANCH  18  20
ENDBRANCH   4  18
TORSDOF 10
ENDMDL