MODEL 1
REMARK VINA RESULT: -8.329922308      0.000      0.000
REMARK  11 active torsions:
REMARK  status: ('A' for Active; 'I' for Inactive)
REMARK       I    between atoms: N1_2  and  C2_3
REMARK    1  A    between atoms: N1_2  and  C24_30
REMARK    2  A    between atoms: C2_3  and  C3_5
REMARK    3  A    between atoms: C3_5  and  C4_6
REMARK    4  A    between atoms: C4_6  and  C5_7
REMARK    5  A    between atoms: C5_7  and  C6_8
REMARK    6  A    between atoms: C6_8  and  C7_9
REMARK    7  A    between atoms: C8_10  and  C9_11
REMARK    8  A    between atoms: C12_14  and  C13_15
REMARK    9  A    between atoms: C13_15  and  C14_16
REMARK   10  A    between atoms: C20_22  and  C21_23
REMARK   11  A    between atoms: C21_23  and  C22_24
ROOT
HETATM    1  C9  UNL     1      44.811   5.124   9.687  1.00  0.00     0.087 A
HETATM    2  C10 UNL     1      44.956   6.164  10.578  1.00  0.00     0.041 A
HETATM    3  C11 UNL     1      44.876   7.316   9.832  1.00  0.00     0.028 A
HETATM    4  C12 UNL     1      44.684   7.006   8.504  1.00  0.00     0.011 A
HETATM    5  N2  UNL     1      44.653   5.660   8.470  1.00  0.00    -0.353 N
ATOM      6  H2  UNL     1      44.523   5.114   7.619  1.00  0.00     0.166 HD
ENDROOT
BRANCH   1   7
HETATM    7  C8  UNL     1      44.836   3.741  10.071  1.00  0.00    -0.049 C
HETATM    8  C7  UNL     1      44.855   2.577  10.372  1.00  0.00    -0.100 C
BRANCH   8   9
HETATM    9  C6  UNL     1      44.853   1.113  10.746  1.00  0.00     0.094 C
BRANCH   9  10
HETATM   10  C5  UNL     1      43.475   0.673  11.033  1.00  0.00     0.012 C
BRANCH  10  11
HETATM   11  C4  UNL     1      42.707   1.457  12.020  1.00  0.00     0.010 C
BRANCH  11  12
HETATM   12  C3  UNL     1      41.482   2.162  11.573  1.00  0.00     0.103 C
BRANCH  12  13
HETATM   13  C2  UNL     1      41.075   1.888  10.204  1.00  0.00     0.219 C
HETATM   14  N1  UNL     1      40.191   0.854   9.863  1.00  0.00    -0.350 N
HETATM   15  C1  UNL     1      39.863   0.655   8.448  1.00  0.00     0.153 C
HETATM   16  O1  UNL     1      41.542   2.631   9.268  1.00  0.00    -0.273 OA
BRANCH  14  17
HETATM   17  C24 UNL     1      39.594   0.010  10.840  1.00  0.00     0.113 C
HETATM   18  C25 UNL     1      40.006  -1.458  10.640  1.00  0.00     0.054 C
HETATM   19  C26 UNL     1      38.809  -2.169  11.233  1.00  0.00     0.234 C
HETATM   20  N3  UNL     1      37.680  -1.419  10.737  1.00  0.00    -0.073 N
HETATM   21  C27 UNL     1      38.105  -0.067  10.558  1.00  0.00     0.257 C
ATOM     22  H32 UNL     1      37.274  -1.823   9.894  1.00  0.00     0.277 HD
ATOM     23  H31 UNL     1      36.857  -1.500  11.334  1.00  0.00     0.277 HD
ENDBRANCH  14  17
ENDBRANCH  12  13
ENDBRANCH  11  12
ENDBRANCH  10  11
ENDBRANCH   9  10
ENDBRANCH   8   9
ENDBRANCH   1   7
BRANCH   4  24
HETATM   24  C13 UNL     1      44.550   7.931   7.347  1.00  0.00     0.067 C
BRANCH  24  25
HETATM   25  C14 UNL     1      43.257   8.640   7.279  1.00  0.00    -0.031 C
HETATM   26  C15 UNL     1      43.134   9.742   8.280  1.00  0.00     0.016 C
HETATM   27  C16 UNL     1      42.854   9.077   5.883  1.00  0.00    -0.005 C
HETATM   28  C17 UNL     1      41.431   9.537   6.146  1.00  0.00     0.006 C
HETATM   29  C23 UNL     1      42.761   7.728   5.203  1.00  0.00     0.011 C
HETATM   30  C18 UNL     1      40.959   8.790   7.396  1.00  0.00     0.006 C
HETATM   31  C19 UNL     1      42.051   7.704   7.481  1.00  0.00    -0.001 C
HETATM   32  C20 UNL     1      41.957   6.942   6.217  1.00  0.00     0.001 C
BRANCH  32  33
HETATM   33  C21 UNL     1      42.239   5.488   6.258  1.00  0.00     0.118 C
BRANCH  33  34
HETATM   34  C22 UNL     1      41.440   4.802   5.210  1.00  0.00     0.172 C
HETATM   35  O2  UNL     1      40.407   5.365   4.771  1.00  0.00    -0.648 OA
HETATM   36  O3  UNL     1      41.767   3.563   4.681  1.00  0.00    -0.648 OA
ENDBRANCH  33  34
ENDBRANCH  32  33
ENDBRANCH  24  25
ENDBRANCH   4  24
TORSDOF 11
ENDMDL