MODEL 5
REMARK VINA RESULT: -7.740742207      2.287      6.648
REMARK  9 active torsions:
REMARK  status: ('A' for Active; 'I' for Inactive)
REMARK    1  A    between atoms: C2_2  and  C3_3
REMARK    2  A    between atoms: C3_3  and  C4_4
REMARK    3  A    between atoms: C4_4  and  C5_5
REMARK    4  A    between atoms: C5_5  and  C6_6
REMARK    5  A    between atoms: C6_6  and  C7_7
REMARK    6  A    between atoms: C7_7  and  C8_8
REMARK    7  A    between atoms: C8_8  and  N1_9
REMARK       I    between atoms: N1_9  and  C9_11
REMARK    8  A    between atoms: C11_15  and  C12_16
REMARK       I    between atoms: N6_32  and  C24_33
REMARK    9  A    between atoms: C24_33  and  C25_35
ROOT
HETATM    1  C5  UNL     1      41.781   1.766   9.354  1.00  0.00    -0.033 C
HETATM    2  C10 UNL     1      41.510   3.076  10.078  1.00  0.00     0.020 C
HETATM    3  C11 UNL     1      41.347   4.021   8.944  1.00  0.00    -0.034 C
HETATM    4  C15 UNL     1      42.467   3.485   8.033  1.00  0.00     0.018 C
HETATM    5  C16 UNL     1      41.809   2.115   7.870  1.00  0.00     0.029 C
HETATM    6  C17 UNL     1      40.538   2.507   7.278  1.00  0.00     0.085 C
HETATM    7  C18 UNL     1      40.085   3.631   8.190  1.00  0.00     0.048 C
HETATM    8  C19 UNL     1      40.658   3.152   5.913  1.00  0.00     0.062 A
HETATM    9  N4  UNL     1      41.567   3.463   5.019  1.00  0.00    -0.352 N
ATOM     10  H4  UNL     1      42.569   3.299   5.110  1.00  0.00     0.166 HD
HETATM   11  C20 UNL     1      40.962   4.029   3.967  1.00  0.00     0.181 A
HETATM   12  N5  UNL     1      39.648   4.067   4.219  1.00  0.00    -0.354 N
ATOM     13  H5  UNL     1      38.942   4.447   3.588  1.00  0.00     0.166 HD
HETATM   14  C21 UNL     1      39.396   3.528   5.424  1.00  0.00     0.037 A
HETATM   15  C22 UNL     1      38.112   3.295   6.121  1.00  0.00     0.079 C
HETATM   16  C23 UNL     1      38.174   2.037   6.986  1.00  0.00     0.133 C
HETATM   17  N6  UNL     1      39.536   1.533   6.976  1.00  0.00    -0.336 N
HETATM   18  C24 UNL     1      39.771   0.222   6.594  1.00  0.00     0.220 C
HETATM   19  O1  UNL     1      40.930  -0.298   6.427  1.00  0.00    -0.273 OA
ENDROOT
BRANCH   1  20
HETATM   20  C4  UNL     1      43.117   1.262   9.759  1.00  0.00     0.010 C
BRANCH  20  21
HETATM   21  C3  UNL     1      43.645   1.847  11.047  1.00  0.00     0.000 C
BRANCH  21  22
HETATM   22  C2  UNL     1      45.161   2.008  10.820  1.00  0.00    -0.005 C
HETATM   23  C1  UNL     1      45.430   3.366  10.201  1.00  0.00     0.005 C
ENDBRANCH  21  22
ENDBRANCH  20  21
ENDBRANCH   1  20
BRANCH   1  24
HETATM   24  C6  UNL     1      40.745   0.810   9.795  1.00  0.00     0.011 C
BRANCH  24  25
HETATM   25  C7  UNL     1      40.186   1.227  11.137  1.00  0.00     0.020 C
BRANCH  25  26
HETATM   26  C8  UNL     1      39.025   0.271  11.475  1.00  0.00     0.122 C
BRANCH  26  27
HETATM   27  N1  UNL     1      37.878   0.573  10.639  1.00  0.00    -0.367 N
HETATM   28  C9  UNL     1      37.255  -0.328   9.963  1.00  0.00     0.196 C
HETATM   29  N2  UNL     1      36.144   0.070   9.174  1.00  0.00    -0.067 NA
HETATM   30  N3  UNL     1      37.680  -1.666  10.020  1.00  0.00    -0.067 NA
ATOM     31  H1  UNL     1      37.553   1.538  10.585  1.00  0.00     0.161 HD
ENDBRANCH  26  27
ENDBRANCH  25  26
ENDBRANCH  24  25
ENDBRANCH   1  24
BRANCH   3  32
HETATM   32  C12 UNL     1      41.475   5.454   9.229  1.00  0.00    -0.014 C
HETATM   33  C13 UNL     1      40.873   6.280   8.120  1.00  0.00     0.010 C
HETATM   34  C14 UNL     1      42.857   5.934   9.509  1.00  0.00     0.010 C
ENDBRANCH   3  32
BRANCH  18  35
HETATM   35  C25 UNL     1      38.658  -0.764   6.323  1.00  0.00     0.098 C
HETATM   36  C26 UNL     1      39.088  -2.190   6.572  1.00  0.00     0.014 C
ENDBRANCH  18  35
TORSDOF 9
ENDMDL