MODEL 1
REMARK VINA RESULT: -7.770467056      0.000      0.000
REMARK  10 active torsions:
REMARK  status: ('A' for Active; 'I' for Inactive)
REMARK    1  A    between atoms: C2_2  and  C4_4
REMARK    2  A    between atoms: C4_4  and  C5_5
REMARK    3  A    between atoms: C7_10  and  C8_11
REMARK    4  A    between atoms: C8_11  and  C9_12
REMARK    5  A    between atoms: C9_12  and  C10_13
REMARK    6  A    between atoms: C10_13  and  C11_14
REMARK    7  A    between atoms: C11_14  and  C12_15
REMARK    8  A    between atoms: C12_15  and  C13_16
REMARK    9  A    between atoms: C15_23  and  C16_24
REMARK   10  A    between atoms: C16_24  and  C17_25
ROOT
HETATM    1  C5  UNL     1      45.119   5.499   9.580  1.00  0.00     0.154 C
HETATM    2  N1  UNL     1      43.783   5.733   9.998  1.00  0.00    -0.348 N
ATOM      3  H1  UNL     1      43.671   5.997  10.976  1.00  0.00     0.163 HD
HETATM    4  C6  UNL     1      42.594   5.651   9.257  1.00  0.00     0.241 C
HETATM    5  O1  UNL     1      41.628   6.388   9.619  1.00  0.00    -0.271 OA
HETATM    6  C7  UNL     1      42.317   4.803   8.089  1.00  0.00     0.176 C
HETATM    7  N2  UNL     1      41.071   4.076   8.277  1.00  0.00    -0.347 N
ATOM      8  H2  UNL     1      40.252   4.666   8.420  1.00  0.00     0.163 HD
HETATM    9  C14 UNL     1      40.811   2.724   8.295  1.00  0.00     0.222 C
HETATM   10  O4  UNL     1      39.941   2.260   7.505  1.00  0.00    -0.273 OA
HETATM   11  C15 UNL     1      41.463   1.662   9.182  1.00  0.00     0.078 C
HETATM   12  C21 UNL     1      41.619   2.156  10.564  1.00  0.00     0.014 C
HETATM   13  C22 UNL     1      42.979   2.276  11.136  1.00  0.00     0.001 C
HETATM   14  C23 UNL     1      44.153   2.130  10.257  1.00  0.00     0.007 C
HETATM   15  C24 UNL     1      45.208   3.149  10.730  1.00  0.00     0.080 C
HETATM   16  C25 UNL     1      45.562   4.091   9.627  1.00  0.00     0.149 C
HETATM   17  O5  UNL     1      46.259   3.623   8.740  1.00  0.00    -0.296 OA
ENDROOT
BRANCH   6  18
HETATM   18  C8  UNL     1      42.221   5.594   6.794  1.00  0.00     0.035 C
BRANCH  18  19
HETATM   19  C9  UNL     1      43.145   6.751   6.690  1.00  0.00     0.002 C
BRANCH  19  20
HETATM   20  C10 UNL     1      42.696   7.544   5.451  1.00  0.00     0.001 C
BRANCH  20  21
HETATM   21  C11 UNL     1      42.286   8.947   5.855  1.00  0.00     0.010 C
BRANCH  21  22
HETATM   22  C12 UNL     1      40.904   9.286   5.363  1.00  0.00     0.113 C
BRANCH  22  23
HETATM   23  C13 UNL     1      39.864   8.333   5.764  1.00  0.00     0.172 C
HETATM   24  O2  UNL     1      39.189   7.740   4.889  1.00  0.00    -0.648 OA
HETATM   25  O3  UNL     1      39.572   8.037   7.092  1.00  0.00    -0.648 OA
ENDBRANCH  22  23
ENDBRANCH  21  22
ENDBRANCH  20  21
ENDBRANCH  19  20
ENDBRANCH  18  19
ENDBRANCH   6  18
BRANCH   1  26
HETATM   26  C4  UNL     1      46.106   6.268  10.449  1.00  0.00     0.037 C
BRANCH  26  27
HETATM   27  C2  UNL     1      47.161   6.962   9.637  1.00  0.00    -0.020 C
HETATM   28  C1  UNL     1      47.979   7.948  10.395  1.00  0.00     0.009 C
HETATM   29  C3  UNL     1      46.480   7.693   8.491  1.00  0.00     0.009 C
ENDBRANCH  26  27
ENDBRANCH   1  26
BRANCH  11  30
HETATM   30  C16 UNL     1      40.595   0.436   9.142  1.00  0.00     0.022 C
BRANCH  30  31
HETATM   31  C17 UNL     1      41.160  -0.892   8.970  1.00  0.00    -0.051 C
HETATM   32  C18 UNL     1      42.430  -0.657   8.067  1.00  0.00     0.014 C
HETATM   33  C19 UNL     1      40.438  -1.964   8.252  1.00  0.00     0.014 C
HETATM   34  C20 UNL     1      41.747  -1.499  10.232  1.00  0.00     0.014 C
ENDBRANCH  30  31
ENDBRANCH  11  30
TORSDOF 10
ENDMDL