MODEL 5
REMARK VINA RESULT: -8.476549019      1.969      3.969
REMARK  8 active torsions:
REMARK  status: ('A' for Active; 'I' for Inactive)
REMARK    1  A    between atoms: C2_2  and  C4_4
REMARK    2  A    between atoms: C4_4  and  C5_5
REMARK    3  A    between atoms: C5_5  and  N1_6
REMARK       I    between atoms: N1_6  and  C6_8
REMARK    4  A    between atoms: C6_8  and  C7_10
REMARK    5  A    between atoms: C7_10  and  C9_12
REMARK       I    between atoms: C9_12  and  N2_14
REMARK       I    between atoms: N2_14  and  C10_16
REMARK    6  A    between atoms: C10_16  and  C11_18
REMARK    7  A    between atoms: C11_18  and  N3_19
REMARK       I    between atoms: N3_19  and  C12_21
REMARK    8  A    between atoms: C12_21  and  C13_23
ROOT
HETATM    1  C11 UNL     1      43.248   2.835  10.078  1.00  0.00     0.114 C
HETATM    2  C23 UNL     1      44.135   1.656   9.876  1.00  0.00     0.041 C
HETATM    3  C24 UNL     1      43.756   0.613  10.868  1.00  0.00     0.003 C
HETATM    4  C25 UNL     1      43.214   1.420  12.029  1.00  0.00     0.003 C
HETATM    5  C26 UNL     1      42.401   2.471  11.303  1.00  0.00     0.041 C
ENDROOT
BRANCH   1   6
HETATM    6  C10 UNL     1      42.287   3.025   8.963  1.00  0.00     0.252 C
HETATM    7  N2  UNL     1      42.497   2.553   7.662  1.00  0.00    -0.295 N
HETATM    8  C9  UNL     1      41.654   2.679   6.546  1.00  0.00     0.237 C
ATOM      9  H2  UNL     1      43.373   2.054   7.505  1.00  0.00     0.171 HD
HETATM   10  O2  UNL     1      42.079   2.187   5.456  1.00  0.00    -0.272 OA
HETATM   11  O3  UNL     1      41.237   3.650   9.236  1.00  0.00    -0.270 OA
BRANCH   8  12
HETATM   12  C7  UNL     1      40.334   3.324   6.533  1.00  0.00     0.166 C
HETATM   13  C8  UNL     1      39.219   2.355   6.879  1.00  0.00     0.030 C
BRANCH  12  14
HETATM   14  C6  UNL     1      40.029   3.843   5.178  1.00  0.00     0.230 C
HETATM   15  N1  UNL     1      39.404   2.998   4.199  1.00  0.00    -0.360 N
ATOM     16  H1  UNL     1      39.173   2.035   4.444  1.00  0.00     0.162 HD
HETATM   17  O1  UNL     1      40.284   5.011   4.803  1.00  0.00    -0.273 OA
BRANCH  15  18
HETATM   18  C5  UNL     1      39.100   3.482   2.882  1.00  0.00     0.123 C
BRANCH  18  19
HETATM   19  C4  UNL     1      38.406   2.372   2.100  1.00  0.00     0.023 C
BRANCH  19  20
HETATM   20  C2  UNL     1      37.442   2.997   1.113  1.00  0.00    -0.021 C
HETATM   21  C1  UNL     1      36.184   3.342   1.896  1.00  0.00     0.009 C
HETATM   22  C3  UNL     1      37.157   2.026   0.005  1.00  0.00     0.009 C
ENDBRANCH  19  20
ENDBRANCH  18  19
ENDBRANCH  15  18
ENDBRANCH  12  14
ENDBRANCH   8  12
ENDBRANCH   1   6
BRANCH   1  23
HETATM   23  N3  UNL     1      44.031   4.000  10.354  1.00  0.00    -0.342 N
HETATM   24  C12 UNL     1      44.755   4.739   9.408  1.00  0.00     0.227 C
HETATM   25  O4  UNL     1      44.769   4.410   8.196  1.00  0.00    -0.273 OA
ATOM     26  H3  UNL     1      44.066   4.320  11.322  1.00  0.00     0.163 HD
BRANCH  24  27
HETATM   27  C13 UNL     1      45.541   5.943   9.781  1.00  0.00     0.042 C
HETATM   28  C14 UNL     1      45.384   6.979   8.687  1.00  0.00     0.024 C
HETATM   29  C15 UNL     1      46.261   8.161   8.950  1.00  0.00    -0.013 C
HETATM   30  C16 UNL     1      47.692   7.726   9.092  1.00  0.00     0.009 C
HETATM   31  C20 UNL     1      45.759   8.835  10.217  1.00  0.00     0.009 C
HETATM   32  C17 UNL     1      47.789   6.784  10.255  1.00  0.00    -0.013 C
HETATM   33  C18 UNL     1      47.267   7.411  11.531  1.00  0.00     0.009 C
HETATM   34  C22 UNL     1      46.968   5.536   9.998  1.00  0.00     0.024 C
HETATM   35  C19 UNL     1      45.828   7.824  11.319  1.00  0.00    -0.013 C
HETATM   36  C21 UNL     1      45.022   6.582  11.050  1.00  0.00     0.024 C
ENDBRANCH  24  27
ENDBRANCH   1  23
TORSDOF 8
ENDMDL