MODEL 2
REMARK VINA RESULT: -8.309271060      4.016      9.352
REMARK  10 active torsions:
REMARK  status: ('A' for Active; 'I' for Inactive)
REMARK    1  A    between atoms: C3_3  and  O1_4
REMARK    2  A    between atoms: C9_11  and  C10_12
REMARK    3  A    between atoms: C10_12  and  C11_13
REMARK    4  A    between atoms: C11_13  and  C12_14
REMARK    5  A    between atoms: C12_14  and  C13_15
REMARK    6  A    between atoms: C13_15  and  C14_16
REMARK    7  A    between atoms: C14_16  and  C15_17
REMARK    8  A    between atoms: C15_17  and  N1_18
REMARK       I    between atoms: N1_18  and  C16_19
REMARK    9  A    between atoms: C16_19  and  C17_21
REMARK       I    between atoms: C17_21  and  N2_23
REMARK   10  A    between atoms: N2_23  and  C18_25
ROOT
HETATM    1  C1  UNL     1      40.152   3.438   5.175  1.00  0.00     0.015 C
HETATM    2  C2  UNL     1      40.596   2.842   6.098  1.00  0.00    -0.079 C
HETATM    3  C3  UNL     1      41.137   2.076   7.224  1.00  0.00     0.124 C
HETATM    4  C4  UNL     1      40.677   0.625   7.146  1.00  0.00     0.057 C
HETATM    5  C5  UNL     1      39.702   0.290   8.273  1.00  0.00    -0.002 C
HETATM    6  C6  UNL     1      38.576   1.293   8.154  1.00  0.00     0.006 C
HETATM    7  C7  UNL     1      39.146   2.646   8.450  1.00  0.00     0.009 C
HETATM    8  C8  UNL     1      40.648   2.616   8.552  1.00  0.00     0.037 C
HETATM    9  C9  UNL     1      41.156   1.668   9.621  1.00  0.00     0.002 C
HETATM   10  C23 UNL     1      40.411   0.373   9.636  1.00  0.00    -0.033 C
HETATM   11  C24 UNL     1      41.344  -0.846   9.675  1.00  0.00     0.010 C
HETATM   12  C25 UNL     1      41.060  -1.784  10.798  1.00  0.00     0.001 C
HETATM   13  C26 UNL     1      39.674  -2.329  10.639  1.00  0.00     0.000 C
HETATM   14  C27 UNL     1      38.720  -1.197  10.476  1.00  0.00     0.001 C
HETATM   15  C28 UNL     1      39.404   0.166  10.693  1.00  0.00     0.010 C
ENDROOT
BRANCH   3  16
HETATM   16  O1  UNL     1      42.535   2.137   7.119  1.00  0.00    -0.377 OA
ATOM     17  H1  UNL     1      42.871   2.247   8.001  1.00  0.00     0.211 HD
ENDBRANCH   3  16
BRANCH   9  18
HETATM   18  C10 UNL     1      41.546   2.297  10.882  1.00  0.00     0.006 C
BRANCH  18  19
HETATM   19  C11 UNL     1      42.706   1.811  11.656  1.00  0.00     0.000 C
BRANCH  19  20
HETATM   20  C12 UNL     1      43.825   1.388  10.735  1.00  0.00     0.000 C
BRANCH  20  21
HETATM   21  C13 UNL     1      45.133   2.136  11.092  1.00  0.00     0.006 C
BRANCH  21  22
HETATM   22  C14 UNL     1      45.374   3.116   9.987  1.00  0.00     0.060 C
BRANCH  22  23
HETATM   23  C15 UNL     1      45.019   4.542  10.253  1.00  0.00     0.159 C
BRANCH  23  24
HETATM   24  N1  UNL     1      43.870   5.049   9.733  1.00  0.00    -0.380 NA
HETATM   25  C16 UNL     1      42.717   5.557   9.216  1.00  0.00     0.383 C
HETATM   26  O2  UNL     1      41.672   5.906   9.860  1.00  0.00    -0.246 OA
BRANCH  25  27
HETATM   27  C17 UNL     1      42.569   5.759   7.750  1.00  0.00     0.324 C
HETATM   28  O3  UNL     1      43.221   4.995   6.971  1.00  0.00    -0.261 OA
HETATM   29  N2  UNL     1      41.737   6.757   7.267  1.00  0.00    -0.347 N
ATOM     30  H2  UNL     1      41.235   7.309   7.963  1.00  0.00     0.163 HD
BRANCH  29  31
HETATM   31  C18 UNL     1      41.505   7.099   5.875  1.00  0.00     0.085 C
HETATM   32  C19 UNL     1      42.042   8.423   5.511  1.00  0.00     0.025 C
HETATM   33  C20 UNL     1      40.872   9.296   5.179  1.00  0.00     0.002 C
HETATM   34  C21 UNL     1      39.640   8.625   5.731  1.00  0.00     0.002 C
HETATM   35  C22 UNL     1      39.974   7.165   5.731  1.00  0.00     0.025 C
ENDBRANCH  29  31
ENDBRANCH  25  27
ENDBRANCH  23  24
ENDBRANCH  22  23
ENDBRANCH  21  22
ENDBRANCH  20  21
ENDBRANCH  19  20
ENDBRANCH  18  19
ENDBRANCH   9  18
TORSDOF 10
ENDMDL