MODEL 1
REMARK VINA RESULT: -9.478433225      0.000      0.000
REMARK  11 active torsions:
REMARK  status: ('A' for Active; 'I' for Inactive)
REMARK    1  A    between atoms: C2_2  and  C3_3
REMARK    2  A    between atoms: C3_3  and  C4_4
REMARK    3  A    between atoms: C4_4  and  N1_5
REMARK    4  A    between atoms: C4_4  and  C21_30
REMARK    5  A    between atoms: N1_5  and  C5_7
REMARK    6  A    between atoms: C9_13  and  N3_14
REMARK    7  A    between atoms: C10_16  and  C11_17
REMARK    8  A    between atoms: C14_20  and  C15_21
REMARK    9  A    between atoms: C15_21  and  N4_22
REMARK   10  A    between atoms: C21_30  and  N6_32
REMARK   11  A    between atoms: N6_32  and  C23_34
ROOT
HETATM    1  C5  UNL     1      46.463   4.821  10.344  1.00  0.00     0.119 A
HETATM    2  C6  UNL     1      45.234   5.423  10.048  1.00  0.00     0.073 A
HETATM    3  C7  UNL     1      44.149   4.641   9.755  1.00  0.00     0.026 A
HETATM    4  C8  UNL     1      42.816   5.273   9.432  1.00  0.00     0.069 C
HETATM    5  N2  UNL     1      44.265   3.302   9.753  1.00  0.00    -0.196 N
ATOM      6  H2  UNL     1      43.445   2.737   9.534  1.00  0.00     0.184 HD
HETATM    7  C9  UNL     1      45.421   2.684  10.029  1.00  0.00     0.683 A
HETATM    8  N5  UNL     1      46.498   3.502  10.321  1.00  0.00    -0.177 N
ATOM      9  H5  UNL     1      47.387   3.051  10.534  1.00  0.00     0.186 HD
ENDROOT
BRANCH   1  10
HETATM   10  N1  UNL     1      47.466   5.585  10.614  1.00  0.00    -0.369 N
ATOM     11  H1  UNL     1      48.407   5.190  10.601  1.00  0.00     0.161 HD
BRANCH  10  12
HETATM   12  C4  UNL     1      47.300   6.952  10.928  1.00  0.00     0.108 C
BRANCH  12  13
HETATM   13  C3  UNL     1      48.231   7.880  10.182  1.00  0.00     0.053 C
BRANCH  13  14
HETATM   14  C2  UNL     1      47.690   8.279   8.872  1.00  0.00    -0.035 C
HETATM   15  C1  UNL     1      47.866   9.535   8.468  1.00  0.00     0.007 C
ENDBRANCH  13  14
ENDBRANCH  12  13
BRANCH  12  16
HETATM   16  C21 UNL     1      47.428   7.211  12.454  1.00  0.00     0.095 C
HETATM   17  C22 UNL     1      46.152   7.880  12.845  1.00  0.00     0.034 C
BRANCH  16  18
HETATM   18  N6  UNL     1      48.612   7.973  12.590  1.00  0.00    -0.411 N
ATOM     19  H6  UNL     1      48.881   8.628  11.856  1.00  0.00     0.154 HD
BRANCH  18  20
HETATM   20  C23 UNL     1      49.419   7.832  13.728  1.00  0.00     0.077 C
HETATM   21  C24 UNL     1      49.444   9.110  14.516  1.00  0.00     0.024 C
HETATM   22  C25 UNL     1      50.445   9.053  15.656  1.00  0.00     0.002 C
HETATM   23  C26 UNL     1      49.961   7.893  16.536  1.00  0.00     0.000 C
HETATM   24  C27 UNL     1      50.161   6.631  15.734  1.00  0.00     0.002 C
HETATM   25  C28 UNL     1      49.190   6.619  14.582  1.00  0.00     0.024 C
ENDBRANCH  18  20
ENDBRANCH  16  18
ENDBRANCH  12  16
ENDBRANCH  10  12
ENDBRANCH   1  10
BRANCH   7  26
HETATM   26  N3  UNL     1      45.576   1.452  10.036  1.00  0.00    -0.205 N
HETATM   27  C10 UNL     1      45.108   0.247  10.453  1.00  0.00     0.083 C
ATOM     28  H3  UNL     1      46.418   1.263   9.493  1.00  0.00     0.183 HD
BRANCH  27  29
HETATM   29  C11 UNL     1      43.636   0.039  10.696  1.00  0.00     0.025 C
HETATM   30  C12 UNL     1      43.042   1.024  11.648  1.00  0.00     0.010 C
HETATM   31  C13 UNL     1      41.610   1.387  11.267  1.00  0.00     0.007 C
HETATM   32  C14 UNL     1      40.825   0.237  10.743  1.00  0.00     0.014 C
HETATM   33  C19 UNL     1      41.518  -0.362   9.543  1.00  0.00     0.007 C
HETATM   34  C20 UNL     1      42.867   0.278   9.367  1.00  0.00     0.010 C
BRANCH  32  35
HETATM   35  C15 UNL     1      39.405   0.623  10.382  1.00  0.00     0.277 C
BRANCH  35  36
HETATM   36  N4  UNL     1      38.437  -0.158  11.100  1.00  0.00     0.088 N
HETATM   37  C16 UNL     1      38.851  -1.561  11.156  1.00  0.00     0.274 C
HETATM   38  C17 UNL     1      38.077  -1.835   9.912  1.00  0.00     0.060 C
HETATM   39  C18 UNL     1      37.285  -0.609  10.349  1.00  0.00     0.274 C
ENDBRANCH  35  36
ENDBRANCH  32  35
ENDBRANCH  27  29
ENDBRANCH   7  26
TORSDOF 11
ENDMDL