MODEL 2
REMARK VINA RESULT: -8.546214404      0.976      1.071
REMARK  11 active torsions:
REMARK  status: ('A' for Active; 'I' for Inactive)
REMARK    1  A    between atoms: C2_2  and  C4_4
REMARK    2  A    between atoms: C4_4  and  C5_5
REMARK    3  A    between atoms: C5_5  and  N1_6
REMARK    4  A    between atoms: C5_5  and  C13_16
REMARK       I    between atoms: N1_6  and  C6_8
REMARK    5  A    between atoms: C6_8  and  C7_10
REMARK       I    between atoms: C13_16  and  N2_18
REMARK    6  A    between atoms: N2_18  and  C14_20
REMARK    7  A    between atoms: C14_20  and  C15_21
REMARK    8  A    between atoms: C14_20  and  C22_32
REMARK    9  A    between atoms: C15_21  and  O3_22
REMARK   10  A    between atoms: C15_21  and  N3_24
REMARK   11  A    between atoms: N3_24  and  C16_26
ROOT
HETATM    1  C13 UNL     1      43.535   6.248   8.576  1.00  0.00     0.241 C
HETATM    2  O2  UNL     1      42.874   6.426   9.612  1.00  0.00    -0.271 OA
HETATM    3  N2  UNL     1      44.842   5.862   8.593  1.00  0.00    -0.347 N
ATOM      4  H2  UNL     1      45.223   5.781   7.650  1.00  0.00     0.163 HD
ENDROOT
BRANCH   3   5
HETATM    5  C14 UNL     1      45.819   5.539   9.590  1.00  0.00     0.163 C
BRANCH   5   6
HETATM    6  C15 UNL     1      46.200   4.157   9.600  1.00  0.00     0.135 C
BRANCH   6   7
HETATM    7  O3  UNL     1      47.477   3.950   9.326  1.00  0.00    -0.348 OA
ATOM      8  H3  UNL     1      47.847   4.576   8.714  1.00  0.00     0.219 HD
ENDBRANCH   6   7
BRANCH   6   9
HETATM    9  N3  UNL     1      45.543   2.951   9.829  1.00  0.00    -0.368 N
ATOM     10  H3  UNL     1      45.964   2.101   9.455  1.00  0.00     0.161 HD
BRANCH   9  11
HETATM   11  C16 UNL     1      44.278   2.819  10.577  1.00  0.00     0.083 C
HETATM   12  C17 UNL     1      44.397   1.609  11.421  1.00  0.00     0.025 C
HETATM   13  C18 UNL     1      43.124   0.921  11.758  1.00  0.00     0.002 C
HETATM   14  C19 UNL     1      41.969   1.883  11.641  1.00  0.00     0.000 C
HETATM   15  C20 UNL     1      41.862   2.269  10.181  1.00  0.00     0.002 C
HETATM   16  C21 UNL     1      43.127   2.873   9.655  1.00  0.00     0.025 C
ENDBRANCH   9  11
ENDBRANCH   6   9
ENDBRANCH   5   6
BRANCH   5  17
HETATM   17  C22 UNL     1      46.939   6.576   9.476  1.00  0.00     0.016 C
HETATM   18  C23 UNL     1      47.188   7.346  10.747  1.00  0.00     0.007 C
HETATM   19  C24 UNL     1      46.098   8.260  11.177  1.00  0.00     0.000 C
HETATM   20  C25 UNL     1      45.493   9.036  10.024  1.00  0.00     0.000 C
HETATM   21  C26 UNL     1      46.469   8.994   8.887  1.00  0.00     0.000 C
HETATM   22  C27 UNL     1      46.525   7.543   8.387  1.00  0.00     0.007 C
ENDBRANCH   5  17
ENDBRANCH   3   5
BRANCH   1  23
HETATM   23  C5  UNL     1      42.744   6.501   7.316  1.00  0.00     0.177 C
BRANCH  23  24
HETATM   24  C4  UNL     1      43.455   7.302   6.316  1.00  0.00     0.038 C
BRANCH  24  25
HETATM   25  C2  UNL     1      42.896   8.562   5.806  1.00  0.00    -0.020 C
HETATM   26  C1  UNL     1      43.122   9.604   6.926  1.00  0.00     0.009 C
HETATM   27  C3  UNL     1      41.441   8.597   5.509  1.00  0.00     0.009 C
ENDBRANCH  24  25
ENDBRANCH  23  24
BRANCH  23  28
HETATM   28  N1  UNL     1      42.085   5.311   6.845  1.00  0.00    -0.347 N
HETATM   29  C6  UNL     1      40.679   5.101   6.979  1.00  0.00     0.222 C
HETATM   30  O1  UNL     1      39.968   5.993   7.537  1.00  0.00    -0.273 OA
ATOM     31  H1  UNL     1      42.646   4.587   6.397  1.00  0.00     0.163 HD
BRANCH  29  32
HETATM   32  C7  UNL     1      40.004   3.882   6.495  1.00  0.00     0.078 C
HETATM   33  C8  UNL     1      40.886   2.665   6.676  1.00  0.00     0.014 C
HETATM   34  C9  UNL     1      40.154   1.382   6.327  1.00  0.00     0.001 C
HETATM   35  C10 UNL     1      38.861   1.284   7.127  1.00  0.00     0.000 C
HETATM   36  C11 UNL     1      38.737   2.477   8.061  1.00  0.00     0.001 C
HETATM   37  C12 UNL     1      38.694   3.707   7.218  1.00  0.00     0.014 C
ENDBRANCH  29  32
ENDBRANCH  23  28
ENDBRANCH   1  23
TORSDOF 11
ENDMDL