MODEL 4
REMARK VINA RESULT: -8.559054171      0.856      2.026
REMARK  11 active torsions:
REMARK  status: ('A' for Active; 'I' for Inactive)
REMARK    1  A    between atoms: C4_4  and  N1_5
REMARK    2  A    between atoms: N1_5  and  C5_7
REMARK    3  A    between atoms: C5_7  and  C6_8
REMARK    4  A    between atoms: C6_8  and  C7_9
REMARK    5  A    between atoms: C7_9  and  C8_10
REMARK       I    between atoms: C8_10  and  N2_12
REMARK    6  A    between atoms: N2_12  and  C9_14
REMARK    7  A    between atoms: C9_14  and  C10_15
REMARK    8  A    between atoms: C22_29  and  N4_30
REMARK    9  A    between atoms: N4_30  and  C23_32
REMARK   10  A    between atoms: C23_32  and  C24_33
REMARK   11  A    between atoms: C24_33  and  C25_34
ROOT
HETATM    1  C5  UNL     1      42.261   5.281   7.889  1.00  0.00     0.121 C
ENDROOT
BRANCH   1   2
HETATM    2  N1  UNL     1      43.679   5.250   7.726  1.00  0.00    -0.376 N
ATOM      3  H1  UNL     1      44.075   5.658   6.879  1.00  0.00     0.161 HD
BRANCH   2   4
HETATM    4  C4  UNL     1      44.499   4.728   8.599  1.00  0.00     0.118 A
HETATM    5  C3  UNL     1      44.193   3.607   9.333  1.00  0.00     0.073 A
HETATM    6  C2  UNL     1      45.073   3.093  10.255  1.00  0.00     0.026 A
HETATM    7  C1  UNL     1      44.753   1.866  11.064  1.00  0.00     0.069 C
HETATM    8  N5  UNL     1      46.271   3.701  10.449  1.00  0.00    -0.196 N
HETATM    9  C22 UNL     1      46.557   4.786   9.734  1.00  0.00     0.679 A
ATOM     10  H5  UNL     1      46.937   3.334  11.128  1.00  0.00     0.184 HD
HETATM   11  N3  UNL     1      45.690   5.301   8.815  1.00  0.00    -0.177 N
ATOM     12  H3  UNL     1      45.951   6.134   8.287  1.00  0.00     0.185 HD
BRANCH   9  13
HETATM   13  N4  UNL     1      47.682   5.392   9.896  1.00  0.00    -0.226 N
ATOM     14  H4  UNL     1      48.555   4.887   9.741  1.00  0.00     0.177 HD
BRANCH  13  15
HETATM   15  C23 UNL     1      47.721   6.776  10.294  1.00  0.00     0.138 C
BRANCH  15  16
HETATM   16  C24 UNL     1      48.547   7.616   9.361  1.00  0.00     0.024 C
BRANCH  16  17
HETATM   17  C25 UNL     1      47.748   8.681   8.689  1.00  0.00    -0.021 C
HETATM   18  C26 UNL     1      48.409  10.028   8.674  1.00  0.00     0.009 C
HETATM   19  C27 UNL     1      46.420   8.825   9.442  1.00  0.00     0.009 C
ENDBRANCH  16  17
ENDBRANCH  15  16
ENDBRANCH  13  15
ENDBRANCH   9  13
ENDBRANCH   2   4
ENDBRANCH   1   2
BRANCH   1  20
HETATM   20  C6  UNL     1      41.465   5.345   6.631  1.00  0.00     0.029 C
BRANCH  20  21
HETATM   21  C7  UNL     1      41.845   4.374   5.571  1.00  0.00     0.104 C
BRANCH  21  22
HETATM   22  C8  UNL     1      41.459   2.970   5.815  1.00  0.00     0.217 C
HETATM   23  O1  UNL     1      40.398   2.555   5.251  1.00  0.00    -0.274 OA
HETATM   24  N2  UNL     1      42.211   2.089   6.639  1.00  0.00    -0.360 N
ATOM     25  H2  UNL     1      43.063   2.410   7.099  1.00  0.00     0.162 HD
BRANCH  24  26
HETATM   26  C9  UNL     1      41.754   0.745   6.814  1.00  0.00     0.132 C
BRANCH  26  27
HETATM   27  C10 UNL     1      41.240   0.447   8.185  1.00  0.00    -0.023 C
HETATM   28  C11 UNL     1      40.758   1.689   8.904  1.00  0.00     0.015 C
HETATM   29  C12 UNL     1      40.205   1.280  10.247  1.00  0.00    -0.012 C
HETATM   30  C13 UNL     1      39.025   0.361  10.105  1.00  0.00     0.014 C
HETATM   31  C19 UNL     1      41.239   0.604  11.106  1.00  0.00     0.014 C
HETATM   32  C14 UNL     1      39.504  -0.895   9.397  1.00  0.00    -0.042 C
HETATM   33  C15 UNL     1      38.300  -1.769   9.175  1.00  0.00     0.015 C
HETATM   34  C16 UNL     1      40.604  -1.593  10.150  1.00  0.00     0.018 C
HETATM   35  C21 UNL     1      40.052  -0.484   8.046  1.00  0.00     0.020 C
HETATM   36  C17 UNL     1      41.737  -0.622  10.361  1.00  0.00    -0.042 C
HETATM   37  C18 UNL     1      42.819  -1.306  11.154  1.00  0.00     0.015 C
HETATM   38  C20 UNL     1      42.318  -0.162   9.051  1.00  0.00     0.020 C
ENDBRANCH  26  27
ENDBRANCH  24  26
ENDBRANCH  21  22
ENDBRANCH  20  21
ENDBRANCH   1  20
TORSDOF 11
ENDMDL