MODEL 5
REMARK VINA RESULT: -7.423200915      4.018      6.695
REMARK  10 active torsions:
REMARK  status: ('A' for Active; 'I' for Inactive)
REMARK    1  A    between atoms: C2_2  and  N1_3
REMARK       I    between atoms: N1_3  and  C3_4
REMARK    2  A    between atoms: N1_3  and  C15_22
REMARK    3  A    between atoms: C3_4  and  C4_6
REMARK    4  A    between atoms: C7_9  and  N2_10
REMARK       I    between atoms: N2_10  and  C8_12
REMARK       I    between atoms: C8_12  and  N3_14
REMARK    5  A    between atoms: N3_14  and  C9_16
REMARK    6  A    between atoms: C15_22  and  C16_23
REMARK    7  A    between atoms: C15_22  and  C24_34
REMARK       I    between atoms: C16_23  and  N4_25
REMARK    8  A    between atoms: N4_25  and  C17_27
REMARK    9  A    between atoms: C17_27  and  C19_29
REMARK   10  A    between atoms: C17_27  and  C21_31
ROOT
HETATM    1  N1  UNL     1      42.964   6.474   8.576  1.00  0.00    -0.338 N
HETATM    2  C3  UNL     1      44.131   5.807   8.933  1.00  0.00     0.226 C
HETATM    3  O1  UNL     1      45.223   6.131   8.328  1.00  0.00    -0.273 OA
ENDROOT
BRANCH   1   4
HETATM    4  C2  UNL     1      41.732   6.017   9.290  1.00  0.00     0.122 C
HETATM    5  C1  UNL     1      41.060   4.937   8.503  1.00  0.00     0.026 C
ENDBRANCH   1   4
BRANCH   1   6
HETATM    6  C15 UNL     1      42.706   7.533   7.643  1.00  0.00     0.182 C
BRANCH   6   7
HETATM    7  C16 UNL     1      43.253   8.824   8.140  1.00  0.00     0.241 C
HETATM    8  O3  UNL     1      42.702   9.940   7.879  1.00  0.00    -0.271 OA
HETATM    9  N4  UNL     1      44.423   8.852   8.921  1.00  0.00    -0.350 N
ATOM     10  H4  UNL     1      44.879   7.968   9.144  1.00  0.00     0.163 HD
BRANCH   9  11
HETATM   11  C17 UNL     1      45.011  10.072   9.422  1.00  0.00     0.032 C
HETATM   12  C18 UNL     1      46.103  10.464   8.401  1.00  0.00     0.039 C
BRANCH  11  13
HETATM   13  C19 UNL     1      44.107  11.232   9.565  1.00  0.00     0.026 C
HETATM   14  C20 UNL     1      44.768  12.544   9.921  1.00  0.00     0.007 C
ENDBRANCH  11  13
BRANCH  11  15
HETATM   15  C21 UNL     1      45.807   9.748  10.675  1.00  0.00     0.005 C
HETATM   16  C22 UNL     1      47.299   9.792  10.289  1.00  0.00     0.012 C
HETATM   17  C23 UNL     1      45.531   8.420  11.275  1.00  0.00     0.012 C
ENDBRANCH  11  15
ENDBRANCH   9  11
ENDBRANCH   6   7
BRANCH   6  18
HETATM   18  C24 UNL     1      42.938   7.246   6.210  1.00  0.00     0.009 C
HETATM   19  C25 UNL     1      43.306   8.334   5.275  1.00  0.00     0.012 C
HETATM   20  C26 UNL     1      41.867   6.405   5.562  1.00  0.00     0.012 C
ENDBRANCH   6  18
ENDBRANCH   1   6
BRANCH   2  21
HETATM   21  C4  UNL     1      44.306   4.758   9.943  1.00  0.00     0.101 A
HETATM   22  C5  UNL     1      45.795   4.647  10.325  1.00  0.00     0.018 A
HETATM   23  C6  UNL     1      45.692   3.182  10.075  1.00  0.00     0.027 A
HETATM   24  C7  UNL     1      44.219   3.321   9.651  1.00  0.00     0.099 A
BRANCH  24  25
HETATM   25  N2  UNL     1      43.448   2.536  10.611  1.00  0.00    -0.338 N
HETATM   26  C8  UNL     1      42.410   1.696  10.164  1.00  0.00     0.316 C
HETATM   27  O2  UNL     1      42.106   1.574   8.956  1.00  0.00    -0.247 OA
HETATM   28  N3  UNL     1      41.629   0.922  11.079  1.00  0.00    -0.339 N
ATOM     29  H3  UNL     1      41.863   0.976  12.070  1.00  0.00     0.164 HD
ATOM     30  H2  UNL     1      43.661   2.597  11.607  1.00  0.00     0.164 HD
BRANCH  28  31
HETATM   31  C9  UNL     1      40.538   0.075  10.696  1.00  0.00     0.086 C
HETATM   32  C10 UNL     1      39.286   0.346  11.469  1.00  0.00     0.025 C
HETATM   33  C11 UNL     1      38.199  -0.661  11.256  1.00  0.00     0.002 C
HETATM   34  C12 UNL     1      38.697  -2.074  11.248  1.00  0.00     0.000 C
HETATM   35  C13 UNL     1      39.788  -2.196  10.186  1.00  0.00     0.002 C
HETATM   36  C14 UNL     1      40.950  -1.382  10.714  1.00  0.00     0.025 C
ENDBRANCH  28  31
ENDBRANCH  24  25
ENDBRANCH   2  21
TORSDOF 10
ENDMDL