MODEL 1
REMARK VINA RESULT: -8.798503098      0.000      0.000
REMARK  9 active torsions:
REMARK  status: ('A' for Active; 'I' for Inactive)
REMARK    1  A    between atoms: C2_2  and  C4_4
REMARK    2  A    between atoms: C4_4  and  C5_5
REMARK    3  A    between atoms: C5_5  and  N1_6
REMARK    4  A    between atoms: C5_5  and  C12_16
REMARK       I    between atoms: N1_6  and  C6_8
REMARK       I    between atoms: C6_8  and  N2_10
REMARK       I    between atoms: C12_16  and  N3_18
REMARK    5  A    between atoms: N3_18  and  C13_20
REMARK    6  A    between atoms: C13_20  and  C14_21
REMARK       I    between atoms: C14_21  and  N4_23
REMARK    7  A    between atoms: N4_23  and  C15_25
REMARK    8  A    between atoms: C15_25  and  C16_26
REMARK    9  A    between atoms: C15_25  and  C20_32
ROOT
HETATM    1  C13 UNL     1      40.318   3.844   6.187  1.00  0.00     0.117 C
HETATM    2  C23 UNL     1      38.975   4.081   6.903  1.00  0.00     0.046 C
HETATM    3  C24 UNL     1      37.992   4.313   5.804  1.00  0.00    -0.011 C
HETATM    4  C25 UNL     1      37.691   2.965   5.188  1.00  0.00     0.005 C
HETATM    5  C26 UNL     1      38.957   2.642   4.399  1.00  0.00     0.008 C
HETATM    6  C27 UNL     1      39.908   3.725   4.742  1.00  0.00     0.024 C
HETATM    7  C28 UNL     1      38.902   4.914   4.718  1.00  0.00     0.012 C
ENDROOT
BRANCH   1   8
HETATM    8  N3  UNL     1      41.116   5.069   6.252  1.00  0.00    -0.341 N
HETATM    9  C12 UNL     1      41.865   5.513   7.337  1.00  0.00     0.241 C
HETATM   10  O2  UNL     1      41.949   4.884   8.427  1.00  0.00    -0.271 OA
ATOM     11  H3  UNL     1      41.124   5.657   5.418  1.00  0.00     0.163 HD
BRANCH   9  12
HETATM   12  C5  UNL     1      42.625   6.796   7.249  1.00  0.00     0.178 C
BRANCH  12  13
HETATM   13  C4  UNL     1      42.686   7.199   5.815  1.00  0.00     0.038 C
BRANCH  13  14
HETATM   14  C2  UNL     1      42.277   8.627   5.560  1.00  0.00    -0.020 C
HETATM   15  C1  UNL     1      40.747   8.666   5.433  1.00  0.00     0.009 C
HETATM   16  C3  UNL     1      42.639   9.542   6.699  1.00  0.00     0.009 C
ENDBRANCH  13  14
ENDBRANCH  12  13
BRANCH  12  17
HETATM   17  N1  UNL     1      43.940   6.682   7.849  1.00  0.00    -0.330 N
HETATM   18  C6  UNL     1      44.230   7.094   9.163  1.00  0.00     0.319 C
HETATM   19  O1  UNL     1      43.278   7.584   9.832  1.00  0.00    -0.247 OA
HETATM   20  N2  UNL     1      45.503   6.988   9.749  1.00  0.00    -0.334 N
HETATM   21  C7  UNL     1      46.662   6.449   9.083  1.00  0.00     0.127 C
HETATM   22  C11 UNL     1      45.716   7.443  11.127  1.00  0.00     0.127 C
HETATM   23  C8  UNL     1      47.875   7.381   9.204  1.00  0.00     0.020 C
HETATM   24  C9  UNL     1      48.110   7.812  10.615  1.00  0.00     0.003 C
HETATM   25  C10 UNL     1      47.116   7.206  11.585  1.00  0.00     0.020 C
ATOM     26  H1  UNL     1      44.693   6.283   7.289  1.00  0.00     0.165 HD
ENDBRANCH  12  17
ENDBRANCH   9  12
ENDBRANCH   1   8
BRANCH   1  27
HETATM   27  C14 UNL     1      41.063   2.733   6.747  1.00  0.00     0.247 C
HETATM   28  O3  UNL     1      42.042   2.248   6.067  1.00  0.00    -0.271 OA
HETATM   29  N4  UNL     1      40.861   2.081   7.988  1.00  0.00    -0.348 N
ATOM     30  H4  UNL     1      40.108   2.409   8.594  1.00  0.00     0.163 HD
BRANCH  29  31
HETATM   31  C15 UNL     1      41.686   0.958   8.440  1.00  0.00     0.138 C
BRANCH  31  32
HETATM   32  C16 UNL     1      42.590   1.349   9.543  1.00  0.00     0.032 A
HETATM   33  C17 UNL     1      42.777   0.692  10.746  1.00  0.00     0.028 A
HETATM   34  C18 UNL     1      43.702   1.356  11.529  1.00  0.00     0.019 A
HETATM   35  C19 UNL     1      44.084   2.457  10.761  1.00  0.00     0.088 A
HETATM   36  N5  UNL     1      43.415   2.432   9.595  1.00  0.00    -0.367 N
ATOM     37  H5  UNL     1      43.512   3.125   8.853  1.00  0.00     0.165 HD
ENDBRANCH  31  32
BRANCH  31  38
HETATM   38  C20 UNL     1      40.867  -0.268   8.728  1.00  0.00     0.006 C
HETATM   39  C21 UNL     1      41.305  -1.495   8.008  1.00  0.00     0.012 C
HETATM   40  C22 UNL     1      39.412   0.070   8.518  1.00  0.00     0.012 C
ENDBRANCH  31  38
ENDBRANCH  29  31
ENDBRANCH   1  27
TORSDOF 9
ENDMDL