MODEL 5
REMARK VINA RESULT: -7.983860337      4.579      7.304
REMARK  10 active torsions:
REMARK  status: ('A' for Active; 'I' for Inactive)
REMARK    1  A    between atoms: C6_6  and  N1_7
REMARK    2  A    between atoms: N1_7  and  S1_9
REMARK    3  A    between atoms: S1_9  and  N2_12
REMARK    4  A    between atoms: N2_12  and  C7_14
REMARK    5  A    between atoms: C7_14  and  C8_15
REMARK    6  A    between atoms: C7_14  and  C12_19
REMARK    7  A    between atoms: C8_15  and  C9_16
REMARK    8  A    between atoms: C12_19  and  N3_20
REMARK    9  A    between atoms: C12_19  and  C23_33
REMARK   10  A    between atoms: N3_20  and  C13_23
REMARK       I    between atoms: C23_33  and  N4_34
ROOT
HETATM    1  C7  UNL     1      46.241   8.267  10.025  1.00  0.00     0.135 C
ENDROOT
BRANCH   1   2
HETATM    2  N2  UNL     1      45.027   7.746  10.646  1.00  0.00    -0.295 N
ATOM      3  H2  UNL     1      44.732   7.964  11.598  1.00  0.00     0.174 HD
BRANCH   2   4
HETATM    4  S1  UNL     1      44.157   6.721   9.576  1.00  0.00     0.319 S
HETATM    5  O1  UNL     1      44.663   5.283   9.658  1.00  0.00    -0.182 OA
HETATM    6  O2  UNL     1      42.697   6.747  10.023  1.00  0.00    -0.182 OA
BRANCH   4   7
HETATM    7  N1  UNL     1      44.256   7.167   7.922  1.00  0.00    -0.267 N
ATOM      8  H1  UNL     1      45.139   7.011   7.437  1.00  0.00     0.180 HD
BRANCH   7   9
HETATM    9  C6  UNL     1      43.170   7.746   7.177  1.00  0.00     0.055 A
HETATM   10  C4  UNL     1      42.972   9.095   7.097  1.00  0.00    -0.034 A
HETATM   11  C3  UNL     1      41.882   9.571   6.378  1.00  0.00     0.015 A
HETATM   12  C5  UNL     1      43.911  10.053   7.771  1.00  0.00     0.050 C
HETATM   13  C2  UNL     1      40.975   8.762   5.733  1.00  0.00    -0.061 A
HETATM   14  C1  UNL     1      39.803   9.289   4.971  1.00  0.00     0.048 C
HETATM   15  C26 UNL     1      41.196   7.402   5.828  1.00  0.00     0.015 A
HETATM   16  C24 UNL     1      42.264   6.909   6.531  1.00  0.00    -0.034 A
HETATM   17  C25 UNL     1      42.474   5.438   6.601  1.00  0.00     0.050 C
ENDBRANCH   7   9
ENDBRANCH   4   7
ENDBRANCH   2   4
ENDBRANCH   1   2
BRANCH   1  18
HETATM   18  C8  UNL     1      46.348   9.751  10.329  1.00  0.00     0.032 C
BRANCH  18  19
HETATM   19  C9  UNL     1      47.656  10.405  10.178  1.00  0.00    -0.021 C
HETATM   20  C10 UNL     1      47.802  11.685  10.969  1.00  0.00     0.009 C
HETATM   21  C11 UNL     1      47.893  10.805   8.704  1.00  0.00     0.009 C
ENDBRANCH  18  19
ENDBRANCH   1  18
BRANCH   1  22
HETATM   22  C12 UNL     1      47.515   7.710  10.687  1.00  0.00     0.300 C
BRANCH  22  23
HETATM   23  N3  UNL     1      47.199   6.914  11.863  1.00  0.00    -0.051 N
ATOM     24  H32 UNL     1      46.192   6.770  11.944  1.00  0.00     0.279 HD
ATOM     25  H31 UNL     1      47.496   5.946  11.739  1.00  0.00     0.279 HD
BRANCH  23  26
HETATM   26  C13 UNL     1      47.738   7.464  13.077  1.00  0.00     0.128 C
HETATM   27  C14 UNL     1      46.742   8.358  13.782  1.00  0.00     0.043 C
HETATM   28  C15 UNL     1      47.297   8.876  15.092  1.00  0.00    -0.012 C
HETATM   29  C16 UNL     1      48.582   9.657  14.927  1.00  0.00     0.009 C
HETATM   30  C20 UNL     1      47.638   7.724  16.006  1.00  0.00     0.009 C
HETATM   31  C17 UNL     1      49.522   8.804  14.143  1.00  0.00    -0.012 C
HETATM   32  C18 UNL     1      49.914   7.602  14.963  1.00  0.00     0.009 C
HETATM   33  C22 UNL     1      48.921   8.387  12.805  1.00  0.00     0.043 C
HETATM   34  C19 UNL     1      48.650   6.843  15.308  1.00  0.00    -0.012 C
HETATM   35  C21 UNL     1      48.088   6.322  13.988  1.00  0.00     0.043 C
ENDBRANCH  23  26
ENDBRANCH  22  23
BRANCH  22  36
HETATM   36  C23 UNL     1      47.991   6.705   9.642  1.00  0.00     0.248 C
HETATM   37  N4  UNL     1      47.605   5.394   9.464  1.00  0.00    -0.368 N
ATOM     38  H42 UNL     1      46.910   5.012  10.105  1.00  0.00     0.159 HD
ATOM     39  H41 UNL     1      47.923   4.722   8.765  1.00  0.00     0.159 HD
HETATM   40  O3  UNL     1      48.857   7.181   8.842  1.00  0.00    -0.271 OA
ENDBRANCH  22  36
ENDBRANCH   1  22
TORSDOF 10
ENDMDL