MODEL 5
REMARK VINA RESULT: -8.247349552      0.998      1.059
REMARK  10 active torsions:
REMARK  status: ('A' for Active; 'I' for Inactive)
REMARK    1  A    between atoms: C15_15  and  C16_16
REMARK    2  A    between atoms: C16_16  and  C17_17
REMARK    3  A    between atoms: C17_17  and  C18_18
REMARK    4  A    between atoms: C17_17  and  N1_24
REMARK    5  A    between atoms: C18_18  and  C19_19
REMARK    6  A    between atoms: C19_19  and  C20_20
REMARK    7  A    between atoms: C20_20  and  C21_22
REMARK       I    between atoms: N1_24  and  C22_26
REMARK    8  A    between atoms: C22_26  and  C23_28
REMARK    9  A    between atoms: C23_28  and  N2_29
REMARK   10  A    between atoms: N2_29  and  N3_31
ROOT
HETATM    1  C16 UNL     1      45.429   4.456   9.503  1.00  0.00     0.052 C
ENDROOT
BRANCH   1   2
HETATM    2  C15 UNL     1      44.028   4.265   9.931  1.00  0.00    -0.022 C
HETATM    3  C14 UNL     1      43.583   3.197  10.572  1.00  0.00    -0.079 C
HETATM    4  C13 UNL     1      44.468   2.044  10.953  1.00  0.00     0.034 C
HETATM    5  C24 UNL     1      42.191   2.945  10.968  1.00  0.00     0.019 C
HETATM    6  C12 UNL     1      43.583   1.178  11.796  1.00  0.00     0.010 C
HETATM    7  C11 UNL     1      42.174   1.469  11.387  1.00  0.00    -0.002 C
HETATM    8  C10 UNL     1      41.691   0.674  10.222  1.00  0.00    -0.005 C
HETATM    9  C9  UNL     1      42.474  -0.544   9.900  1.00  0.00     0.006 C
HETATM   10  C26 UNL     1      41.856   1.635   9.082  1.00  0.00    -0.001 C
HETATM   11  C8  UNL     1      42.142  -1.121   8.572  1.00  0.00     0.006 C
HETATM   12  C7  UNL     1      41.832  -0.161   7.480  1.00  0.00    -0.002 C
HETATM   13  C5  UNL     1      41.129   1.101   7.898  1.00  0.00    -0.036 C
HETATM   14  C27 UNL     1      41.010  -0.921   6.444  1.00  0.00     0.038 C
HETATM   15  C4  UNL     1      39.657   0.949   8.055  1.00  0.00     0.014 C
HETATM   16  C6  UNL     1      41.357   2.112   6.762  1.00  0.00     0.016 C
HETATM   17  C3  UNL     1      39.115  -0.433   8.058  1.00  0.00     0.034 C
HETATM   18  C2  UNL     1      39.714  -1.348   7.070  1.00  0.00    -0.089 C
HETATM   19  C1  UNL     1      39.201  -2.495   6.687  1.00  0.00     0.014 C
HETATM   20  C25 UNL     1      41.380   2.924   9.656  1.00  0.00     0.015 C
ENDBRANCH   1   2
BRANCH   1  21
HETATM   21  C17 UNL     1      45.881   5.872   9.385  1.00  0.00     0.088 C
BRANCH  21  22
HETATM   22  C18 UNL     1      46.711   6.182  10.648  1.00  0.00     0.033 C
BRANCH  22  23
HETATM   23  C19 UNL     1      46.017   7.143  11.559  1.00  0.00     0.081 C
BRANCH  23  24
HETATM   24  C20 UNL     1      46.482   8.510  11.180  1.00  0.00     0.137 C
HETATM   25  O1  UNL     1      45.570   9.345  11.088  1.00  0.00    -0.297 OA
BRANCH  24  26
HETATM   26  C21 UNL     1      47.887   8.884  10.920  1.00  0.00     0.164 C
HETATM   27  S1  UNL     1      48.081   9.079   9.111  1.00  0.00    -0.090 SA
ENDBRANCH  24  26
ENDBRANCH  23  24
ENDBRANCH  22  23
ENDBRANCH  21  22
BRANCH  21  28
HETATM   28  N1  UNL     1      44.776   6.830   9.344  1.00  0.00    -0.355 N
HETATM   29  C22 UNL     1      44.429   7.477   8.117  1.00  0.00     0.237 C
HETATM   30  O2  UNL     1      45.062   7.223   7.088  1.00  0.00    -0.272 OA
ATOM     31  H1  UNL     1      44.252   7.037  10.195  1.00  0.00     0.162 HD
BRANCH  29  32
HETATM   32  C23 UNL     1      43.278   8.453   8.175  1.00  0.00     0.243 C
BRANCH  32  33
HETATM   33  N2  UNL     1      43.730   9.689   8.801  1.00  0.00    -0.314 N
ATOM     34  H2  UNL     1      43.219  10.093   9.586  1.00  0.00     0.182 HD
BRANCH  33  35
HETATM   35  N3  UNL     1      44.862  10.298   8.307  1.00  0.00    -0.253 N
HETATM   36  N4  UNL     1      45.261  11.359   8.854  1.00  0.00    -0.331 N
ATOM     37  H42 UNL     1      44.745  11.745   9.645  1.00  0.00     0.178 HD
ATOM     38  H41 UNL     1      46.099  11.810   8.489  1.00  0.00     0.178 HD
ATOM     39  H3  UNL     1      45.366   9.899   7.515  1.00  0.00     0.207 HD
ENDBRANCH  33  35
ENDBRANCH  32  33
ENDBRANCH  29  32
ENDBRANCH  21  28
ENDBRANCH   1  21
TORSDOF 10
ENDMDL