MODEL 3
REMARK VINA RESULT: -8.754016047      4.546     11.986
REMARK  10 active torsions:
REMARK  status: ('A' for Active; 'I' for Inactive)
REMARK    1  A    between atoms: C2_2  and  C3_3
REMARK    2  A    between atoms: C3_3  and  C5_5
REMARK    3  A    between atoms: C5_5  and  N1_6
REMARK    4  A    between atoms: C5_5  and  C6_10
REMARK       I    between atoms: C6_10  and  N2_12
REMARK    5  A    between atoms: N2_12  and  C7_14
REMARK       I    between atoms: N3_18  and  C11_19
REMARK       I    between atoms: C11_19  and  N4_21
REMARK    6  A    between atoms: N4_21  and  C12_23
REMARK    7  A    between atoms: C12_23  and  C13_24
REMARK    8  A    between atoms: C12_23  and  C22_36
REMARK       I    between atoms: C13_24  and  N5_26
REMARK    9  A    between atoms: N5_26  and  C14_28
REMARK   10  A    between atoms: C14_28  and  C15_29
ROOT
HETATM    1  C7  UNL     1      42.262   6.373   7.213  1.00  0.00     0.102 C
HETATM    2  C8  UNL     1      42.080   4.882   7.190  1.00  0.00     0.028 C
HETATM    3  C9  UNL     1      43.199   4.188   7.904  1.00  0.00     0.022 C
HETATM    4  C10 UNL     1      43.184   4.681   9.351  1.00  0.00     0.127 C
HETATM    5  N3  UNL     1      43.576   6.101   9.262  1.00  0.00    -0.332 N
HETATM    6  C11 UNL     1      44.763   6.493   9.872  1.00  0.00     0.319 C
HETATM    7  O2  UNL     1      45.472   5.649  10.541  1.00  0.00    -0.247 OA
HETATM    8  N4  UNL     1      45.316   7.808   9.832  1.00  0.00    -0.329 N
ATOM      9  H4  UNL     1      44.838   8.554   9.326  1.00  0.00     0.165 HD
HETATM   10  C27 UNL     1      42.675   6.942   8.547  1.00  0.00     0.152 C
ENDROOT
BRANCH   8  11
HETATM   11  C12 UNL     1      46.561   8.071  10.517  1.00  0.00     0.182 C
BRANCH  11  12
HETATM   12  C13 UNL     1      46.309   8.273  11.955  1.00  0.00     0.244 C
HETATM   13  O3  UNL     1      45.595   9.233  12.317  1.00  0.00    -0.271 OA
HETATM   14  N5  UNL     1      46.848   7.402  12.945  1.00  0.00    -0.335 N
ATOM     15  H5  UNL     1      47.415   6.632  12.590  1.00  0.00     0.168 HD
BRANCH  14  16
HETATM   16  C14 UNL     1      46.708   7.456  14.340  1.00  0.00     0.091 C
BRANCH  16  17
HETATM   17  C15 UNL     1      47.886   7.155  15.178  1.00  0.00     0.020 C
HETATM   18  C16 UNL     1      49.108   7.521  15.022  1.00  0.00    -0.079 C
HETATM   19  C17 UNL     1      50.160   7.090  16.022  1.00  0.00     0.034 C
HETATM   20  C21 UNL     1      49.612   8.353  13.916  1.00  0.00     0.034 C
HETATM   21  C18 UNL     1      50.536   8.393  16.741  1.00  0.00     0.004 C
HETATM   22  C19 UNL     1      49.982   9.609  16.048  1.00  0.00     0.001 C
HETATM   23  C20 UNL     1      50.205   9.599  14.549  1.00  0.00     0.004 C
ENDBRANCH  16  17
ENDBRANCH  14  16
ENDBRANCH  11  12
BRANCH  11  24
HETATM   24  C22 UNL     1      47.092   9.373   9.952  1.00  0.00     0.018 C
HETATM   25  C23 UNL     1      46.127  10.144   9.128  1.00  0.00     0.007 C
HETATM   26  C24 UNL     1      47.031  11.056   8.292  1.00  0.00     0.000 C
HETATM   27  C25 UNL     1      48.404  10.480   8.356  1.00  0.00     0.000 C
HETATM   28  C26 UNL     1      48.213   9.103   8.946  1.00  0.00     0.007 C
ENDBRANCH  11  24
ENDBRANCH   8  11
BRANCH   1  29
HETATM   29  N2  UNL     1      40.990   6.992   6.792  1.00  0.00    -0.353 N
HETATM   30  C6  UNL     1      40.948   7.995   5.818  1.00  0.00     0.249 C
HETATM   31  O1  UNL     1      42.053   8.356   5.318  1.00  0.00    -0.271 OA
ATOM     32  H2  UNL     1      40.120   6.680   7.221  1.00  0.00     0.163 HD
BRANCH  30  33
HETATM   33  C5  UNL     1      39.704   8.640   5.351  1.00  0.00     0.278 C
BRANCH  33  34
HETATM   34  C3  UNL     1      39.908  10.114   5.039  1.00  0.00     0.021 C
HETATM   35  C4  UNL     1      39.869  10.942   6.306  1.00  0.00     0.012 C
BRANCH  34  36
HETATM   36  C2  UNL     1      38.808  10.536   4.078  1.00  0.00     0.002 C
HETATM   37  C1  UNL     1      39.159  11.740   3.272  1.00  0.00     0.005 C
ENDBRANCH  34  36
ENDBRANCH  33  34
BRANCH  33  38
HETATM   38  N1  UNL     1      38.633   8.445   6.293  1.00  0.00    -0.066 N
ATOM     39  H13 UNL     1      38.675   9.126   7.052  1.00  0.00     0.275 HD
ATOM     40  H12 UNL     1      37.731   8.709   5.895  1.00  0.00     0.275 HD
ATOM     41  H11 UNL     1      38.620   7.489   6.649  1.00  0.00     0.275 HD
ENDBRANCH  33  38
ENDBRANCH  30  33
ENDBRANCH   1  29
TORSDOF 10
ENDMDL