MODEL 4
REMARK VINA RESULT: -8.784055810      3.463     10.350
REMARK  10 active torsions:
REMARK  status: ('A' for Active; 'I' for Inactive)
REMARK    1  A    between atoms: C18_18  and  C19_19
REMARK    2  A    between atoms: C19_19  and  C20_20
REMARK    3  A    between atoms: C20_20  and  C21_21
REMARK    4  A    between atoms: C22_25  and  C23_26
REMARK    5  A    between atoms: C23_26  and  C24_27
REMARK    6  A    between atoms: C24_27  and  C25_28
REMARK    7  A    between atoms: C25_28  and  N2_29
REMARK    8  A    between atoms: C28_36  and  C29_37
REMARK    9  A    between atoms: C29_37  and  C30_38
REMARK   10  A    between atoms: C30_38  and  O2_39
ROOT
HETATM    1  C21 UNL     1      45.271   4.081   9.565  1.00  0.00     0.198 C
HETATM    2  N1  UNL     1      46.504   4.781  10.010  1.00  0.00    -0.059 N
ATOM      3  H11 UNL     1      47.361   4.375   9.634  1.00  0.00     0.278 HD
ATOM      4  H12 UNL     1      46.721   4.636  10.997  1.00  0.00     0.278 HD
HETATM    5  C22 UNL     1      46.323   6.187   9.657  1.00  0.00     0.255 C
HETATM    6  C27 UNL     1      44.855   6.351   9.739  1.00  0.00     0.163 C
HETATM    7  O1  UNL     1      44.229   7.208  10.238  1.00  0.00    -0.295 OA
HETATM    8  C28 UNL     1      44.384   5.118   9.011  1.00  0.00     0.090 C
ENDROOT
BRANCH   1   9
HETATM    9  C20 UNL     1      44.855   3.258  10.705  1.00  0.00     0.034 C
BRANCH   9  10
HETATM   10  C19 UNL     1      44.646   1.805  10.557  1.00  0.00     0.007 C
BRANCH  10  11
HETATM   11  C18 UNL     1      43.325   1.340  11.181  1.00  0.00    -0.006 C
HETATM   12  C2  UNL     1      42.554   0.408  10.275  1.00  0.00    -0.036 C
HETATM   13  C1  UNL     1      42.836  -1.035  10.689  1.00  0.00     0.016 C
HETATM   14  C3  UNL     1      42.793   0.625   8.817  1.00  0.00     0.010 C
HETATM   15  C15 UNL     1      41.130   0.700  10.691  1.00  0.00    -0.001 C
HETATM   16  C4  UNL     1      41.784   0.038   7.903  1.00  0.00     0.010 C
HETATM   17  C5  UNL     1      40.637  -0.614   8.590  1.00  0.00     0.023 C
HETATM   18  C6  UNL     1      39.597  -0.884   7.573  1.00  0.00    -0.047 A
HETATM   19  C14 UNL     1      40.094   0.123   9.786  1.00  0.00    -0.001 C
HETATM   20  C7  UNL     1      39.556  -2.080   6.899  1.00  0.00     0.008 A
HETATM   21  C11 UNL     1      38.645   0.048   7.264  1.00  0.00    -0.051 A
HETATM   22  C8  UNL     1      38.568  -2.325   5.932  1.00  0.00     0.001 A
HETATM   23  C9  UNL     1      37.624  -1.363   5.647  1.00  0.00     0.001 A
HETATM   24  C10 UNL     1      37.668  -0.163   6.325  1.00  0.00     0.007 A
HETATM   25  C12 UNL     1      38.726   1.328   8.021  1.00  0.00     0.039 C
HETATM   26  C13 UNL     1      38.968   1.066   9.484  1.00  0.00     0.010 C
HETATM   27  C16 UNL     1      41.091   2.199  10.796  1.00  0.00     0.006 C
HETATM   28  C17 UNL     1      42.430   2.527  11.420  1.00  0.00     0.006 C
ENDBRANCH  10  11
ENDBRANCH   9  10
ENDBRANCH   1   9
BRANCH   8  29
HETATM   29  C29 UNL     1      42.924   4.953   9.080  1.00  0.00     0.040 C
BRANCH  29  30
HETATM   30  C30 UNL     1      42.446   4.140   7.868  1.00  0.00     0.165 C
BRANCH  30  31
HETATM   31  O2  UNL     1      42.933   4.762   6.720  1.00  0.00    -0.401 OA
ATOM     32  H2  UNL     1      42.329   5.457   6.488  1.00  0.00     0.209 HD
ENDBRANCH  30  31
ENDBRANCH  29  30
ENDBRANCH   8  29
BRANCH   5  33
HETATM   33  C23 UNL     1      47.133   7.095  10.499  1.00  0.00     0.042 C
BRANCH  33  34
HETATM   34  C24 UNL     1      47.115   6.667  11.935  1.00  0.00     0.022 C
BRANCH  34  35
HETATM   35  C25 UNL     1      47.835   7.669  12.829  1.00  0.00     0.122 C
BRANCH  35  36
HETATM   36  N2  UNL     1      48.951   7.058  13.510  1.00  0.00    -0.367 N
HETATM   37  C26 UNL     1      49.002   6.890  14.782  1.00  0.00     0.196 C
HETATM   38  N3  UNL     1      50.097   6.292  15.435  1.00  0.00    -0.067 NA
HETATM   39  N4  UNL     1      47.904   7.329  15.570  1.00  0.00    -0.067 NA
ATOM     40  H2  UNL     1      49.744   6.742  12.950  1.00  0.00     0.161 HD
ENDBRANCH  35  36
ENDBRANCH  34  35
ENDBRANCH  33  34
ENDBRANCH   5  33
TORSDOF 10
ENDMDL