MODEL 1
REMARK VINA RESULT: -8.984764614      0.000      0.000
REMARK  10 active torsions:
REMARK  status: ('A' for Active; 'I' for Inactive)
REMARK    1  A    between atoms: C4_6  and  N2_7
REMARK       I    between atoms: N2_7  and  C5_9
REMARK    2  A    between atoms: C5_9  and  C6_11
REMARK    3  A    between atoms: C6_11  and  C9_14
REMARK    4  A    between atoms: C9_14  and  N3_15
REMARK       I    between atoms: N3_15  and  C10_17
REMARK    5  A    between atoms: C10_17  and  C11_19
REMARK    6  A    between atoms: C11_19  and  C12_20
REMARK    7  A    between atoms: C12_20  and  C13_21
REMARK    8  A    between atoms: C13_21  and  C14_22
REMARK    9  A    between atoms: C13_21  and  C18_26
REMARK   10  A    between atoms: C14_22  and  C15_23
ROOT
HETATM    1  N2  UNL     1      41.156   2.314   7.361  1.00  0.00    -0.310 N
ATOM      2  H2  UNL     1      40.226   2.697   7.192  1.00  0.00     0.170 HD
HETATM    3  C5  UNL     1      41.470   0.993   6.956  1.00  0.00     0.233 C
HETATM    4  O1  UNL     1      42.281   0.747   6.003  1.00  0.00    -0.272 OA
ENDROOT
BRANCH   3   5
HETATM    5  C6  UNL     1      40.833  -0.157   7.666  1.00  0.00     0.050 C
HETATM    6  C7  UNL     1      41.883  -1.025   8.296  1.00  0.00     0.027 C
HETATM    7  C8  UNL     1      39.945   0.366   8.782  1.00  0.00     0.027 C
BRANCH   5   8
HETATM    8  C9  UNL     1      40.038  -1.003   6.691  1.00  0.00     0.141 C
BRANCH   8   9
HETATM    9  N3  UNL     1      39.572  -0.246   5.567  1.00  0.00    -0.360 N
HETATM   10  C10 UNL     1      38.235  -0.432   5.139  1.00  0.00     0.217 C
HETATM   11  O2  UNL     1      37.447  -1.238   5.709  1.00  0.00    -0.274 OA
ATOM     12  H3  UNL     1      40.188   0.411   5.087  1.00  0.00     0.162 HD
BRANCH  10  13
HETATM   13  C11 UNL     1      37.743   0.346   3.978  1.00  0.00     0.103 C
BRANCH  13  14
HETATM   14  C12 UNL     1      37.394   1.768   4.372  1.00  0.00     0.024 C
BRANCH  14  15
HETATM   15  C13 UNL     1      37.871   2.714   3.272  1.00  0.00     0.087 C
BRANCH  15  16
HETATM   16  C14 UNL     1      37.927   2.063   1.943  1.00  0.00     0.019 C
BRANCH  16  17
HETATM   17  C15 UNL     1      37.097   2.643   0.862  1.00  0.00    -0.022 C
HETATM   18  C16 UNL     1      36.632   1.507  -0.081  1.00  0.00     0.009 C
HETATM   19  C17 UNL     1      35.801   3.273   1.346  1.00  0.00     0.009 C
ENDBRANCH  16  17
ENDBRANCH  15  16
BRANCH  15  20
HETATM   20  C18 UNL     1      39.093   3.409   3.704  1.00  0.00     0.177 C
HETATM   21  O3  UNL     1      39.500   4.466   3.106  1.00  0.00    -0.648 OA
HETATM   22  O4  UNL     1      39.837   2.923   4.783  1.00  0.00    -0.648 OA
ENDBRANCH  15  20
ENDBRANCH  14  15
ENDBRANCH  13  14
ENDBRANCH  10  13
ENDBRANCH   8   9
ENDBRANCH   5   8
ENDBRANCH   3   5
BRANCH   1  23
HETATM   23  C4  UNL     1      42.052   3.020   7.942  1.00  0.00     0.136 A
HETATM   24  C3  UNL     1      42.206   4.348   7.526  1.00  0.00     0.088 A
HETATM   25  N1  UNL     1      41.589   5.096   6.597  1.00  0.00    -0.356 N
HETATM   26  C21 UNL     1      43.154   5.156   8.117  1.00  0.00     0.011 A
HETATM   27  C2  UNL     1      42.086   6.344   6.552  1.00  0.00     0.012 A
ATOM     28  H1  UNL     1      40.836   4.758   5.997  1.00  0.00     0.166 HD
HETATM   29  C1  UNL     1      41.651   7.462   5.642  1.00  0.00     0.068 C
HETATM   30  C22 UNL     1      43.077   6.390   7.512  1.00  0.00    -0.027 A
HETATM   31  C23 UNL     1      43.930   7.548   7.859  1.00  0.00     0.051 C
HETATM   32  C20 UNL     1      43.946   4.613   9.133  1.00  0.00    -0.018 A
HETATM   33  C19 UNL     1      43.772   3.294   9.524  1.00  0.00     0.019 A
HETATM   34  C24 UNL     1      44.977   5.148   9.978  1.00  0.00     0.026 A
HETATM   35  N4  UNL     1      42.843   2.529   8.934  1.00  0.00    -0.343 N
HETATM   36  C27 UNL     1      44.815   3.052  10.601  1.00  0.00     0.063 C
ATOM     37  H4  UNL     1      42.727   1.560   9.235  1.00  0.00     0.167 HD
HETATM   38  C26 UNL     1      45.883   3.870   9.931  1.00  0.00     0.000 A
HETATM   39  C25 UNL     1      46.373   5.170  10.042  1.00  0.00     0.015 A
ENDBRANCH   1  23
TORSDOF 10
ENDMDL