MODEL 5
REMARK VINA RESULT: -7.813731900      2.274      3.280
REMARK  10 active torsions:
REMARK  status: ('A' for Active; 'I' for Inactive)
REMARK    1  A    between atoms: C2_2  and  N1_3
REMARK    2  A    between atoms: N1_3  and  C3_6
REMARK    3  A    between atoms: C3_6  and  C4_7
REMARK    4  A    between atoms: C3_6  and  C7_12
REMARK    5  A    between atoms: C4_7  and  C5_8
REMARK    6  A    between atoms: C5_8  and  C6_9
REMARK       I    between atoms: C7_12  and  N3_14
REMARK    7  A    between atoms: N3_14  and  C8_16
REMARK    8  A    between atoms: C8_16  and  C9_17
REMARK    9  A    between atoms: C10_18  and  C11_19
REMARK   10  A    between atoms: C23_31  and  N4_32
REMARK       I    between atoms: N4_32  and  C24_34
ROOT
HETATM    1  C11 UNL     1      43.375   1.172   9.966  1.00  0.00    -0.022 C
HETATM    2  C12 UNL     1      44.510   0.198   9.743  1.00  0.00     0.020 C
HETATM    3  C13 UNL     1      43.048   1.144  11.441  1.00  0.00     0.013 C
HETATM    4  C14 UNL     1      41.956   2.094  11.802  1.00  0.00     0.002 C
HETATM    5  C15 UNL     1      41.002   2.362  10.646  1.00  0.00     0.010 C
HETATM    6  C16 UNL     1      40.864   1.099   9.829  1.00  0.00    -0.035 C
HETATM    7  C17 UNL     1      40.361   0.036  10.731  1.00  0.00     0.016 C
HETATM    8  C18 UNL     1      42.157   0.864   9.129  1.00  0.00     0.006 C
HETATM    9  C19 UNL     1      42.153  -0.477   8.481  1.00  0.00     0.007 C
HETATM   10  C20 UNL     1      41.109  -0.473   7.410  1.00  0.00     0.012 C
HETATM   11  C21 UNL     1      39.842   0.211   7.700  1.00  0.00    -0.019 C
HETATM   12  C22 UNL     1      38.759  -0.830   8.010  1.00  0.00     0.018 C
HETATM   13  C23 UNL     1      39.365   0.946   6.463  1.00  0.00     0.093 C
HETATM   14  C26 UNL     1      38.982   2.331   6.846  1.00  0.00     0.026 C
HETATM   15  C27 UNL     1      39.855   2.601   8.057  1.00  0.00     0.008 C
HETATM   16  C28 UNL     1      39.833   1.273   8.731  1.00  0.00     0.004 C
ENDROOT
BRANCH   1  17
HETATM   17  C10 UNL     1      43.878   2.529   9.641  1.00  0.00    -0.019 C
HETATM   18  C9  UNL     1      44.827   3.192  10.230  1.00  0.00    -0.011 C
BRANCH  18  19
HETATM   19  C8  UNL     1      45.270   4.561   9.831  1.00  0.00     0.149 C
BRANCH  19  20
HETATM   20  N3  UNL     1      44.608   5.042   8.666  1.00  0.00    -0.356 N
HETATM   21  C7  UNL     1      43.543   5.958   8.779  1.00  0.00     0.248 C
HETATM   22  O2  UNL     1      43.187   6.340   9.920  1.00  0.00    -0.271 OA
ATOM     23  H3  UNL     1      44.907   4.722   7.745  1.00  0.00     0.162 HD
BRANCH  21  24
HETATM   24  C3  UNL     1      42.827   6.494   7.609  1.00  0.00     0.277 C
BRANCH  24  25
HETATM   25  N1  UNL     1      42.352   7.841   7.853  1.00  0.00    -0.063 N
ATOM     26  H12 UNL     1      42.417   8.079   8.843  1.00  0.00     0.278 HD
ATOM     27  H11 UNL     1      41.340   7.900   7.736  1.00  0.00     0.278 HD
BRANCH  25  28
HETATM   28  C2  UNL     1      43.021   8.816   7.044  1.00  0.00     0.229 C
HETATM   29  C1  UNL     1      42.748   8.606   5.565  1.00  0.00     0.034 C
ENDBRANCH  25  28
ENDBRANCH  24  25
BRANCH  24  30
HETATM   30  C4  UNL     1      41.691   5.612   7.212  1.00  0.00     0.052 C
BRANCH  30  31
HETATM   31  C5  UNL     1      42.079   4.695   6.073  1.00  0.00     0.102 C
BRANCH  31  32
HETATM   32  C6  UNL     1      41.205   5.059   4.920  1.00  0.00     0.231 C
HETATM   33  N2  UNL     1      41.359   4.398   3.673  1.00  0.00    -0.062 NA
HETATM   34  O1  UNL     1      40.324   5.944   5.015  1.00  0.00    -0.277 OA
ENDBRANCH  31  32
ENDBRANCH  30  31
ENDBRANCH  24  30
ENDBRANCH  21  24
ENDBRANCH  19  20
ENDBRANCH  18  19
ENDBRANCH   1  17
BRANCH  13  35
HETATM   35  N4  UNL     1      38.252   0.274   5.827  1.00  0.00    -0.356 N
HETATM   36  C24 UNL     1      37.836   0.512   4.512  1.00  0.00     0.213 C
HETATM   37  C25 UNL     1      36.688  -0.202   3.906  1.00  0.00     0.117 C
HETATM   38  O3  UNL     1      38.446   1.355   3.805  1.00  0.00    -0.274 OA
ATOM     39  H4  UNL     1      37.738  -0.418   6.373  1.00  0.00     0.162 HD
ENDBRANCH  13  35
TORSDOF 10
ENDMDL