MODEL 4
REMARK VINA RESULT: -8.074036931      2.020      5.316
REMARK  11 active torsions:
REMARK  status: ('A' for Active; 'I' for Inactive)
REMARK    1  A    between atoms: C5_5  and  N1_6
REMARK    2  A    between atoms: N1_6  and  C6_8
REMARK    3  A    between atoms: C6_8  and  N2_10
REMARK    4  A    between atoms: N2_10  and  C7_12
REMARK    5  A    between atoms: C7_12  and  C8_13
REMARK    6  A    between atoms: C8_13  and  C9_14
REMARK    7  A    between atoms: C9_14  and  C10_15
REMARK    8  A    between atoms: C10_15  and  C11_16
REMARK    9  A    between atoms: C11_16  and  C12_17
REMARK   10  A    between atoms: C12_17  and  N3_18
REMARK       I    between atoms: N3_18  and  C13_19
REMARK       I    between atoms: C13_19  and  N5_21
REMARK       I    between atoms: C14_23  and  N6_24
REMARK       I    between atoms: C14_23  and  N7_30
REMARK   11  A    between atoms: N6_24  and  C15_26
ROOT
HETATM    1  C11 UNL     1      41.900   5.580   6.290  1.00  0.00     0.059 C
ENDROOT
BRANCH   1   2
HETATM    2  C10 UNL     1      41.752   6.980   5.729  1.00  0.00     0.006 C
BRANCH   2   3
HETATM    3  C9  UNL     1      41.564   8.071   6.732  1.00  0.00     0.002 C
BRANCH   3   4
HETATM    4  C8  UNL     1      42.866   8.926   6.605  1.00  0.00     0.020 C
BRANCH   4   5
HETATM    5  C7  UNL     1      43.614   9.048   7.870  1.00  0.00     0.122 C
BRANCH   5   6
HETATM    6  N2  UNL     1      43.308   7.989   8.840  1.00  0.00    -0.367 N
ATOM      7  H2  UNL     1      42.390   7.880   9.271  1.00  0.00     0.161 HD
BRANCH   6   8
HETATM    8  C6  UNL     1      44.425   7.113   9.131  1.00  0.00     0.172 C
HETATM    9  S1  UNL     1      45.495   7.718  10.254  1.00  0.00    -0.041 SA
BRANCH   8  10
HETATM   10  N1  UNL     1      44.568   5.819   8.658  1.00  0.00    -0.333 N
ATOM     11  H1  UNL     1      44.993   5.686   7.741  1.00  0.00     0.168 HD
BRANCH  10  12
HETATM   12  C5  UNL     1      44.156   4.671   9.378  1.00  0.00     0.040 A
HETATM   13  C4  UNL     1      42.855   4.407   9.724  1.00  0.00     0.030 A
HETATM   14  C3  UNL     1      42.547   3.299  10.501  1.00  0.00     0.009 A
HETATM   15  C2  UNL     1      43.515   2.447  10.942  1.00  0.00    -0.061 A
HETATM   16  C1  UNL     1      43.213   1.250  11.766  1.00  0.00     0.048 C
HETATM   17  C25 UNL     1      44.847   2.686  10.610  1.00  0.00     0.015 A
HETATM   18  C23 UNL     1      45.142   3.786   9.842  1.00  0.00    -0.035 A
HETATM   19  C24 UNL     1      46.562   4.080   9.440  1.00  0.00     0.050 C
ENDBRANCH  10  12
ENDBRANCH   8  10
ENDBRANCH   6   8
ENDBRANCH   5   6
ENDBRANCH   4   5
ENDBRANCH   3   4
ENDBRANCH   2   3
ENDBRANCH   1   2
BRANCH   1  20
HETATM   20  C12 UNL     1      40.521   5.160   6.873  1.00  0.00     0.158 C
BRANCH  20  21
HETATM   21  N3  UNL     1      39.918   4.068   6.464  1.00  0.00    -0.390 NA
HETATM   22  C13 UNL     1      39.359   3.047   6.066  1.00  0.00     0.280 C
HETATM   23  N4  UNL     1      39.529   2.598   4.735  1.00  0.00    -0.048 NA
HETATM   24  N5  UNL     1      38.509   2.318   6.935  1.00  0.00    -0.152 N
HETATM   25  C14 UNL     1      38.647   1.442   7.790  1.00  0.00     0.680 C
ATOM     26  H5  UNL     1      37.532   2.588   6.823  1.00  0.00     0.188 HD
HETATM   27  N6  UNL     1      37.383   1.021   8.423  1.00  0.00    -0.218 N
HETATM   28  N7  UNL     1      39.828   0.817   8.208  1.00  0.00    -0.214 N
ATOM     29  H6  UNL     1      37.312   1.094   9.438  1.00  0.00     0.178 HD
HETATM   30  C19 UNL     1      40.071   0.675   9.656  1.00  0.00     0.167 C
HETATM   31  C22 UNL     1      40.834   0.261   7.375  1.00  0.00     0.167 C
HETATM   32  C20 UNL     1      40.458  -0.787   9.853  1.00  0.00     0.188 C
HETATM   33  O1  UNL     1      40.099  -1.577   8.751  1.00  0.00    -0.388 OA
HETATM   34  C21 UNL     1      40.759  -1.255   7.587  1.00  0.00     0.188 C
BRANCH  27  35
HETATM   35  C15 UNL     1      36.262   0.522   7.719  1.00  0.00     0.036 C
HETATM   36  C16 UNL     1      35.335   1.615   7.242  1.00  0.00     0.038 C
HETATM   37  C17 UNL     1      35.480  -0.385   8.682  1.00  0.00     0.038 C
HETATM   38  C18 UNL     1      36.656  -0.334   6.534  1.00  0.00     0.038 C
ENDBRANCH  27  35
ENDBRANCH  20  21
ENDBRANCH   1  20
TORSDOF 11
ENDMDL