MODEL 1
REMARK VINA RESULT: -8.518532697      0.000      0.000
REMARK  12 active torsions:
REMARK  status: ('A' for Active; 'I' for Inactive)
REMARK    1  A    between atoms: C2_2  and  C3_3
REMARK    2  A    between atoms: C3_3  and  C4_4
REMARK    3  A    between atoms: C4_4  and  C5_5
REMARK    4  A    between atoms: C18_19  and  C19_20
REMARK    5  A    between atoms: C19_20  and  C20_21
REMARK    6  A    between atoms: C20_21  and  C21_22
REMARK       I    between atoms: C21_22  and  N2_24
REMARK    7  A    between atoms: N2_24  and  C22_26
REMARK    8  A    between atoms: C22_26  and  C23_27
REMARK    9  A    between atoms: C23_27  and  C24_28
REMARK   10  A    between atoms: C27_33  and  C28_34
REMARK   11  A    between atoms: C28_34  and  O2_35
REMARK   12  A    between atoms: C28_34  and  O3_37
ROOT
HETATM    1  C5  UNL     1      47.123   8.320  12.670  1.00  0.00    -0.002 C
HETATM    2  C6  UNL     1      47.500   7.261  11.724  1.00  0.00     0.247 C
HETATM    3  N1  UNL     1      46.701   6.641  10.762  1.00  0.00    -0.070 N
HETATM    4  C7  UNL     1      47.029   5.173  10.910  1.00  0.00     0.272 C
HETATM    5  C8  UNL     1      47.176   6.788   9.355  1.00  0.00     0.237 C
HETATM    6  C9  UNL     1      46.765   8.065   8.688  1.00  0.00     0.033 C
HETATM    7  C10 UNL     1      45.535   8.731   9.160  1.00  0.00    -0.007 C
HETATM    8  C11 UNL     1      45.744  10.022   9.978  1.00  0.00     0.010 C
HETATM    9  C12 UNL     1      46.647   9.763  11.046  1.00  0.00    -0.005 C
HETATM   10  C13 UNL     1      47.762  10.488  11.599  1.00  0.00     0.014 C
HETATM   11  C14 UNL     1      48.028   9.534  12.804  1.00  0.00     0.019 C
HETATM   12  C15 UNL     1      47.260  10.326  13.819  1.00  0.00    -0.025 C
HETATM   13  C16 UNL     1      46.004  10.125  13.439  1.00  0.00    -0.024 C
HETATM   14  C17 UNL     1      45.996   9.227  12.243  1.00  0.00     0.023 C
HETATM   15  C18 UNL     1      44.640   7.722   9.787  1.00  0.00     0.016 C
HETATM   16  C29 UNL     1      45.309   6.687  10.640  1.00  0.00     0.241 C
ENDROOT
BRANCH  15  17
HETATM   17  C19 UNL     1      43.821   7.137   8.637  1.00  0.00     0.016 C
BRANCH  17  18
HETATM   18  C20 UNL     1      42.796   6.150   9.035  1.00  0.00     0.103 C
BRANCH  18  19
HETATM   19  C21 UNL     1      43.475   4.806   9.122  1.00  0.00     0.217 C
HETATM   20  O1  UNL     1      44.293   4.454   8.244  1.00  0.00    -0.274 OA
HETATM   21  N2  UNL     1      43.203   3.917  10.193  1.00  0.00    -0.361 N
ATOM     22  H2  UNL     1      42.531   4.223  10.896  1.00  0.00     0.162 HD
BRANCH  21  23
HETATM   23  C22 UNL     1      43.796   2.621  10.372  1.00  0.00     0.127 C
BRANCH  23  24
HETATM   24  C23 UNL     1      43.101   1.739  11.363  1.00  0.00     0.060 C
BRANCH  24  25
HETATM   25  C24 UNL     1      42.481   0.573  10.715  1.00  0.00    -0.029 A
HETATM   26  C25 UNL     1      43.061  -0.699  10.618  1.00  0.00     0.095 A
HETATM   27  N3  UNL     1      42.238  -1.537   9.969  1.00  0.00    -0.374 N
HETATM   28  C26 UNL     1      41.142  -0.866   9.637  1.00  0.00     0.100 A
ATOM     29  H3  UNL     1      42.423  -2.520   9.766  1.00  0.00     0.164 HD
HETATM   30  C27 UNL     1      41.262   0.454  10.088  1.00  0.00     0.019 A
BRANCH  30  31
HETATM   31  C28 UNL     1      40.223   1.476   9.886  1.00  0.00     0.290 C
BRANCH  31  32
HETATM   32  O2  UNL     1      39.586   1.827  11.092  1.00  0.00    -0.367 OA
ATOM     33  H2  UNL     1      38.820   1.290  11.259  1.00  0.00     0.213 HD
ENDBRANCH  31  32
BRANCH  31  34
HETATM   34  O3  UNL     1      40.599   2.565   9.130  1.00  0.00    -0.367 OA
ATOM     35  H3  UNL     1      39.967   3.272   9.086  1.00  0.00     0.213 HD
ENDBRANCH  31  34
ENDBRANCH  30  31
ENDBRANCH  24  25
ENDBRANCH  23  24
ENDBRANCH  21  23
ENDBRANCH  18  19
ENDBRANCH  17  18
ENDBRANCH  15  17
BRANCH   1  36
HETATM   36  C4  UNL     1      46.973   7.792  14.092  1.00  0.00     0.012 C
BRANCH  36  37
HETATM   37  C3  UNL     1      47.793   6.669  14.518  1.00  0.00     0.000 C
BRANCH  37  38
HETATM   38  C2  UNL     1      48.664   7.170  15.682  1.00  0.00    -0.005 C
HETATM   39  C1  UNL     1      50.038   7.544  15.225  1.00  0.00     0.005 C
ENDBRANCH  37  38
ENDBRANCH  36  37
ENDBRANCH   1  36
TORSDOF 12
ENDMDL