MODEL 2
REMARK VINA RESULT: -7.924358746      3.035      7.537
REMARK  11 active torsions:
REMARK  status: ('A' for Active; 'I' for Inactive)
REMARK    1  A    between atoms: C2_2  and  C3_3
REMARK    2  A    between atoms: C3_3  and  C4_4
REMARK    3  A    between atoms: C5_5  and  C6_6
REMARK    4  A    between atoms: C9_9  and  C10_10
REMARK    5  A    between atoms: C10_10  and  C11_11
REMARK    6  A    between atoms: C10_10  and  N4_19
REMARK    7  A    between atoms: C11_11  and  N1_12
REMARK       I    between atoms: N1_12  and  C12_14
REMARK    8  A    between atoms: C15_22  and  N5_23
REMARK    9  A    between atoms: C18_26  and  C19_27
REMARK   10  A    between atoms: C18_26  and  C21_29
REMARK   11  A    between atoms: C21_29  and  C22_30
ROOT
HETATM    1  N4  UNL     1      43.332   3.997   9.792  1.00  0.00    -0.301 N
HETATM    2  C13 UNL     1      42.216   3.254  10.350  1.00  0.00     0.136 C
HETATM    3  C14 UNL     1      42.669   2.224  11.317  1.00  0.00     0.057 C
HETATM    4  C15 UNL     1      43.302   0.998  10.783  1.00  0.00     0.242 C
HETATM    5  C26 UNL     1      44.689   1.159  10.225  1.00  0.00     0.160 C
HETATM    6  N6  UNL     1      45.283   2.457  10.455  1.00  0.00    -0.341 N
ATOM      7  H6  UNL     1      46.189   2.481  10.922  1.00  0.00     0.164 HD
HETATM    8  C27 UNL     1      44.702   3.712  10.081  1.00  0.00     0.322 C
HETATM    9  O1  UNL     1      45.466   4.699   9.986  1.00  0.00    -0.247 OA
ENDROOT
BRANCH   1  10
HETATM   10  C10 UNL     1      43.058   5.104   8.857  1.00  0.00     0.044 C
BRANCH  10  11
HETATM   11  C9  UNL     1      42.207   4.798   7.748  1.00  0.00    -0.011 A
HETATM   12  C8  UNL     1      41.210   5.627   7.297  1.00  0.00     0.015 A
HETATM   13  C7  UNL     1      40.387   5.375   6.241  1.00  0.00     0.021 A
HETATM   14  C6  UNL     1      40.551   4.174   5.540  1.00  0.00     0.017 A
HETATM   15  C29 UNL     1      41.534   3.307   5.951  1.00  0.00     0.021 A
HETATM   16  C28 UNL     1      42.344   3.603   7.023  1.00  0.00     0.015 A
BRANCH  14  17
HETATM   17  C5  UNL     1      39.687   3.894   4.417  1.00  0.00    -0.067 C
HETATM   18  C4  UNL     1      38.948   3.673   3.489  1.00  0.00    -0.101 C
BRANCH  18  19
HETATM   19  C3  UNL     1      38.025   3.417   2.370  1.00  0.00     0.094 C
BRANCH  19  20
HETATM   20  C2  UNL     1      37.948   1.942   2.042  1.00  0.00     0.007 C
HETATM   21  C1  UNL     1      37.548   1.676   0.616  1.00  0.00     0.006 C
ENDBRANCH  19  20
ENDBRANCH  18  19
ENDBRANCH  14  17
ENDBRANCH  10  11
BRANCH  10  22
HETATM   22  C11 UNL     1      43.049   6.406   9.543  1.00  0.00     0.180 C
BRANCH  22  23
HETATM   23  N1  UNL     1      44.018   7.385   9.176  1.00  0.00    -0.359 N
HETATM   24  C12 UNL     1      44.889   7.322   8.077  1.00  0.00     0.182 C
HETATM   25  N2  UNL     1      46.158   7.120   8.175  1.00  0.00    -0.374 N
HETATM   26  N3  UNL     1      44.353   7.526   6.774  1.00  0.00    -0.064 NA
ATOM     27  H22 UNL     1      46.542   6.973   9.108  1.00  0.00     0.158 HD
ATOM     28  H21 UNL     1      46.791   7.074   7.377  1.00  0.00     0.158 HD
ATOM     29  H1  UNL     1      44.085   8.212   9.770  1.00  0.00     0.162 HD
ENDBRANCH  22  23
ENDBRANCH  10  22
ENDBRANCH   1  10
BRANCH   4  30
HETATM   30  N5  UNL     1      42.506   0.240   9.844  1.00  0.00     0.094 N
HETATM   31  C16 UNL     1      41.178   0.803   9.681  1.00  0.00     0.273 C
HETATM   32  C17 UNL     1      40.121   0.125  10.501  1.00  0.00     0.039 C
HETATM   33  C18 UNL     1      39.866  -1.321  10.009  1.00  0.00    -0.037 C
HETATM   34  C24 UNL     1      41.207  -1.842   9.643  1.00  0.00     0.039 C
HETATM   35  C25 UNL     1      42.256  -1.084  10.441  1.00  0.00     0.273 C
BRANCH  33  36
HETATM   36  C19 UNL     1      39.136  -2.086  11.052  1.00  0.00     0.005 C
HETATM   37  C20 UNL     1      39.761  -3.409  11.432  1.00  0.00     0.006 C
ENDBRANCH  33  36
BRANCH  33  38
HETATM   38  C21 UNL     1      39.026  -1.251   8.759  1.00  0.00     0.009 C
BRANCH  38  39
HETATM   39  C22 UNL     1      39.840  -1.611   7.563  1.00  0.00    -0.004 C
HETATM   40  C23 UNL     1      39.809  -0.470   6.521  1.00  0.00     0.005 C
ENDBRANCH  38  39
ENDBRANCH  33  38
ENDBRANCH   4  30
TORSDOF 11
ENDMDL