MODEL 2
REMARK VINA RESULT: -7.441277866      4.195      9.909
REMARK  14 active torsions:
REMARK  status: ('A' for Active; 'I' for Inactive)
REMARK    1  A    between atoms: C2_2  and  C3_3
REMARK    2  A    between atoms: C3_3  and  C4_4
REMARK    3  A    between atoms: C3_3  and  C20_22
REMARK    4  A    between atoms: C4_4  and  C5_5
REMARK    5  A    between atoms: C5_5  and  O1_7
REMARK    6  A    between atoms: C5_5  and  C7_9
REMARK    7  A    between atoms: C7_9  and  C9_11
REMARK    8  A    between atoms: C9_11  and  C10_12
REMARK    9  A    between atoms: C10_12  and  C12_14
REMARK   10  A    between atoms: C13_15  and  C15_17
REMARK   11  A    between atoms: C15_17  and  C18_20
REMARK   12  A    between atoms: C23_25  and  O2_27
REMARK   13  A    between atoms: C25_29  and  C26_30
REMARK   14  A    between atoms: C26_30  and  O3_33
ROOT
HETATM    1  C3  UNL     1      25.188   1.616  60.551  1.00  0.00     0.044 C
ENDROOT
BRANCH   1   2
HETATM    2  C2  UNL     1      25.758   0.439  61.212  1.00  0.00    -0.029 C
HETATM    3  C1  UNL     1      26.819  -0.160  60.617  1.00  0.00     0.007 C
ENDBRANCH   1   2
BRANCH   1   4
HETATM    4  C4  UNL     1      25.681   2.944  61.010  1.00  0.00     0.050 C
BRANCH   4   5
HETATM    5  C5  UNL     1      26.306   3.843  60.003  1.00  0.00     0.068 C
HETATM    6  C6  UNL     1      27.759   3.738  59.777  1.00  0.00     0.047 C
BRANCH   5   7
HETATM    7  O1  UNL     1      25.609   3.753  58.786  1.00  0.00    -0.389 OA
ATOM      8  H1  UNL     1      25.045   4.510  58.681  1.00  0.00     0.210 HD
ENDBRANCH   5   7
BRANCH   5   9
HETATM    9  C7  UNL     1      26.024   5.283  60.592  1.00  0.00     0.082 C
HETATM   10  C8  UNL     1      24.567   5.609  60.540  1.00  0.00     0.025 C
BRANCH   9  11
HETATM   11  C9  UNL     1      26.970   5.876  61.024  1.00  0.00    -0.167 C
BRANCH  11  12
HETATM   12  C10 UNL     1      28.128   6.603  61.553  1.00  0.00     0.071 C
HETATM   13  C11 UNL     1      28.103   6.649  63.116  1.00  0.00     0.027 C
BRANCH  12  14
HETATM   14  C12 UNL     1      28.089   8.073  61.179  1.00  0.00    -0.008 C
HETATM   15  C13 UNL     1      28.979   8.560  60.302  1.00  0.00    -0.075 C
HETATM   16  C14 UNL     1      29.986   7.697  59.691  1.00  0.00     0.044 C
BRANCH  15  17
HETATM   17  C15 UNL     1      28.947   9.997  59.997  1.00  0.00    -0.008 C
HETATM   18  C16 UNL     1      29.940  10.269  58.864  1.00  0.00     0.024 C
HETATM   19  C17 UNL     1      27.557  10.314  59.361  1.00  0.00     0.024 C
BRANCH  17  20
HETATM   20  C18 UNL     1      29.113  10.877  61.141  1.00  0.00    -0.024 C
HETATM   21  C19 UNL     1      29.516  12.092  61.175  1.00  0.00     0.008 C
ENDBRANCH  17  20
ENDBRANCH  15  17
ENDBRANCH  12  14
ENDBRANCH  11  12
ENDBRANCH   9  11
ENDBRANCH   5   9
ENDBRANCH   4   5
ENDBRANCH   1   4
BRANCH   1  22
HETATM   22  C20 UNL     1      23.622   1.628  60.697  1.00  0.00     0.067 C
HETATM   23  C21 UNL     1      23.379   2.492  61.920  1.00  0.00     0.047 C
HETATM   24  C22 UNL     1      23.267   0.201  60.953  1.00  0.00     0.076 C
HETATM   25  C23 UNL     1      21.826  -0.159  60.599  1.00  0.00     0.065 C
HETATM   26  C24 UNL     1      21.844  -1.620  60.335  1.00  0.00     0.046 C
HETATM   27  C25 UNL     1      21.325   0.757  59.590  1.00  0.00     0.077 C
HETATM   28  C29 UNL     1      22.458   1.276  58.749  1.00  0.00     0.179 C
HETATM   29  O4  UNL     1      23.120   2.215  59.585  1.00  0.00    -0.379 OA
BRANCH  25  30
HETATM   30  O2  UNL     1      21.087   0.031  61.798  1.00  0.00    -0.390 OA
ATOM     31  H2  UNL     1      21.143  -0.797  62.261  1.00  0.00     0.210 HD
ENDBRANCH  25  30
BRANCH  27  32
HETATM   32  C26 UNL     1      20.194   0.337  58.694  1.00  0.00     0.059 C
HETATM   33  C27 UNL     1      19.393   1.440  58.100  1.00  0.00     0.046 C
HETATM   34  C28 UNL     1      20.689  -0.570  57.576  1.00  0.00     0.046 C
BRANCH  32  35
HETATM   35  O3  UNL     1      19.352  -0.448  59.459  1.00  0.00    -0.390 OA
ATOM     36  H3  UNL     1      19.031   0.103  60.163  1.00  0.00     0.210 HD
ENDBRANCH  32  35
ENDBRANCH  27  32
ENDBRANCH   1  22
TORSDOF 14
ENDMDL