MODEL 1
REMARK VINA RESULT: -7.445223301      0.000      0.000
REMARK  10 active torsions:
REMARK  status: ('A' for Active; 'I' for Inactive)
REMARK    1  A    between atoms: C2_2  and  C3_3
REMARK    2  A    between atoms: C3_3  and  C4_4
REMARK    3  A    between atoms: C4_4  and  C5_5
REMARK    4  A    between atoms: C4_4  and  N2_9
REMARK    5  A    between atoms: C5_5  and  N1_6
REMARK    6  A    between atoms: C7_11  and  C8_12
REMARK    7  A    between atoms: C8_12  and  C9_13
REMARK    8  A    between atoms: C9_13  and  C11_15
REMARK    9  A    between atoms: C17_21  and  O1_22
REMARK   10  A    between atoms: C24_30  and  O2_31
ROOT
HETATM    1  C11 UNL     1      24.232   2.658  60.281  1.00  0.00    -0.005 C
HETATM    2  C12 UNL     1      23.647   2.763  61.676  1.00  0.00     0.006 C
HETATM    3  C13 UNL     1      24.352   1.591  62.338  1.00  0.00     0.010 C
HETATM    4  C14 UNL     1      24.609   0.598  61.198  1.00  0.00    -0.037 C
HETATM    5  C15 UNL     1      26.110   0.634  60.940  1.00  0.00     0.015 C
HETATM    6  C16 UNL     1      24.237  -0.789  61.524  1.00  0.00     0.041 C
HETATM    7  C17 UNL     1      22.981  -1.292  60.849  1.00  0.00     0.124 C
HETATM    8  C18 UNL     1      22.007  -0.120  60.895  1.00  0.00     0.027 C
HETATM    9  C19 UNL     1      22.518   0.842  59.817  1.00  0.00    -0.002 C
HETATM   10  C20 UNL     1      22.319   0.222  58.454  1.00  0.00     0.006 C
HETATM   11  C21 UNL     1      21.075  -0.549  58.253  1.00  0.00     0.006 C
HETATM   12  C22 UNL     1      20.650  -1.434  59.373  1.00  0.00    -0.004 C
HETATM   13  C23 UNL     1      19.286  -1.985  59.143  1.00  0.00     0.037 C
HETATM   14  C24 UNL     1      18.204  -0.964  59.033  1.00  0.00     0.118 C
HETATM   15  C25 UNL     1      18.285   0.126  60.069  1.00  0.00     0.032 C
HETATM   16  C26 UNL     1      19.679   0.556  60.381  1.00  0.00     0.012 C
HETATM   17  C27 UNL     1      20.614  -0.582  60.622  1.00  0.00    -0.034 C
HETATM   18  C28 UNL     1      20.129  -1.344  61.831  1.00  0.00     0.016 C
HETATM   19  C29 UNL     1      23.953   1.201  59.978  1.00  0.00     0.003 C
ENDROOT
BRANCH   1  20
HETATM   20  C9  UNL     1      23.742   3.656  59.333  1.00  0.00    -0.010 C
HETATM   21  C10 UNL     1      24.355   5.006  59.679  1.00  0.00     0.010 C
BRANCH  20  22
HETATM   22  C8  UNL     1      24.123   3.344  57.916  1.00  0.00     0.049 C
BRANCH  22  23
HETATM   23  C7  UNL     1      22.965   3.305  57.007  1.00  0.00     0.056 C
HETATM   24  N2  UNL     1      21.796   3.419  57.483  1.00  0.00    -0.393 N
ATOM     25  H2  UNL     1      21.713   3.534  58.493  1.00  0.00     0.159 HD
BRANCH  24  26
HETATM   26  C4  UNL     1      20.575   3.399  56.717  1.00  0.00     0.118 C
BRANCH  26  27
HETATM   27  C3  UNL     1      19.469   2.816  57.504  1.00  0.00     0.030 C
BRANCH  27  28
HETATM   28  C2  UNL     1      18.421   2.248  56.542  1.00  0.00    -0.002 C
HETATM   29  C1  UNL     1      19.050   1.054  55.856  1.00  0.00     0.005 C
ENDBRANCH  27  28
ENDBRANCH  26  27
BRANCH  26  30
HETATM   30  C5  UNL     1      20.327   4.698  56.053  1.00  0.00     0.080 C
BRANCH  30  31
HETATM   31  N1  UNL     1      20.441   4.836  54.677  1.00  0.00    -0.405 N
HETATM   32  C6  UNL     1      20.553   3.753  53.786  1.00  0.00     0.145 C
ATOM     33  H1  UNL     1      20.443   5.779  54.288  1.00  0.00     0.158 HD
ENDBRANCH  30  31
ENDBRANCH  26  30
ENDBRANCH  24  26
ENDBRANCH  22  23
ENDBRANCH  20  22
ENDBRANCH   1  20
BRANCH   7  34
HETATM   34  O1  UNL     1      22.548  -2.383  61.577  1.00  0.00    -0.395 OA
ATOM     35  H1  UNL     1      22.679  -2.171  62.493  1.00  0.00     0.210 HD
ENDBRANCH   7  34
BRANCH  14  36
HETATM   36  O2  UNL     1      16.976  -1.599  59.215  1.00  0.00    -0.396 OA
ATOM     37  H2  UNL     1      16.686  -1.447  60.107  1.00  0.00     0.210 HD
ENDBRANCH  14  36
TORSDOF 10
ENDMDL