MODEL 2
REMARK VINA RESULT: -6.992732522      1.737      2.624
REMARK  12 active torsions:
REMARK  status: ('A' for Active; 'I' for Inactive)
REMARK    1  A    between atoms: C2_2  and  C3_3
REMARK    2  A    between atoms: C3_3  and  C4_4
REMARK    3  A    between atoms: C4_4  and  O1_5
REMARK    4  A    between atoms: O1_5  and  C5_6
REMARK    5  A    between atoms: C7_8  and  O2_9
REMARK    6  A    between atoms: C10_13  and  O3_14
REMARK    7  A    between atoms: C14_19  and  C15_20
REMARK    8  A    between atoms: C15_20  and  C17_22
REMARK    9  A    between atoms: C17_22  and  C18_23
REMARK   10  A    between atoms: C18_23  and  C19_24
REMARK   11  A    between atoms: C19_24  and  O4_25
REMARK   12  A    between atoms: C19_24  and  C20_27
ROOT
HETATM    1  C5  UNL     1      22.756  -0.036  60.508  1.00  0.00     0.132 C
HETATM    2  C6  UNL     1      22.466  -1.425  61.159  1.00  0.00     0.065 C
HETATM    3  C7  UNL     1      20.986  -1.560  61.156  1.00  0.00     0.125 C
HETATM    4  C8  UNL     1      20.589  -1.671  59.672  1.00  0.00     0.022 C
HETATM    5  C9  UNL     1      19.152  -2.123  59.722  1.00  0.00     0.039 C
HETATM    6  C10 UNL     1      18.683  -2.136  58.298  1.00  0.00     0.123 C
HETATM    7  C11 UNL     1      18.684  -0.754  57.796  1.00  0.00     0.023 C
HETATM    8  C12 UNL     1      17.722   0.125  58.504  1.00  0.00     0.008 C
HETATM    9  C13 UNL     1      18.432   1.389  58.803  1.00  0.00     0.006 C
HETATM   10  C14 UNL     1      19.586   1.362  57.752  1.00  0.00    -0.002 C
HETATM   11  C23 UNL     1      20.057  -0.045  57.802  1.00  0.00    -0.029 C
HETATM   12  C24 UNL     1      20.672  -0.652  56.592  1.00  0.00     0.016 C
HETATM   13  C25 UNL     1      20.816  -0.332  59.062  1.00  0.00     0.011 C
HETATM   14  C26 UNL     1      22.288  -0.064  59.069  1.00  0.00    -0.017 C
HETATM   15  C27 UNL     1      23.151  -1.116  58.422  1.00  0.00     0.018 C
HETATM   16  C28 UNL     1      22.675   1.293  58.570  1.00  0.00     0.018 C
ENDROOT
BRANCH  10  17
HETATM   17  C15 UNL     1      18.959   1.842  56.460  1.00  0.00    -0.014 C
HETATM   18  C16 UNL     1      18.220   3.180  56.814  1.00  0.00     0.010 C
BRANCH  17  19
HETATM   19  C17 UNL     1      19.972   2.321  55.447  1.00  0.00     0.007 C
BRANCH  19  20
HETATM   20  C18 UNL     1      19.321   2.755  54.134  1.00  0.00     0.032 C
BRANCH  20  21
HETATM   21  C19 UNL     1      18.621   1.594  53.472  1.00  0.00     0.121 C
BRANCH  21  22
HETATM   22  O4  UNL     1      19.480   0.540  53.302  1.00  0.00    -0.395 OA
ATOM     23  H4  UNL     1      19.430   0.203  52.415  1.00  0.00     0.210 HD
ENDBRANCH  21  22
BRANCH  21  24
HETATM   24  C20 UNL     1      17.924   1.991  52.189  1.00  0.00     0.006 C
HETATM   25  C21 UNL     1      17.732   3.496  52.229  1.00  0.00     0.012 C
HETATM   26  C22 UNL     1      18.762   1.673  50.983  1.00  0.00     0.012 C
ENDBRANCH  21  24
ENDBRANCH  20  21
ENDBRANCH  19  20
ENDBRANCH  17  19
ENDBRANCH  10  17
BRANCH   6  27
HETATM   27  O3  UNL     1      17.351  -2.584  58.223  1.00  0.00    -0.395 OA
ATOM     28  H3  UNL     1      16.865  -2.074  57.585  1.00  0.00     0.210 HD
ENDBRANCH   6  27
BRANCH   3  29
HETATM   29  O2  UNL     1      20.405  -0.475  61.767  1.00  0.00    -0.395 OA
ATOM     30  H2  UNL     1      19.747  -0.089  61.200  1.00  0.00     0.210 HD
ENDBRANCH   3  29
BRANCH   1  31
HETATM   31  O1  UNL     1      22.264   0.929  61.310  1.00  0.00    -0.385 OA
BRANCH  31  32
HETATM   32  C4  UNL     1      23.215   1.776  61.802  1.00  0.00     0.168 C
BRANCH  32  33
HETATM   33  C3  UNL     1      24.499   1.239  62.291  1.00  0.00     0.026 C
BRANCH  33  34
HETATM   34  C2  UNL     1      25.607   2.000  61.549  1.00  0.00    -0.002 C
HETATM   35  C1  UNL     1      25.060   3.191  60.829  1.00  0.00     0.005 C
ENDBRANCH  33  34
ENDBRANCH  32  33
ENDBRANCH  31  32
ENDBRANCH   1  31
TORSDOF 12
ENDMDL