MODEL 2
REMARK VINA RESULT: -7.440758693      1.164      2.361
REMARK  12 active torsions:
REMARK  status: ('A' for Active; 'I' for Inactive)
REMARK    1  A    between atoms: C2_2  and  C14_15
REMARK    2  A    between atoms: C3_3  and  C4_4
REMARK    3  A    between atoms: C4_4  and  C5_5
REMARK    4  A    between atoms: C5_5  and  C6_6
REMARK    5  A    between atoms: C6_6  and  C9_10
REMARK    6  A    between atoms: C10_11  and  C11_12
REMARK    7  A    between atoms: C14_15  and  C15_16
REMARK    8  A    between atoms: C15_16  and  C17_18
REMARK    9  A    between atoms: C18_19  and  O1_20
REMARK   10  A    between atoms: C22_25  and  C24_27
REMARK   11  A    between atoms: C24_27  and  O2_28
REMARK   12  A    between atoms: C25_30  and  O3_31
ROOT
HETATM    1  C6  UNL     1      22.239   4.762  56.342  1.00  0.00     0.063 C
HETATM    2  C7  UNL     1      22.333   4.290  54.861  1.00  0.00     0.035 C
HETATM    3  C8  UNL     1      20.895   4.297  56.771  1.00  0.00     0.073 C
HETATM    4  N1  UNL     1      19.826   3.922  57.081  1.00  0.00    -0.196 NA
ENDROOT
BRANCH   1   5
HETATM    5  C5  UNL     1      23.351   4.076  57.037  1.00  0.00     0.032 C
BRANCH   5   6
HETATM    6  C4  UNL     1      23.345   4.016  58.511  1.00  0.00     0.029 C
BRANCH   6   7
HETATM    7  C3  UNL     1      24.588   3.779  59.223  1.00  0.00    -0.024 C
HETATM    8  C2  UNL     1      24.849   3.107  60.305  1.00  0.00    -0.087 C
HETATM    9  C1  UNL     1      26.236   3.029  60.817  1.00  0.00     0.043 C
BRANCH   8  10
HETATM   10  C14 UNL     1      23.800   2.411  61.065  1.00  0.00     0.038 C
BRANCH  10  11
HETATM   11  C15 UNL     1      23.738   0.948  60.751  1.00  0.00    -0.007 C
HETATM   12  C16 UNL     1      24.336   0.165  61.913  1.00  0.00     0.011 C
BRANCH  11  13
HETATM   13  C17 UNL     1      22.441   0.349  60.433  1.00  0.00     0.027 C
HETATM   14  C18 UNL     1      21.214   0.968  61.020  1.00  0.00     0.123 C
HETATM   15  C19 UNL     1      20.223  -0.154  61.322  1.00  0.00     0.032 C
HETATM   16  C20 UNL     1      20.445  -1.310  60.332  1.00  0.00     0.009 C
HETATM   17  C21 UNL     1      20.821  -0.705  59.018  1.00  0.00     0.007 C
HETATM   18  C22 UNL     1      20.440  -1.515  57.821  1.00  0.00     0.007 C
HETATM   19  C28 UNL     1      22.230  -0.158  59.012  1.00  0.00    -0.033 C
HETATM   20  C23 UNL     1      20.713  -2.975  57.918  1.00  0.00     0.020 C
HETATM   21  C25 UNL     1      21.017  -0.847  56.596  1.00  0.00     0.128 C
HETATM   22  C26 UNL     1      21.200   0.627  56.849  1.00  0.00     0.033 C
HETATM   23  C27 UNL     1      22.220   0.905  57.961  1.00  0.00     0.012 C
HETATM   24  C29 UNL     1      23.317  -1.148  58.792  1.00  0.00     0.016 C
BRANCH  14  25
HETATM   25  O1  UNL     1      21.500   1.604  62.197  1.00  0.00    -0.395 OA
ATOM     26  H1  UNL     1      21.365   1.025  62.938  1.00  0.00     0.210 HD
ENDBRANCH  14  25
BRANCH  18  27
HETATM   27  C24 UNL     1      18.915  -1.390  57.668  1.00  0.00     0.176 C
BRANCH  27  28
HETATM   28  O2  UNL     1      18.316  -2.535  57.225  1.00  0.00    -0.400 OA
ATOM     29  H2  UNL     1      18.180  -3.181  57.908  1.00  0.00     0.209 HD
ENDBRANCH  27  28
ENDBRANCH  18  27
BRANCH  21  30
HETATM   30  O3  UNL     1      20.126  -0.905  55.492  1.00  0.00    -0.395 OA
ATOM     31  H3  UNL     1      19.586  -0.126  55.430  1.00  0.00     0.210 HD
ENDBRANCH  21  30
ENDBRANCH  11  13
ENDBRANCH  10  11
ENDBRANCH   8  10
ENDBRANCH   6   7
ENDBRANCH   5   6
ENDBRANCH   1   5
BRANCH   1  32
HETATM   32  C9  UNL     1      22.266   6.219  56.324  1.00  0.00    -0.006 C
HETATM   33  C10 UNL     1      23.365   6.941  56.513  1.00  0.00    -0.025 C
BRANCH  33  34
HETATM   34  C11 UNL     1      23.324   8.429  56.483  1.00  0.00    -0.001 C
HETATM   35  C12 UNL     1      23.934   9.001  57.758  1.00  0.00     0.013 C
HETATM   36  C13 UNL     1      21.913   8.925  56.313  1.00  0.00     0.013 C
ENDBRANCH  33  34
ENDBRANCH   1  32
TORSDOF 12
ENDMDL