MODEL 5
REMARK VINA RESULT: -7.314705684      2.613      6.592
REMARK  12 active torsions:
REMARK  status: ('A' for Active; 'I' for Inactive)
REMARK    1  A    between atoms: C2_2  and  O1_4
REMARK    2  A    between atoms: C2_2  and  C4_6
REMARK    3  A    between atoms: C4_6  and  C5_7
REMARK    4  A    between atoms: C5_7  and  C6_8
REMARK    5  A    between atoms: C6_8  and  C7_9
REMARK    6  A    between atoms: C7_9  and  C8_10
REMARK    7  A    between atoms: C8_10  and  C9_11
REMARK    8  A    between atoms: C15_18  and  C16_19
REMARK    9  A    between atoms: C21_24  and  C22_25
REMARK   10  A    between atoms: C21_24  and  C23_28
REMARK   11  A    between atoms: C22_25  and  O3_26
REMARK   12  A    between atoms: C23_28  and  O4_29
ROOT
HETATM    1  C8  UNL     1      19.919  -0.874  59.780  1.00  0.00     0.021 C
HETATM    2  C10 UNL     1      19.971  -2.024  60.735  1.00  0.00     0.018 C
HETATM    3  C11 UNL     1      21.212  -2.315  61.455  1.00  0.00     0.006 C
HETATM    4  C12 UNL     1      22.257  -1.274  61.507  1.00  0.00    -0.005 C
HETATM    5  C13 UNL     1      23.581  -1.981  61.517  1.00  0.00     0.006 C
HETATM    6  C14 UNL     1      24.503  -1.020  60.889  1.00  0.00     0.006 C
HETATM    7  C15 UNL     1      23.661   0.167  60.335  1.00  0.00     0.003 C
HETATM    8  C25 UNL     1      22.398  -0.452  60.225  1.00  0.00    -0.028 C
HETATM    9  C26 UNL     1      22.589  -1.531  59.125  1.00  0.00     0.016 C
HETATM   10  C27 UNL     1      21.076   0.128  59.970  1.00  0.00    -0.026 C
HETATM   11  C28 UNL     1      20.527   0.938  61.148  1.00  0.00     0.016 C
HETATM   12  C29 UNL     1      21.002   1.044  58.780  1.00  0.00     0.016 C
ENDROOT
BRANCH   7  13
HETATM   13  C16 UNL     1      24.280   1.314  60.972  1.00  0.00    -0.039 C
HETATM   14  C17 UNL     1      23.908   1.662  62.409  1.00  0.00     0.015 C
HETATM   15  C18 UNL     1      25.794   1.319  61.010  1.00  0.00     0.010 C
HETATM   16  C19 UNL     1      26.330   2.694  61.419  1.00  0.00     0.002 C
HETATM   17  C20 UNL     1      26.119   3.554  60.227  1.00  0.00     0.014 C
HETATM   18  C21 UNL     1      24.650   3.689  60.008  1.00  0.00     0.003 C
HETATM   19  C24 UNL     1      23.764   2.569  60.232  1.00  0.00     0.023 C
BRANCH  18  20
HETATM   20  C22 UNL     1      24.238   4.933  60.826  1.00  0.00     0.175 C
BRANCH  20  21
HETATM   21  O3  UNL     1      24.598   6.098  60.194  1.00  0.00    -0.400 OA
ATOM     22  H3  UNL     1      24.864   6.766  60.814  1.00  0.00     0.209 HD
ENDBRANCH  20  21
ENDBRANCH  18  20
BRANCH  18  23
HETATM   23  C23 UNL     1      24.523   4.199  58.554  1.00  0.00     0.175 C
BRANCH  23  24
HETATM   24  O4  UNL     1      23.172   4.318  58.212  1.00  0.00    -0.400 OA
ATOM     25  H4  UNL     1      23.086   4.399  57.269  1.00  0.00     0.209 HD
ENDBRANCH  23  24
ENDBRANCH  18  23
ENDBRANCH   7  13
BRANCH   1  26
HETATM   26  C7  UNL     1      18.600  -0.214  60.100  1.00  0.00     0.017 C
BRANCH  26  27
HETATM   27  C6  UNL     1      17.498  -0.298  59.132  1.00  0.00     0.001 C
BRANCH  27  28
HETATM   28  C5  UNL     1      16.253  -1.032  59.361  1.00  0.00     0.003 C
BRANCH  28  29
HETATM   29  C4  UNL     1      16.386  -2.466  59.831  1.00  0.00     0.037 C
BRANCH  29  30
HETATM   30  C2  UNL     1      15.654  -3.313  58.801  1.00  0.00     0.051 C
HETATM   31  C1  UNL     1      14.745  -2.497  57.929  1.00  0.00     0.045 C
HETATM   32  C3  UNL     1      16.617  -4.134  57.977  1.00  0.00     0.045 C
BRANCH  30  33
HETATM   33  O1  UNL     1      14.839  -4.194  59.533  1.00  0.00    -0.391 OA
ATOM     34  H1  UNL     1      14.726  -4.974  59.001  1.00  0.00     0.210 HD
ENDBRANCH  30  33
ENDBRANCH  29  30
ENDBRANCH  28  29
ENDBRANCH  27  28
ENDBRANCH  26  27
ENDBRANCH   1  26
BRANCH   1  35
HETATM   35  C9  UNL     1      19.763  -1.302  58.372  1.00  0.00     0.241 C
HETATM   36  O2  UNL     1      19.721  -2.493  57.997  1.00  0.00    -0.306 OA
ENDBRANCH   1  35
TORSDOF 12
ENDMDL