MODEL 2
REMARK VINA RESULT: -7.584090356      1.234      1.627
REMARK  11 active torsions:
REMARK  status: ('A' for Active; 'I' for Inactive)
REMARK    1  A    between atoms: C2_2  and  C3_3
REMARK    2  A    between atoms: C2_2  and  C9_14
REMARK    3  A    between atoms: C3_3  and  C4_4
REMARK    4  A    between atoms: C4_4  and  C5_5
REMARK    5  A    between atoms: C5_5  and  S1_6
REMARK    6  A    between atoms: S1_6  and  C6_7
REMARK    7  A    between atoms: C6_7  and  C7_8
REMARK    8  A    between atoms: C7_8  and  C8_9
REMARK    9  A    between atoms: C8_9  and  N1_10
REMARK   10  A    between atoms: C16_21  and  O1_22
REMARK   11  A    between atoms: C18_25  and  O2_26
ROOT
HETATM    1  C9  UNL     1      23.698   0.098  61.411  1.00  0.00    -0.002 C
HETATM    2  C10 UNL     1      23.767  -1.390  61.670  1.00  0.00     0.006 C
HETATM    3  C11 UNL     1      22.409  -1.885  61.221  1.00  0.00     0.006 C
HETATM    4  C12 UNL     1      22.198  -0.955  60.047  1.00  0.00    -0.002 C
HETATM    5  C13 UNL     1      21.011  -1.169  59.253  1.00  0.00    -0.005 C
HETATM    6  C14 UNL     1      19.947  -2.077  59.795  1.00  0.00     0.008 C
HETATM    7  C15 UNL     1      19.059  -2.430  58.588  1.00  0.00     0.039 C
HETATM    8  C16 UNL     1      18.419  -1.143  58.090  1.00  0.00     0.068 C
HETATM    9  C17 UNL     1      17.441  -1.467  57.019  1.00  0.00     0.070 C
HETATM   10  C18 UNL     1      18.021  -1.551  55.646  1.00  0.00     0.121 C
HETATM   11  C19 UNL     1      19.024  -0.492  55.325  1.00  0.00     0.032 C
HETATM   12  C20 UNL     1      20.093  -0.555  56.430  1.00  0.00     0.015 C
HETATM   13  C21 UNL     1      19.457  -0.123  57.683  1.00  0.00    -0.009 C
HETATM   14  C22 UNL     1      18.686   1.174  57.401  1.00  0.00     0.019 C
HETATM   15  C23 UNL     1      20.340   0.134  58.846  1.00  0.00     0.001 C
HETATM   16  C24 UNL     1      21.393   1.172  58.564  1.00  0.00     0.007 C
HETATM   17  C25 UNL     1      22.284   1.436  59.751  1.00  0.00     0.010 C
HETATM   18  C26 UNL     1      22.394   0.371  60.746  1.00  0.00    -0.036 C
HETATM   19  C27 UNL     1      21.354   0.617  61.827  1.00  0.00     0.016 C
ENDROOT
BRANCH   1  20
HETATM   20  C2  UNL     1      24.929   0.696  60.864  1.00  0.00    -0.014 C
HETATM   21  C1  UNL     1      26.067  -0.201  60.551  1.00  0.00     0.010 C
BRANCH  20  22
HETATM   22  C3  UNL     1      25.454   1.880  61.642  1.00  0.00     0.005 C
BRANCH  22  23
HETATM   23  C4  UNL     1      25.236   3.214  61.042  1.00  0.00     0.010 C
BRANCH  23  24
HETATM   24  C5  UNL     1      26.643   3.744  60.699  1.00  0.00     0.074 C
BRANCH  24  25
HETATM   25  S1  UNL     1      26.416   5.492  60.239  1.00  0.00    -0.169 SA
BRANCH  25  26
HETATM   26  C6  UNL     1      24.634   5.731  59.924  1.00  0.00     0.075 C
BRANCH  26  27
HETATM   27  C7  UNL     1      24.382   6.017  58.475  1.00  0.00     0.037 C
BRANCH  27  28
HETATM   28  C8  UNL     1      23.472   4.947  57.918  1.00  0.00     0.230 C
BRANCH  28  29
HETATM   29  N1  UNL     1      24.207   3.720  57.682  1.00  0.00    -0.079 N
ATOM     30  H13 UNL     1      24.717   3.749  56.799  1.00  0.00     0.274 HD
ATOM     31  H12 UNL     1      25.002   3.628  58.315  1.00  0.00     0.274 HD
ATOM     32  H11 UNL     1      23.587   2.912  57.734  1.00  0.00     0.274 HD
ENDBRANCH  28  29
ENDBRANCH  27  28
ENDBRANCH  26  27
ENDBRANCH  25  26
ENDBRANCH  24  25
ENDBRANCH  23  24
ENDBRANCH  22  23
ENDBRANCH  20  22
ENDBRANCH   1  20
BRANCH   8  33
HETATM   33  O1  UNL     1      17.727  -0.605  59.176  1.00  0.00    -0.389 OA
ATOM     34  H1  UNL     1      16.957  -0.181  58.817  1.00  0.00     0.210 HD
ENDBRANCH   8  33
BRANCH  10  35
HETATM   35  O2  UNL     1      16.947  -1.408  54.738  1.00  0.00    -0.395 OA
ATOM     36  H2  UNL     1      17.077  -2.055  54.054  1.00  0.00     0.210 HD
ENDBRANCH  10  35
TORSDOF 11
ENDMDL