MODEL 2
REMARK VINA RESULT: -7.477224201      2.035      3.708
REMARK  12 active torsions:
REMARK  status: ('A' for Active; 'I' for Inactive)
REMARK    1  A    between atoms: O1_2  and  C2_3
REMARK    2  A    between atoms: C2_3  and  C3_4
REMARK    3  A    between atoms: C3_4  and  C4_5
REMARK    4  A    between atoms: C4_5  and  C5_6
REMARK    5  A    between atoms: C5_6  and  O2_8
REMARK    6  A    between atoms: C5_6  and  C7_10
REMARK    7  A    between atoms: C7_10  and  C8_11
REMARK    8  A    between atoms: C8_11  and  C9_12
REMARK    9  A    between atoms: C9_12  and  C10_13
REMARK   10  A    between atoms: C10_13  and  C12_15
REMARK   11  A    between atoms: C22_25  and  O3_26
REMARK   12  A    between atoms: C23_28  and  O4_29
ROOT
HETATM    1  C12 UNL     1      23.922   0.421  61.111  1.00  0.00    -0.002 C
HETATM    2  C13 UNL     1      22.963   1.573  61.598  1.00  0.00     0.006 C
HETATM    3  C14 UNL     1      21.634   0.872  61.435  1.00  0.00     0.006 C
HETATM    4  C15 UNL     1      21.867   0.447  59.996  1.00  0.00    -0.002 C
HETATM    5  C16 UNL     1      20.740  -0.137  59.310  1.00  0.00    -0.003 C
HETATM    6  C17 UNL     1      19.521  -0.452  60.141  1.00  0.00     0.006 C
HETATM    7  C18 UNL     1      18.908  -1.724  59.569  1.00  0.00     0.008 C
HETATM    8  C19 UNL     1      18.781  -1.645  58.084  1.00  0.00     0.023 A
HETATM    9  C20 UNL     1      17.830  -0.592  57.609  1.00  0.00     0.010 A
HETATM   10  C21 UNL     1      18.527   0.251  56.593  1.00  0.00     0.035 A
HETATM   11  C22 UNL     1      19.936  -0.283  56.440  1.00  0.00     0.153 A
HETATM   12  C23 UNL     1      20.084  -1.431  57.360  1.00  0.00     0.091 A
HETATM   13  C24 UNL     1      21.152  -1.287  58.424  1.00  0.00     0.027 C
HETATM   14  C25 UNL     1      22.471  -0.945  57.826  1.00  0.00     0.009 C
HETATM   15  C26 UNL     1      23.573  -0.768  58.851  1.00  0.00     0.010 C
HETATM   16  C27 UNL     1      23.138  -0.385  60.197  1.00  0.00    -0.036 C
HETATM   17  C28 UNL     1      22.745  -1.700  60.923  1.00  0.00     0.016 C
ENDROOT
BRANCH   1  18
HETATM   18  C10 UNL     1      25.187   1.103  60.819  1.00  0.00    -0.014 C
HETATM   19  C11 UNL     1      26.409   0.191  60.849  1.00  0.00     0.010 C
BRANCH  18  20
HETATM   20  C9  UNL     1      25.487   2.380  61.578  1.00  0.00     0.005 C
BRANCH  20  21
HETATM   21  C8  UNL     1      26.730   3.069  61.115  1.00  0.00     0.003 C
BRANCH  21  22
HETATM   22  C7  UNL     1      26.701   3.900  59.911  1.00  0.00     0.037 C
BRANCH  22  23
HETATM   23  C5  UNL     1      26.592   5.364  59.968  1.00  0.00     0.054 C
HETATM   24  C6  UNL     1      27.095   5.893  61.297  1.00  0.00     0.045 C
BRANCH  23  25
HETATM   25  C4  UNL     1      25.102   5.778  59.888  1.00  0.00     0.039 C
BRANCH  25  26
HETATM   26  C3  UNL     1      24.289   4.842  59.049  1.00  0.00     0.029 C
BRANCH  26  27
HETATM   27  C2  UNL     1      23.790   5.679  57.861  1.00  0.00     0.167 C
BRANCH  27  28
HETATM   28  O1  UNL     1      24.719   6.571  57.399  1.00  0.00    -0.396 OA
HETATM   29  C1  UNL     1      24.240   7.624  56.662  1.00  0.00     0.201 C
ENDBRANCH  27  28
ENDBRANCH  26  27
ENDBRANCH  25  26
ENDBRANCH  23  25
BRANCH  23  30
HETATM   30  O2  UNL     1      27.225   6.046  58.961  1.00  0.00    -0.390 OA
ATOM     31  H2  UNL     1      28.153   6.004  59.163  1.00  0.00     0.210 HD
ENDBRANCH  23  30
ENDBRANCH  22  23
ENDBRANCH  21  22
ENDBRANCH  20  21
ENDBRANCH  18  20
ENDBRANCH   1  18
BRANCH  12  32
HETATM   32  O4  UNL     1      20.442  -2.579  56.612  1.00  0.00    -0.386 OA
ATOM     33  H4  UNL     1      21.070  -3.111  57.086  1.00  0.00     0.210 HD
ENDBRANCH  12  32
BRANCH  11  34
HETATM   34  O3  UNL     1      20.052  -0.670  55.082  1.00  0.00    -0.393 OA
ATOM     35  H3  UNL     1      20.683  -0.072  54.697  1.00  0.00     0.210 HD
ENDBRANCH  11  34
TORSDOF 12
ENDMDL