MODEL 3
REMARK VINA RESULT: -6.937368712      2.397      6.341
REMARK  11 active torsions:
REMARK  status: ('A' for Active; 'I' for Inactive)
REMARK    1  A    between atoms: C2_2  and  C4_4
REMARK    2  A    between atoms: C4_4  and  C5_5
REMARK    3  A    between atoms: C5_5  and  C6_6
REMARK    4  A    between atoms: C6_6  and  C7_7
REMARK    5  A    between atoms: C8_8  and  O1_9
REMARK    6  A    between atoms: C9_11  and  O2_12
REMARK    7  A    between atoms: C19_23  and  C21_25
REMARK    8  A    between atoms: C21_25  and  C22_26
REMARK    9  A    between atoms: C22_26  and  C23_27
REMARK   10  A    between atoms: C23_27  and  C24_28
REMARK   11  A    between atoms: C24_28  and  O3_31
ROOT
HETATM    1  C7  UNL     1      19.854   1.626  57.272  1.00  0.00     0.022 C
HETATM    2  C8  UNL     1      18.496   0.984  57.246  1.00  0.00     0.151 C
HETATM    3  C9  UNL     1      18.089   0.250  58.471  1.00  0.00     0.148 C
HETATM    4  C10 UNL     1      19.291  -0.632  58.856  1.00  0.00     0.044 C
HETATM    5  C11 UNL     1      20.344   0.299  59.345  1.00  0.00    -0.033 C
HETATM    6  C12 UNL     1      19.603   1.345  60.211  1.00  0.00     0.016 C
HETATM    7  C13 UNL     1      20.880   1.083  58.171  1.00  0.00     0.001 C
HETATM    8  C14 UNL     1      22.017   0.320  57.522  1.00  0.00     0.007 C
HETATM    9  C15 UNL     1      23.109   0.195  58.609  1.00  0.00     0.014 C
HETATM   10  C16 UNL     1      22.643  -0.791  59.572  1.00  0.00    -0.016 C
HETATM   11  C17 UNL     1      22.377  -2.088  58.831  1.00  0.00     0.020 C
HETATM   12  C18 UNL     1      23.444  -1.124  60.771  1.00  0.00    -0.069 C
HETATM   13  C19 UNL     1      24.407  -0.288  61.383  1.00  0.00    -0.081 C
HETATM   14  C20 UNL     1      25.612   0.081  60.441  1.00  0.00     0.043 C
HETATM   15  C27 UNL     1      22.436  -1.805  61.631  1.00  0.00     0.036 C
HETATM   16  C28 UNL     1      21.052  -1.307  61.167  1.00  0.00     0.011 C
HETATM   17  C29 UNL     1      21.397  -0.235  60.216  1.00  0.00     0.007 C
ENDROOT
BRANCH  13  18
HETATM   18  C21 UNL     1      24.199   0.956  62.146  1.00  0.00     0.034 C
BRANCH  18  19
HETATM   19  C22 UNL     1      24.813   2.229  61.664  1.00  0.00     0.007 C
BRANCH  19  20
HETATM   20  C23 UNL     1      24.027   3.068  60.743  1.00  0.00     0.037 C
BRANCH  20  21
HETATM   21  C24 UNL     1      24.612   4.011  59.813  1.00  0.00     0.051 C
HETATM   22  C25 UNL     1      23.802   3.866  58.487  1.00  0.00     0.045 C
HETATM   23  C26 UNL     1      24.655   5.455  60.061  1.00  0.00     0.045 C
BRANCH  21  24
HETATM   24  O3  UNL     1      25.915   3.599  59.428  1.00  0.00    -0.391 OA
ATOM     25  H3  UNL     1      26.186   2.831  59.918  1.00  0.00     0.210 HD
ENDBRANCH  21  24
ENDBRANCH  20  21
ENDBRANCH  19  20
ENDBRANCH  18  19
ENDBRANCH  13  18
BRANCH   1  26
HETATM   26  C6  UNL     1      20.247   2.004  55.896  1.00  0.00     0.007 C
BRANCH  26  27
HETATM   27  C5  UNL     1      20.457   3.414  55.546  1.00  0.00     0.001 C
BRANCH  27  28
HETATM   28  C4  UNL     1      20.519   3.635  54.027  1.00  0.00     0.004 C
BRANCH  28  29
HETATM   29  C2  UNL     1      19.173   3.231  53.475  1.00  0.00    -0.023 C
HETATM   30  C1  UNL     1      19.300   2.303  52.295  1.00  0.00     0.009 C
HETATM   31  C3  UNL     1      18.393   4.447  52.990  1.00  0.00     0.009 C
ENDBRANCH  28  29
ENDBRANCH  27  28
ENDBRANCH  26  27
ENDBRANCH   1  26
BRANCH   3  32
HETATM   32  O2  UNL     1      17.031  -0.623  58.098  1.00  0.00    -0.393 OA
ATOM     33  H2  UNL     1      16.987  -0.613  57.149  1.00  0.00     0.210 HD
ENDBRANCH   3  32
BRANCH   2  34
HETATM   34  O1  UNL     1      17.534   1.961  56.996  1.00  0.00    -0.393 OA
ATOM     35  H1  UNL     1      17.785   2.454  56.224  1.00  0.00     0.210 HD
ENDBRANCH   2  34
TORSDOF 11
ENDMDL