MODEL 5
REMARK VINA RESULT: -7.317788260      4.546      8.593
REMARK  12 active torsions:
REMARK  status: ('A' for Active; 'I' for Inactive)
REMARK    1  A    between atoms: C2_2  and  C3_3
REMARK    2  A    between atoms: C3_3  and  C4_4
REMARK    3  A    between atoms: C4_4  and  C5_5
REMARK    4  A    between atoms: C5_5  and  C6_6
REMARK    5  A    between atoms: C6_6  and  C7_7
REMARK    6  A    between atoms: C7_7  and  C8_8
REMARK    7  A    between atoms: C8_8  and  C9_9
REMARK    8  A    between atoms: C9_9  and  C10_10
REMARK    9  A    between atoms: C10_10  and  O1_12
REMARK   10  A    between atoms: C10_10  and  C12_14
REMARK   11  A    between atoms: C21_23  and  O2_24
REMARK   12  A    between atoms: C22_26  and  O3_27
ROOT
HETATM    1  C12 UNL     1      22.490  -0.591  59.416  1.00  0.00     0.024 C
HETATM    2  C13 UNL     1      22.606  -1.930  58.752  1.00  0.00     0.008 C
HETATM    3  C14 UNL     1      21.243  -2.048  58.063  1.00  0.00     0.006 C
HETATM    4  C15 UNL     1      20.431  -0.885  58.487  1.00  0.00    -0.005 C
HETATM    5  C16 UNL     1      18.999  -1.096  58.682  1.00  0.00    -0.003 C
HETATM    6  C17 UNL     1      18.191  -1.470  57.505  1.00  0.00     0.017 C
HETATM    7  C18 UNL     1      17.074  -2.317  58.051  1.00  0.00    -0.015 C
HETATM    8  C19 UNL     1      17.326  -3.751  57.645  1.00  0.00     0.018 C
HETATM    9  C20 UNL     1      15.724  -1.907  57.559  1.00  0.00     0.046 C
HETATM   10  C21 UNL     1      14.616  -2.497  58.363  1.00  0.00     0.149 C
HETATM   11  C22 UNL     1      14.560  -2.002  59.774  1.00  0.00     0.170 C
HETATM   12  C23 UNL     1      15.427  -0.817  60.024  1.00  0.00     0.202 C
HETATM   13  O4  UNL     1      16.761  -1.059  60.089  1.00  0.00    -0.382 OA
HETATM   14  C24 UNL     1      17.198  -2.241  59.569  1.00  0.00     0.134 C
HETATM   15  C25 UNL     1      18.718  -2.219  59.663  1.00  0.00     0.020 C
HETATM   16  C26 UNL     1      19.210  -1.744  60.994  1.00  0.00     0.008 C
HETATM   17  C27 UNL     1      20.676  -1.449  60.928  1.00  0.00     0.006 C
HETATM   18  C28 UNL     1      21.072  -0.521  59.828  1.00  0.00    -0.003 C
ENDROOT
BRANCH   1  19
HETATM   19  C10 UNL     1      23.539  -0.275  60.392  1.00  0.00     0.058 C
HETATM   20  C11 UNL     1      23.789  -1.221  61.490  1.00  0.00     0.046 C
BRANCH  19  21
HETATM   21  C9  UNL     1      23.297   1.105  60.978  1.00  0.00     0.038 C
BRANCH  21  22
HETATM   22  C8  UNL     1      24.431   1.323  61.998  1.00  0.00     0.003 C
BRANCH  22  23
HETATM   23  C7  UNL     1      25.316   2.436  61.542  1.00  0.00     0.000 C
BRANCH  23  24
HETATM   24  C6  UNL     1      24.626   3.514  60.769  1.00  0.00     0.000 C
BRANCH  24  25
HETATM   25  C5  UNL     1      25.704   4.290  59.954  1.00  0.00     0.000 C
BRANCH  25  26
HETATM   26  C4  UNL     1      27.046   3.788  60.325  1.00  0.00     0.000 C
BRANCH  26  27
HETATM   27  C3  UNL     1      28.016   4.784  60.786  1.00  0.00    -0.000 C
BRANCH  27  28
HETATM   28  C2  UNL     1      27.507   6.095  61.244  1.00  0.00    -0.005 C
HETATM   29  C1  UNL     1      28.164   6.665  62.458  1.00  0.00     0.005 C
ENDBRANCH  27  28
ENDBRANCH  26  27
ENDBRANCH  25  26
ENDBRANCH  24  25
ENDBRANCH  23  24
ENDBRANCH  22  23
ENDBRANCH  21  22
ENDBRANCH  19  21
BRANCH  19  30
HETATM   30  O1  UNL     1      24.752  -0.147  59.664  1.00  0.00    -0.390 OA
ATOM     31  H1  UNL     1      25.096   0.701  59.921  1.00  0.00     0.210 HD
ENDBRANCH  19  30
ENDBRANCH   1  19
BRANCH  10  32
HETATM   32  O2  UNL     1      14.700  -3.884  58.306  1.00  0.00    -0.393 OA
ATOM     33  H2  UNL     1      13.936  -4.224  57.854  1.00  0.00     0.210 HD
ENDBRANCH  10  32
BRANCH  11  34
HETATM   34  O3  UNL     1      13.238  -1.630  60.104  1.00  0.00    -0.391 OA
ATOM     35  H3  UNL     1      13.234  -0.773  60.514  1.00  0.00     0.210 HD
ENDBRANCH  11  34
TORSDOF 12
ENDMDL