MODEL 1
REMARK VINA RESULT: -7.772448631      0.000      0.000
REMARK  11 active torsions:
REMARK  status: ('A' for Active; 'I' for Inactive)
REMARK    1  A    between atoms: C2_2  and  C3_3
REMARK    2  A    between atoms: C2_2  and  C10_12
REMARK    3  A    between atoms: C3_3  and  C4_4
REMARK    4  A    between atoms: C4_4  and  C5_5
REMARK    5  A    between atoms: C5_5  and  C6_6
REMARK    6  A    between atoms: C6_6  and  C7_7
REMARK    7  A    between atoms: C7_7  and  S1_8
REMARK    8  A    between atoms: S1_8  and  C8_9
REMARK    9  A    between atoms: C8_9  and  C9_10
REMARK   10  A    between atoms: C18_20  and  O1_21
REMARK   11  A    between atoms: C22_26  and  O2_27
ROOT
HETATM    1  C10 UNL     1      26.078   4.730  60.835  1.00  0.00    -0.006 C
HETATM    2  C11 UNL     1      25.279   5.815  60.153  1.00  0.00     0.006 C
HETATM    3  C12 UNL     1      26.201   6.549  59.236  1.00  0.00     0.006 C
HETATM    4  C13 UNL     1      27.551   6.354  59.842  1.00  0.00    -0.003 C
HETATM    5  C14 UNL     1      27.504   5.005  60.507  1.00  0.00    -0.005 C
HETATM    6  C15 UNL     1      28.348   5.254  61.757  1.00  0.00     0.011 C
HETATM    7  C16 UNL     1      27.868   6.635  62.199  1.00  0.00     0.001 C
HETATM    8  C17 UNL     1      27.766   7.383  60.940  1.00  0.00     0.024 C
HETATM    9  C18 UNL     1      28.938   8.219  60.560  1.00  0.00     0.123 C
HETATM   10  C19 UNL     1      29.294   9.098  61.741  1.00  0.00     0.037 C
HETATM   11  C20 UNL     1      29.789   8.138  62.801  1.00  0.00    -0.001 C
HETATM   12  C21 UNL     1      30.419   8.832  63.968  1.00  0.00     0.037 C
HETATM   13  C22 UNL     1      31.026   7.855  64.909  1.00  0.00     0.118 C
HETATM   14  C23 UNL     1      30.216   6.648  65.199  1.00  0.00     0.032 C
HETATM   15  C24 UNL     1      29.414   6.123  64.059  1.00  0.00     0.012 C
HETATM   16  C25 UNL     1      28.707   7.214  63.278  1.00  0.00    -0.036 C
HETATM   17  C26 UNL     1      27.790   7.913  64.286  1.00  0.00     0.016 C
ENDROOT
BRANCH   1  18
HETATM   18  C2  UNL     1      25.569   3.398  60.302  1.00  0.00    -0.014 C
HETATM   19  C1  UNL     1      24.124   3.546  59.958  1.00  0.00     0.010 C
BRANCH  18  20
HETATM   20  C3  UNL     1      25.826   2.283  61.287  1.00  0.00     0.005 C
BRANCH  20  21
HETATM   21  C4  UNL     1      24.602   1.822  61.997  1.00  0.00     0.000 C
BRANCH  21  22
HETATM   22  C5  UNL     1      24.360   0.338  61.937  1.00  0.00     0.001 C
BRANCH  22  23
HETATM   23  C6  UNL     1      23.103   0.115  61.152  1.00  0.00     0.010 C
BRANCH  23  24
HETATM   24  C7  UNL     1      21.983   1.039  61.584  1.00  0.00     0.074 C
BRANCH  24  25
HETATM   25  S1  UNL     1      20.379   0.409  60.990  1.00  0.00    -0.168 SA
BRANCH  25  26
HETATM   26  C8  UNL     1      19.852  -1.017  61.958  1.00  0.00     0.084 C
BRANCH  26  27
HETATM   27  C9  UNL     1      20.179  -2.323  61.245  1.00  0.00     0.096 C
HETATM   28  S2  UNL     1      20.355  -2.008  59.471  1.00  0.00    -0.097 SA
ENDBRANCH  26  27
ENDBRANCH  25  26
ENDBRANCH  24  25
ENDBRANCH  23  24
ENDBRANCH  22  23
ENDBRANCH  21  22
ENDBRANCH  20  21
ENDBRANCH  18  20
ENDBRANCH   1  18
BRANCH   9  29
HETATM   29  O1  UNL     1      30.074   7.449  60.284  1.00  0.00    -0.395 OA
ATOM     30  H1  UNL     1      30.513   7.156  61.074  1.00  0.00     0.210 HD
ENDBRANCH   9  29
BRANCH  13  31
HETATM   31  O2  UNL     1      32.328   7.511  64.491  1.00  0.00    -0.396 OA
ATOM     32  H2  UNL     1      32.651   6.769  64.988  1.00  0.00     0.210 HD
ENDBRANCH  13  31
TORSDOF 11
ENDMDL