MODEL 3
REMARK VINA RESULT: -8.364012274      3.724      8.606
REMARK  5 active torsions:
REMARK  status: ('A' for Active; 'I' for Inactive)
REMARK    1  A    between atoms: C2_2  and  N1_3
REMARK    2  A    between atoms: N1_3  and  C3_5
REMARK    3  A    between atoms: C3_5  and  C4_6
REMARK    4  A    between atoms: C4_6  and  N2_7
REMARK    5  A    between atoms: N2_7  and  C5_9
ROOT
HETATM    1  C5  UNL     1       3.228 -17.302   1.854  1.00  0.00     0.678 A
HETATM    2  N3  UNL     1       3.789 -17.722   2.995  1.00  0.00    -0.191 N
ATOM      3  H3  UNL     1       3.261 -18.362   3.589  1.00  0.00     0.184 HD
HETATM    4  C6  UNL     1       5.014 -17.344   3.395  1.00  0.00     0.060 A
HETATM    5  C7  UNL     1       5.580 -17.817   4.634  1.00  0.00    -0.009 A
HETATM    6  C8  UNL     1       4.822 -18.666   5.430  1.00  0.00     0.014 A
HETATM    7  C9  UNL     1       5.308 -19.150   6.619  1.00  0.00     0.001 A
HETATM    8  C10 UNL     1       6.568 -18.784   7.023  1.00  0.00     0.000 A
HETATM    9  C11 UNL     1       7.358 -17.947   6.273  1.00  0.00     0.001 A
HETATM   10  C12 UNL     1       6.825 -17.479   5.075  1.00  0.00     0.014 A
HETATM   11  C13 UNL     1       5.718 -16.486   2.597  1.00  0.00     0.048 A
HETATM   12  C14 UNL     1       5.144 -16.048   1.418  1.00  0.00     0.108 A
HETATM   13  N4  UNL     1       3.910 -16.456   1.058  1.00  0.00    -0.202 N
ATOM     14  H4  UNL     1       3.496 -16.126   0.186  1.00  0.00     0.183 HD
ENDROOT
BRANCH   1  15
HETATM   15  N2  UNL     1       2.039 -17.684   1.485  1.00  0.00    -0.224 N
ATOM     16  H2  UNL     1       1.263 -17.553   2.133  1.00  0.00     0.177 HD
BRANCH  15  17
HETATM   17  C4  UNL     1       1.768 -18.285   0.194  1.00  0.00     0.157 C
BRANCH  17  18
HETATM   18  C3  UNL     1       0.510 -19.088   0.330  1.00  0.00     0.134 C
BRANCH  18  19
HETATM   19  N1  UNL     1      -0.589 -18.654  -0.460  1.00  0.00    -0.420 N
ATOM     20  H1  UNL     1      -1.164 -17.854  -0.193  1.00  0.00     0.153 HD
BRANCH  19  21
HETATM   21  C2  UNL     1      -0.841 -19.400  -1.646  1.00  0.00     0.109 C
HETATM   22  C1  UNL     1      -0.248 -18.630  -2.832  1.00  0.00     0.026 C
ENDBRANCH  19  21
ENDBRANCH  18  19
ENDBRANCH  17  18
ENDBRANCH  15  17
ENDBRANCH   1  15
TORSDOF 5
ENDMDL