MODEL 4
REMARK VINA RESULT: -8.679637304      1.765      2.348
REMARK  7 active torsions:
REMARK  status: ('A' for Active; 'I' for Inactive)
REMARK    1  A    between atoms: C1_4  and  N2_5
REMARK    2  A    between atoms: C1_4  and  C2_10
REMARK    3  A    between atoms: N2_5  and  N3_7
REMARK    4  A    between atoms: C5_13  and  O1_14
REMARK    5  A    between atoms: O1_14  and  C6_15
REMARK    6  A    between atoms: C6_15  and  C7_16
REMARK    7  A    between atoms: C7_16  and  N4_17
ROOT
HETATM    1  C2  UNL     1       8.327 -18.840   7.035  1.00  0.00     0.009 A
HETATM    2  C3  UNL     1       8.470 -18.874   5.663  1.00  0.00     0.018 A
HETATM    3  C4  UNL     1       7.431 -18.775   4.799  1.00  0.00     0.037 A
HETATM    4  C5  UNL     1       6.124 -18.627   5.318  1.00  0.00     0.068 A
HETATM    5  C13 UNL     1       5.970 -18.593   6.685  1.00  0.00     0.037 A
HETATM    6  C14 UNL     1       7.060 -18.698   7.549  1.00  0.00     0.018 A
ENDROOT
BRANCH   1   7
HETATM    7  C1  UNL     1       9.487 -18.952   7.925  1.00  0.00     0.123 C
HETATM    8  N1  UNL     1       9.930 -17.883   8.503  1.00  0.00    -0.384 N
ATOM      9  H12 UNL     1      10.737 -17.961   9.122  1.00  0.00     0.157 HD
ATOM     10  H11 UNL     1       9.485 -16.979   8.346  1.00  0.00     0.157 HD
BRANCH   7  11
HETATM   11  N2  UNL     1      10.102 -20.201   8.142  1.00  0.00    -0.292 N
ATOM     12  H2  UNL     1       9.584 -20.951   8.599  1.00  0.00     0.188 HD
BRANCH  11  13
HETATM   13  N3  UNL     1      11.408 -20.410   7.736  1.00  0.00    -0.344 N
ATOM     14  H32 UNL     1      11.871 -19.698   7.172  1.00  0.00     0.176 HD
ATOM     15  H31 UNL     1      11.894 -21.267   8.001  1.00  0.00     0.176 HD
ENDBRANCH  11  13
ENDBRANCH   7  11
ENDBRANCH   1   7
BRANCH   4  16
HETATM   16  O1  UNL     1       5.073 -18.530   4.448  1.00  0.00    -0.350 OA
BRANCH  16  17
HETATM   17  C6  UNL     1       4.730 -17.604   3.514  1.00  0.00     0.196 C
BRANCH  17  18
HETATM   18  C7  UNL     1       5.169 -17.978   2.123  1.00  0.00     0.154 C
BRANCH  18  19
HETATM   19  N4  UNL     1       3.975 -18.065   1.269  1.00  0.00    -0.364 N
HETATM   20  C8  UNL     1       3.293 -16.939   1.052  1.00  0.00     0.090 A
HETATM   21  C9  UNL     1       2.179 -16.981   0.264  1.00  0.00     0.017 A
HETATM   22  C10 UNL     1       1.773 -18.170  -0.294  1.00  0.00     0.003 A
HETATM   23  C11 UNL     1       2.506 -19.309  -0.045  1.00  0.00     0.017 A
HETATM   24  C12 UNL     1       3.625 -19.230   0.756  1.00  0.00     0.090 A
ENDBRANCH  18  19
ENDBRANCH  17  18
ENDBRANCH  16  17
ENDBRANCH   4  16
TORSDOF 7
ENDMDL