MODEL 2
REMARK VINA RESULT: -8.712489454      1.828      2.893
REMARK  7 active torsions:
REMARK  status: ('A' for Active; 'I' for Inactive)
REMARK    1  A    between atoms: C5_5  and  C6_6
REMARK    2  A    between atoms: C6_6  and  C7_7
REMARK    3  A    between atoms: C7_7  and  O1_8
REMARK    4  A    between atoms: C7_7  and  C8_10
REMARK    5  A    between atoms: C8_10  and  N1_11
REMARK    6  A    between atoms: C8_10  and  C9_15
REMARK    7  A    between atoms: C9_15  and  C10_16
ROOT
HETATM    1  C8  UNL     1       6.427 -18.414   6.615  1.00  0.00     0.217 C
ENDROOT
BRANCH   1   2
HETATM    2  C7  UNL     1       6.429 -17.287   5.614  1.00  0.00     0.153 C
BRANCH   2   3
HETATM    3  C6  UNL     1       6.646 -17.615   4.195  1.00  0.00     0.072 C
BRANCH   3   4
HETATM    4  C5  UNL     1       5.622 -17.276   3.212  1.00  0.00    -0.056 A
HETATM    5  C4  UNL     1       4.370 -17.896   3.325  1.00  0.00     0.007 A
HETATM    6  C3  UNL     1       3.343 -17.585   2.442  1.00  0.00     0.007 A
HETATM    7  C2  UNL     1       3.518 -16.671   1.447  1.00  0.00    -0.062 A
HETATM    8  C1  UNL     1       2.393 -16.357   0.513  1.00  0.00     0.048 C
HETATM    9  C14 UNL     1       4.748 -16.045   1.318  1.00  0.00     0.007 A
HETATM   10  C13 UNL     1       5.761 -16.359   2.195  1.00  0.00     0.007 A
ENDBRANCH   3   4
ENDBRANCH   2   3
BRANCH   2  11
HETATM   11  O1  UNL     1       7.514 -16.411   5.994  1.00  0.00    -0.393 OA
ATOM     12  H1  UNL     1       7.155 -15.810   6.636  1.00  0.00     0.210 HD
ENDBRANCH   2  11
ENDBRANCH   1   2
BRANCH   1  13
HETATM   13  N1  UNL     1       5.078 -18.772   7.017  1.00  0.00    -0.072 N
ATOM     14  H13 UNL     1       4.811 -18.303   7.883  1.00  0.00     0.274 HD
ATOM     15  H12 UNL     1       4.382 -18.363   6.393  1.00  0.00     0.274 HD
ATOM     16  H11 UNL     1       4.962 -19.783   7.091  1.00  0.00     0.274 HD
ENDBRANCH   1  13
BRANCH   1  17
HETATM   17  C9  UNL     1       7.160 -19.610   6.117  1.00  0.00     0.093 C
BRANCH  17  18
HETATM   18  C10 UNL     1       8.453 -19.808   6.798  1.00  0.00     0.027 A
HETATM   19  C11 UNL     1       9.047 -18.867   7.671  1.00  0.00     0.114 A
HETATM   20  N2  UNL     1      10.206 -19.344   8.138  1.00  0.00    -0.360 N
HETATM   21  C12 UNL     1      10.388 -20.555   7.603  1.00  0.00     0.180 A
ATOM     22  H2  UNL     1      10.837 -18.870   8.785  1.00  0.00     0.166 HD
HETATM   23  N3  UNL     1       9.336 -20.815   6.809  1.00  0.00    -0.355 N
ATOM     24  H3  UNL     1       9.223 -21.678   6.277  1.00  0.00     0.166 HD
ENDBRANCH  17  18
ENDBRANCH   1  17
TORSDOF 7
ENDMDL