MODEL 5
REMARK VINA RESULT: -7.389480853      1.178      1.675
REMARK  7 active torsions:
REMARK  status: ('A' for Active; 'I' for Inactive)
REMARK    1  A    between atoms: O1_1  and  C1_3
REMARK    2  A    between atoms: C1_3  and  C2_4
REMARK    3  A    between atoms: C2_4  and  C3_5
REMARK    4  A    between atoms: C2_4  and  N1_8
REMARK    5  A    between atoms: C3_5  and  O2_6
REMARK    6  A    between atoms: C4_10  and  C5_11
REMARK    7  A    between atoms: C5_11  and  N2_12
ROOT
HETATM    1  C5  UNL     1       6.078 -17.627   3.454  1.00  0.00     0.171 C
ENDROOT
BRANCH   1   2
HETATM    2  C4  UNL     1       4.658 -17.602   3.842  1.00  0.00     0.076 C
HETATM    3  N1  UNL     1       3.771 -17.556   2.903  1.00  0.00    -0.392 N
ATOM      4  H1  UNL     1       2.782 -17.539   3.152  1.00  0.00     0.159 HD
BRANCH   3   5
HETATM    5  C2  UNL     1       4.145 -17.527   1.519  1.00  0.00     0.128 C
BRANCH   5   6
HETATM    6  C1  UNL     1       4.156 -16.055   1.112  1.00  0.00     0.191 C
BRANCH   6   7
HETATM    7  O1  UNL     1       2.974 -15.699   0.474  1.00  0.00    -0.399 OA
ATOM      8  H1  UNL     1       2.897 -14.756   0.392  1.00  0.00     0.209 HD
ENDBRANCH   6   7
ENDBRANCH   5   6
BRANCH   5   9
HETATM    9  C3  UNL     1       3.030 -18.241   0.748  1.00  0.00     0.191 C
BRANCH   9  10
HETATM   10  O2  UNL     1       1.808 -18.025   1.369  1.00  0.00    -0.399 OA
ATOM     11  H2  UNL     1       1.941 -17.626   2.221  1.00  0.00     0.209 HD
ENDBRANCH   9  10
ENDBRANCH   5   9
ENDBRANCH   3   5
ENDBRANCH   1   2
BRANCH   1  12
HETATM   12  N2  UNL     1       6.921 -17.890   4.603  1.00  0.00    -0.361 N
HETATM   13  C6  UNL     1       7.190 -16.902   5.475  1.00  0.00     0.091 A
HETATM   14  C7  UNL     1       7.983 -17.088   6.587  1.00  0.00     0.029 A
HETATM   15  C8  UNL     1       8.542 -18.341   6.842  1.00  0.00    -0.023 A
HETATM   16  C9  UNL     1       9.339 -18.568   7.941  1.00  0.00     0.012 A
HETATM   17  C13 UNL     1       8.251 -19.337   5.933  1.00  0.00    -0.010 A
HETATM   18  C10 UNL     1       9.851 -19.824   8.122  1.00  0.00     0.001 A
HETATM   19  C11 UNL     1       9.581 -20.845   7.234  1.00  0.00     0.001 A
HETATM   20  C12 UNL     1       8.780 -20.613   6.134  1.00  0.00     0.013 A
HETATM   21  C14 UNL     1       7.451 -19.104   4.836  1.00  0.00     0.103 A
ENDBRANCH   1  12
TORSDOF 7
ENDMDL