MODEL 3
REMARK VINA RESULT: -7.523908636      3.146      4.902
REMARK  7 active torsions:
REMARK  status: ('A' for Active; 'I' for Inactive)
REMARK    1  A    between atoms: N1_2  and  C2_4
REMARK    2  A    between atoms: C2_4  and  N2_6
REMARK    3  A    between atoms: N2_6  and  C3_8
REMARK    4  A    between atoms: C3_8  and  C4_9
REMARK    5  A    between atoms: C4_9  and  N3_10
REMARK    6  A    between atoms: N3_10  and  N4_12
REMARK    7  A    between atoms: C5_14  and  C6_15
ROOT
HETATM    1  N3  UNL     1       7.859 -17.646   4.895  1.00  0.00    -0.335 N
ATOM      2  H3  UNL     1       8.318 -18.517   4.625  1.00  0.00     0.180 HD
ENDROOT
BRANCH   1   3
HETATM    3  C4  UNL     1       8.280 -16.937   6.071  1.00  0.00     0.159 C
BRANCH   3   4
HETATM    4  C3  UNL     1       8.179 -17.864   7.285  1.00  0.00     0.143 C
BRANCH   4   5
HETATM    5  N2  UNL     1       9.527 -18.308   7.657  1.00  0.00    -0.366 N
ATOM      6  H2  UNL     1      10.189 -17.678   8.111  1.00  0.00     0.161 HD
BRANCH   5   7
HETATM    7  C2  UNL     1       9.870 -19.655   7.359  1.00  0.00     0.167 C
HETATM    8  S1  UNL     1       8.851 -20.629   6.523  1.00  0.00    -0.041 SA
BRANCH   7   9
HETATM    9  N1  UNL     1      11.135 -20.137   7.808  1.00  0.00    -0.372 N
HETATM   10  C1  UNL     1      11.300 -21.571   7.915  1.00  0.00     0.148 C
ATOM     11  H1  UNL     1      11.894 -19.497   8.045  1.00  0.00     0.161 HD
ENDBRANCH   7   9
ENDBRANCH   5   7
ENDBRANCH   4   5
ENDBRANCH   3   4
ENDBRANCH   1   3
BRANCH   1  12
HETATM   12  N4  UNL     1       6.819 -17.131   4.129  1.00  0.00    -0.315 N
HETATM   13  C5  UNL     1       6.175 -17.935   3.345  1.00  0.00     0.118 C
ATOM     14  H4  UNL     1       6.570 -16.143   4.183  1.00  0.00     0.185 HD
BRANCH  13  15
HETATM   15  C6  UNL     1       5.085 -17.381   2.548  1.00  0.00    -0.019 A
HETATM   16  C7  UNL     1       5.253 -16.259   1.761  1.00  0.00     0.013 A
HETATM   17  C8  UNL     1       4.216 -15.756   1.020  1.00  0.00     0.001 A
HETATM   18  C9  UNL     1       2.972 -16.354   1.038  1.00  0.00     0.000 A
HETATM   19  C10 UNL     1       2.781 -17.457   1.801  1.00  0.00     0.001 A
HETATM   20  C11 UNL     1       3.831 -17.961   2.548  1.00  0.00     0.013 A
ENDBRANCH  13  15
ENDBRANCH   1  12
TORSDOF 7
ENDMDL