MODEL 4
REMARK VINA RESULT: -6.088497768      2.145      5.577
REMARK  6 active torsions:
REMARK  status: ('A' for Active; 'I' for Inactive)
REMARK    1  A    between atoms: C2_2  and  C4_4
REMARK    2  A    between atoms: C4_4  and  C5_5
REMARK    3  A    between atoms: C5_5  and  N1_6
REMARK    4  A    between atoms: C5_5  and  C7_11
REMARK    5  A    between atoms: C7_11  and  O1_12
REMARK    6  A    between atoms: C7_11  and  C8_14
ROOT
HETATM    1  C5  UNL     1       6.299 -18.404   4.997  1.00  0.00     0.117 C
ENDROOT
BRANCH   1   2
HETATM    2  C4  UNL     1       4.898 -18.060   4.565  1.00  0.00     0.032 C
BRANCH   2   3
HETATM    3  C2  UNL     1       4.875 -17.379   3.211  1.00  0.00    -0.021 C
HETATM    4  C1  UNL     1       5.873 -18.032   2.278  1.00  0.00     0.009 C
HETATM    5  C3  UNL     1       3.508 -17.463   2.585  1.00  0.00     0.009 C
ENDBRANCH   2   3
ENDBRANCH   1   2
BRANCH   1   6
HETATM    6  N1  UNL     1       6.969 -17.252   5.508  1.00  0.00    -0.359 N
HETATM    7  C6  UNL     1       8.245 -17.026   5.316  1.00  0.00     0.197 C
HETATM    8  N2  UNL     1       8.853 -15.858   5.852  1.00  0.00    -0.067 NA
HETATM    9  N3  UNL     1       8.991 -17.968   4.567  1.00  0.00    -0.067 NA
ATOM     10  H1  UNL     1       6.430 -16.573   6.046  1.00  0.00     0.162 HD
ENDBRANCH   1   6
BRANCH   1  11
HETATM   11  C7  UNL     1       6.187 -19.412   6.136  1.00  0.00     0.174 C
BRANCH  11  12
HETATM   12  O1  UNL     1       5.246 -18.945   7.084  1.00  0.00    -0.389 OA
ATOM     13  H1  UNL     1       5.692 -18.421   7.738  1.00  0.00     0.210 HD
ENDBRANCH  11  12
BRANCH  11  14
HETATM   14  C8  UNL     1       7.471 -19.576   6.855  1.00  0.00    -0.025 A
HETATM   15  C9  UNL     1       7.808 -18.795   7.940  1.00  0.00     0.027 A
HETATM   16  C10 UNL     1       8.987 -18.929   8.617  1.00  0.00     0.088 A
HETATM   17  N4  UNL     1       9.868 -19.850   8.231  1.00  0.00    -0.375 N
HETATM   18  C11 UNL     1       9.596 -20.644   7.177  1.00  0.00     0.088 A
ATOM     19  H4  UNL     1      10.749 -19.954   8.733  1.00  0.00     0.164 HD
HETATM   20  C12 UNL     1       8.393 -20.524   6.467  1.00  0.00     0.027 A
ENDBRANCH  11  14
ENDBRANCH   1  11
TORSDOF 6
ENDMDL