MODEL 4
REMARK VINA RESULT: -5.958420519      8.561     10.301
REMARK  7 active torsions:
REMARK  status: ('A' for Active; 'I' for Inactive)
REMARK    1  A    between atoms: C2_2  and  N1_3
REMARK    2  A    between atoms: N2_5  and  O1_6
REMARK    3  A    between atoms: N2_5  and  C3_8
REMARK    4  A    between atoms: C3_8  and  C4_9
REMARK    5  A    between atoms: C3_8  and  C7_17
REMARK    6  A    between atoms: C4_9  and  N4_13
REMARK    7  A    between atoms: N4_13  and  C5_15
ROOT
HETATM    1  C3  UNL     1       1.847 -19.295  -0.572  1.00  0.00     0.232 C
ENDROOT
BRANCH   1   2
HETATM    2  N2  UNL     1       2.412 -20.594  -0.752  1.00  0.00    -0.189 N
HETATM    3  N1  UNL     1       3.341 -20.753  -1.588  1.00  0.00    -0.314 N
ATOM      4  H1  UNL     1       3.652 -19.934  -2.110  1.00  0.00     0.182 HD
BRANCH   3   5
HETATM    5  C2  UNL     1       3.993 -22.005  -1.859  1.00  0.00     0.137 C
HETATM    6  C1  UNL     1       5.224 -21.692  -2.717  1.00  0.00     0.028 C
ENDBRANCH   3   5
BRANCH   2   7
HETATM    7  O1  UNL     1       1.987 -21.685  -0.046  1.00  0.00    -0.271 OA
ATOM      8  H1  UNL     1       1.353 -22.262  -0.455  1.00  0.00     0.246 HD
ENDBRANCH   2   7
ENDBRANCH   1   2
BRANCH   1   9
HETATM    9  C4  UNL     1       0.490 -19.289  -0.020  1.00  0.00     0.102 C
HETATM   10  N3  UNL     1       0.287 -19.749   1.166  1.00  0.00    -0.387 N
ATOM     11  H32 UNL     1       1.116 -20.095   1.650  1.00  0.00     0.157 HD
ATOM     12  H31 UNL     1      -0.657 -19.745   1.551  1.00  0.00     0.157 HD
BRANCH   9  13
HETATM   13  N4  UNL     1      -0.658 -18.809  -0.689  1.00  0.00    -0.378 N
ATOM     14  H4  UNL     1      -1.167 -18.006  -0.320  1.00  0.00     0.160 HD
BRANCH  13  15
HETATM   15  C5  UNL     1      -1.105 -19.454  -1.891  1.00  0.00     0.116 C
HETATM   16  C6  UNL     1      -0.637 -18.761  -3.143  1.00  0.00     0.026 C
ENDBRANCH  13  15
ENDBRANCH   9  13
ENDBRANCH   1   9
BRANCH   1  17
HETATM   17  C7  UNL     1       2.675 -18.413   0.275  1.00  0.00    -0.024 A
HETATM   18  C8  UNL     1       2.449 -17.056   0.240  1.00  0.00     0.010 A
HETATM   19  C9  UNL     1       3.198 -16.177   1.014  1.00  0.00     0.001 A
HETATM   20  C10 UNL     1       4.171 -16.736   1.814  1.00  0.00     0.000 A
HETATM   21  C11 UNL     1       4.404 -18.100   1.854  1.00  0.00     0.001 A
HETATM   22  C12 UNL     1       3.661 -18.954   1.088  1.00  0.00     0.010 A
ENDBRANCH   1  17
TORSDOF 7
ENDMDL