MODEL 2
REMARK VINA RESULT: -6.700858215      1.150      1.507
REMARK  4 active torsions:
REMARK  status: ('A' for Active; 'I' for Inactive)
REMARK    1  A    between atoms: N1_2  and  C3_4
REMARK    2  A    between atoms: C3_4  and  C4_5
REMARK    3  A    between atoms: C6_7  and  N2_8
REMARK       I    between atoms: N2_8  and  C7_10
REMARK    4  A    between atoms: C10_17  and  N5_18
ROOT
HETATM    1  C4  UNL     1       7.649 -19.316   6.074  1.00  0.00     0.009 A
HETATM    2  C5  UNL     1       7.093 -19.130   4.807  1.00  0.00     0.044 A
HETATM    3  C6  UNL     1       6.807 -17.885   4.269  1.00  0.00     0.035 A
HETATM    4  C8  UNL     1       7.087 -16.801   5.054  1.00  0.00     0.032 A
HETATM    5  C9  UNL     1       7.622 -16.904   6.294  1.00  0.00     0.039 A
HETATM    6  C10 UNL     1       7.926 -18.188   6.840  1.00  0.00     0.114 A
ENDROOT
BRANCH   3   7
HETATM    7  N2  UNL     1       6.317 -17.727   2.944  1.00  0.00    -0.331 N
HETATM    8  C7  UNL     1       4.976 -17.752   2.545  1.00  0.00     0.186 C
HETATM    9  N3  UNL     1       4.652 -18.184   1.369  1.00  0.00    -0.373 N
HETATM   10  N4  UNL     1       3.880 -17.370   3.368  1.00  0.00    -0.064 NA
ATOM     11  H32 UNL     1       5.438 -18.457   0.779  1.00  0.00     0.158 HD
ATOM     12  H31 UNL     1       3.675 -18.203   1.078  1.00  0.00     0.158 HD
ATOM     13  H2  UNL     1       7.011 -17.579   2.212  1.00  0.00     0.168 HD
ENDBRANCH   3   7
BRANCH   1  14
HETATM   14  C3  UNL     1       8.153 -20.622   6.482  1.00  0.00     0.072 C
BRANCH  14  15
HETATM   15  N1  UNL     1       9.437 -21.094   6.247  1.00  0.00    -0.300 NA
HETATM   16  C1  UNL     1      10.336 -20.224   5.565  1.00  0.00     0.115 C
HETATM   17  C2  UNL     1      10.132 -21.257   7.603  1.00  0.00     0.115 C
ENDBRANCH  14  15
ENDBRANCH   1  14
BRANCH   6  18
HETATM   18  N5  UNL     1       8.547 -18.246   8.074  1.00  0.00    -0.115 N
HETATM   19  O1  UNL     1       8.090 -18.700   9.108  1.00  0.00    -0.532 OA
HETATM   20  O2  UNL     1       9.819 -17.627   8.133  1.00  0.00    -0.532 OA
ENDBRANCH   6  18
TORSDOF 4
ENDMDL