MODEL 3
REMARK VINA RESULT: -8.378731539      3.601      6.499
REMARK  6 active torsions:
REMARK  status: ('A' for Active; 'I' for Inactive)
REMARK    1  A    between atoms: C5_7  and  N2_8
REMARK    2  A    between atoms: N2_8  and  C6_10
REMARK    3  A    between atoms: C6_10  and  C7_11
REMARK    4  A    between atoms: C10_14  and  C11_15
REMARK    5  A    between atoms: C11_15  and  C12_16
REMARK    6  A    between atoms: C12_16  and  N3_17
ROOT
HETATM    1  C7  UNL     1       4.475 -17.224   1.758  1.00  0.00    -0.040 A
HETATM    2  C8  UNL     1       4.308 -18.546   1.463  1.00  0.00     0.009 A
HETATM    3  C9  UNL     1       3.272 -18.953   0.636  1.00  0.00     0.007 A
HETATM    4  C10 UNL     1       2.384 -18.031   0.089  1.00  0.00    -0.057 A
HETATM    5  C13 UNL     1       2.582 -16.705   0.406  1.00  0.00     0.007 A
HETATM    6  C14 UNL     1       3.603 -16.296   1.223  1.00  0.00     0.009 A
ENDROOT
BRANCH   1   7
HETATM    7  C6  UNL     1       5.558 -16.701   2.635  1.00  0.00     0.176 C
BRANCH   7   8
HETATM    8  N2  UNL     1       6.489 -17.711   3.032  1.00  0.00    -0.222 N
ATOM      9  H2  UNL     1       7.151 -18.080   2.349  1.00  0.00     0.178 HD
BRANCH   8  10
HETATM   10  C5  UNL     1       6.505 -18.167   4.255  1.00  0.00     0.678 A
HETATM   11  N1  UNL     1       5.516 -17.867   5.118  1.00  0.00    -0.202 N
HETATM   12  C4  UNL     1       5.478 -18.306   6.389  1.00  0.00     0.108 A
ATOM     13  H1  UNL     1       4.755 -17.273   4.790  1.00  0.00     0.183 HD
HETATM   14  C3  UNL     1       6.498 -19.110   6.854  1.00  0.00     0.042 A
HETATM   15  C2  UNL     1       7.516 -19.421   5.974  1.00  0.00     0.024 A
HETATM   16  C1  UNL     1       8.623 -20.284   6.452  1.00  0.00     0.068 C
HETATM   17  N4  UNL     1       7.497 -18.951   4.715  1.00  0.00    -0.196 N
ATOM     18  H4  UNL     1       8.261 -19.197   4.086  1.00  0.00     0.184 HD
ENDBRANCH   8  10
ENDBRANCH   7   8
ENDBRANCH   1   7
BRANCH   4  19
HETATM   19  C11 UNL     1       1.279 -18.484  -0.796  1.00  0.00     0.065 C
BRANCH  19  20
HETATM   20  C12 UNL     1       0.163 -19.117   0.004  1.00  0.00     0.234 C
BRANCH  20  21
HETATM   21  N3  UNL     1      -1.123 -18.951  -0.678  1.00  0.00    -0.079 N
ATOM     22  H33 UNL     1      -1.535 -18.037  -0.489  1.00  0.00     0.274 HD
ATOM     23  H32 UNL     1      -1.006 -18.862  -1.688  1.00  0.00     0.274 HD
ATOM     24  H31 UNL     1      -1.760 -19.709  -0.437  1.00  0.00     0.274 HD
ENDBRANCH  20  21
ENDBRANCH  19  20
ENDBRANCH   4  19
TORSDOF 6
ENDMDL