MODEL 5
REMARK VINA RESULT: -7.541655286      1.877      7.306
REMARK  6 active torsions:
REMARK  status: ('A' for Active; 'I' for Inactive)
REMARK    1  A    between atoms: C2_3  and  N2_4
REMARK    2  A    between atoms: C2_3  and  C3_8
REMARK    3  A    between atoms: C6_13  and  C7_14
REMARK    4  A    between atoms: C7_14  and  C8_15
REMARK    5  A    between atoms: C8_15  and  N4_16
REMARK    6  A    between atoms: N4_16  and  C9_18
ROOT
HETATM    1  N1  UNL     1       0.177 -19.315   0.759  1.00  0.00    -0.195 NA
HETATM    2  C1  UNL     1       1.327 -19.257   0.852  1.00  0.00     0.097 C
HETATM    3  C2  UNL     1       2.780 -19.187   0.951  1.00  0.00     0.324 C
ENDROOT
BRANCH   3   4
HETATM    4  N2  UNL     1       3.434 -19.862  -0.150  1.00  0.00    -0.058 N
ATOM      5  H23 UNL     1       3.500 -20.866   0.018  1.00  0.00     0.276 HD
ATOM      6  H22 UNL     1       2.841 -19.876  -0.980  1.00  0.00     0.276 HD
ATOM      7  H21 UNL     1       4.349 -19.460  -0.356  1.00  0.00     0.276 HD
ENDBRANCH   3   4
BRANCH   3   8
HETATM    8  C3  UNL     1       3.282 -17.798   1.015  1.00  0.00     0.009 A
HETATM    9  C4  UNL     1       2.736 -16.706   0.366  1.00  0.00     0.098 A
HETATM   10  N3  UNL     1       3.446 -15.615   0.652  1.00  0.00    -0.374 N
HETATM   11  C5  UNL     1       4.444 -15.999   1.479  1.00  0.00     0.095 A
ATOM     12  H3  UNL     1       3.271 -14.670   0.311  1.00  0.00     0.164 HD
HETATM   13  C6  UNL     1       4.372 -17.336   1.724  1.00  0.00    -0.031 A
BRANCH  13  14
HETATM   14  C7  UNL     1       5.217 -18.229   2.551  1.00  0.00     0.060 C
BRANCH  14  15
HETATM   15  C8  UNL     1       5.365 -17.749   3.963  1.00  0.00     0.126 C
BRANCH  15  16
HETATM   16  N4  UNL     1       6.777 -17.531   4.207  1.00  0.00    -0.376 N
ATOM     17  H4  UNL     1       7.277 -16.927   3.554  1.00  0.00     0.161 HD
BRANCH  16  18
HETATM   18  C9  UNL     1       7.445 -18.029   5.167  1.00  0.00     0.100 A
HETATM   19  C10 UNL     1       7.551 -19.417   5.204  1.00  0.00     0.048 A
HETATM   20  C11 UNL     1       8.266 -20.024   6.221  1.00  0.00     0.005 A
HETATM   21  C12 UNL     1       8.853 -19.219   7.174  1.00  0.00     0.017 A
HETATM   22  C13 UNL     1       8.746 -17.835   7.136  1.00  0.00     0.089 A
HETATM   23  N5  UNL     1       8.045 -17.305   6.131  1.00  0.00    -0.353 N
ATOM     24  H5  UNL     1       7.959 -16.289   6.092  1.00  0.00     0.166 HD
ENDBRANCH  16  18
ENDBRANCH  15  16
ENDBRANCH  14  15
ENDBRANCH  13  14
ENDBRANCH   3   8
TORSDOF 6
ENDMDL