MODEL 2
REMARK VINA RESULT: -6.826297877      2.629      5.340
REMARK  12 active torsions:
REMARK  status: ('A' for Active; 'I' for Inactive)
REMARK    1  A    between atoms: N1_2  and  C4_5
REMARK    2  A    between atoms: C4_5  and  O1_6
REMARK    3  A    between atoms: O1_6  and  C5_7
REMARK    4  A    between atoms: C5_7  and  C6_8
REMARK    5  A    between atoms: C6_8  and  O2_9
REMARK    6  A    between atoms: C6_8  and  N2_11
REMARK    7  A    between atoms: N2_11  and  C7_13
REMARK    8  A    between atoms: C7_13  and  C8_14
REMARK    9  A    between atoms: C7_13  and  C10_23
REMARK   10  A    between atoms: C8_14  and  N3_15
REMARK       I    between atoms: C9_17  and  N5_19
REMARK   11  A    between atoms: N5_19  and  O3_21
REMARK   12  A    between atoms: C10_23  and  C11_24
ROOT
HETATM    1  C7  UNL     1      24.636 -78.097  12.948  1.00  0.00     0.002 C
ENDROOT
BRANCH   1   2
HETATM    2  N2  UNL     1      23.928 -77.612  11.829  1.00  0.00    -0.367 N
ATOM      3  H2  UNL     1      22.993 -77.966  11.630  1.00  0.00     0.161 HD
BRANCH   2   4
HETATM    4  C6  UNL     1      24.496 -76.649  10.993  1.00  0.00     0.241 C
BRANCH   4   5
HETATM    5  C5  UNL     1      24.367 -77.074   9.518  1.00  0.00     0.223 C
BRANCH   5   6
HETATM    6  O1  UNL     1      25.282 -78.009   9.178  1.00  0.00    -0.360 OA
BRANCH   6   7
HETATM    7  C4  UNL     1      25.718 -77.948   7.904  1.00  0.00     0.403 C
BRANCH   7   8
HETATM    8  N1  UNL     1      27.116 -78.006   7.633  1.00  0.00    -0.058 N
HETATM    9  C1  UNL     1      27.918 -76.990   8.241  1.00  0.00     0.274 C
HETATM   10  C2  UNL     1      27.344 -77.969   6.179  1.00  0.00     0.274 C
HETATM   11  C3  UNL     1      27.672 -79.310   8.077  1.00  0.00     0.274 C
ENDBRANCH   7   8
ENDBRANCH   6   7
ENDBRANCH   5   6
ENDBRANCH   4   5
BRANCH   4  12
HETATM   12  O2  UNL     1      25.823 -76.326  11.155  1.00  0.00    -0.375 OA
ATOM     13  H2  UNL     1      26.046 -76.632  12.026  1.00  0.00     0.212 HD
ENDBRANCH   4  12
ENDBRANCH   2   4
ENDBRANCH   1   2
BRANCH   1  14
HETATM   14  C8  UNL     1      25.350 -79.416  12.748  1.00  0.00     0.174 C
BRANCH  14  15
HETATM   15  N3  UNL     1      25.170 -80.009  11.466  1.00  0.00    -0.358 N
HETATM   16  C9  UNL     1      25.682 -81.127  11.091  1.00  0.00     0.208 C
HETATM   17  N4  UNL     1      25.399 -81.571   9.774  1.00  0.00    -0.062 NA
HETATM   18  N5  UNL     1      26.508 -81.946  11.903  1.00  0.00    -0.241 N
ATOM     19  H5  UNL     1      26.322 -81.987  12.905  1.00  0.00     0.197 HD
ATOM     20  H3  UNL     1      24.591 -79.508  10.793  1.00  0.00     0.162 HD
BRANCH  18  21
HETATM   21  O3  UNL     1      27.533 -82.675  11.405  1.00  0.00    -0.287 OA
ATOM     22  H3  UNL     1      28.084 -83.226  11.948  1.00  0.00     0.244 HD
ENDBRANCH  18  21
ENDBRANCH  14  15
ENDBRANCH   1  14
BRANCH   1  23
HETATM   23  C10 UNL     1      23.904 -77.980  14.244  1.00  0.00     0.058 C
BRANCH  23  24
HETATM   24  C11 UNL     1      24.393 -76.834  15.125  1.00  0.00    -0.009 C
HETATM   25  C12 UNL     1      25.609 -76.171  14.580  1.00  0.00     0.005 C
HETATM   26  C13 UNL     1      25.475 -74.670  14.839  1.00  0.00     0.000 C
HETATM   27  C14 UNL     1      24.427 -74.180  13.829  1.00  0.00     0.000 C
HETATM   28  C15 UNL     1      23.134 -74.933  14.055  1.00  0.00     0.000 C
HETATM   29  C16 UNL     1      23.238 -75.858  15.251  1.00  0.00     0.005 C
ENDBRANCH  23  24
ENDBRANCH   1  23
TORSDOF 12
ENDMDL