MODEL 2
REMARK VINA RESULT: -7.287945667      1.832      3.779
REMARK  13 active torsions:
REMARK  status: ('A' for Active; 'I' for Inactive)
REMARK    1  A    between atoms: C2_2  and  C3_3
REMARK    2  A    between atoms: C3_3  and  N1_4
REMARK    3  A    between atoms: N1_4  and  C4_7
REMARK    4  A    between atoms: C4_7  and  O1_8
REMARK    5  A    between atoms: C4_7  and  C5_10
REMARK    6  A    between atoms: C5_10  and  O2_11
REMARK    7  A    between atoms: C5_10  and  C6_13
REMARK    8  A    between atoms: C6_13  and  C7_14
REMARK    9  A    between atoms: C6_13  and  C11_18
REMARK   10  A    between atoms: C7_14  and  C8_15
REMARK   11  A    between atoms: C11_18  and  C12_20
REMARK   12  A    between atoms: C12_20  and  N2_21
REMARK   13  A    between atoms: C16_25  and  C17_26
ROOT
HETATM    1  C6  UNL     1      24.249 -77.221  11.278  1.00  0.00     0.090 C
ENDROOT
BRANCH   1   2
HETATM    2  C5  UNL     1      24.021 -77.881  12.619  1.00  0.00     0.185 C
BRANCH   2   3
HETATM    3  C4  UNL     1      22.965 -77.349  13.502  1.00  0.00     0.348 C
BRANCH   3   4
HETATM    4  N1  UNL     1      23.368 -77.117  14.857  1.00  0.00    -0.043 N
ATOM      5  H12 UNL     1      24.270 -77.556  15.040  1.00  0.00     0.280 HD
ATOM      6  H11 UNL     1      22.780 -77.650  15.498  1.00  0.00     0.280 HD
BRANCH   4   7
HETATM    7  C3  UNL     1      23.400 -75.730  15.244  1.00  0.00     0.262 C
BRANCH   7   8
HETATM    8  C2  UNL     1      24.809 -75.262  15.349  1.00  0.00    -0.010 C
HETATM    9  C1  UNL     1      25.394 -74.548  14.400  1.00  0.00     0.008 C
ENDBRANCH   7   8
ENDBRANCH   4   7
ENDBRANCH   3   4
BRANCH   3  10
HETATM   10  O1  UNL     1      22.346 -76.201  12.953  1.00  0.00    -0.368 OA
ATOM     11  H1  UNL     1      21.820 -76.428  12.195  1.00  0.00     0.212 HD
ENDBRANCH   3  10
ENDBRANCH   2   3
BRANCH   2  12
HETATM   12  O2  UNL     1      25.217 -78.129  13.251  1.00  0.00    -0.390 OA
ATOM     13  H2  UNL     1      25.851 -78.594  12.719  1.00  0.00     0.210 HD
ENDBRANCH   2  12
ENDBRANCH   1   2
BRANCH   1  14
HETATM   14  C7  UNL     1      25.705 -76.994  11.133  1.00  0.00     0.018 C
BRANCH  14  15
HETATM   15  C8  UNL     1      26.200 -76.210   9.967  1.00  0.00    -0.022 C
HETATM   16  C9  UNL     1      27.157 -77.154   9.176  1.00  0.00     0.009 C
HETATM   17  C10 UNL     1      27.085 -75.057  10.378  1.00  0.00     0.009 C
ENDBRANCH  14  15
ENDBRANCH   1  14
BRANCH   1  18
HETATM   18  C11 UNL     1      23.598 -78.075  10.261  1.00  0.00     0.151 C
HETATM   19  O3  UNL     1      23.177 -77.451   9.232  1.00  0.00    -0.296 OA
BRANCH  18  20
HETATM   20  C12 UNL     1      23.365 -79.514  10.262  1.00  0.00     0.206 C
BRANCH  20  21
HETATM   21  N2  UNL     1      24.594 -80.323  10.119  1.00  0.00    -0.359 N
HETATM   22  C13 UNL     1      25.119 -81.053  11.088  1.00  0.00     0.091 A
HETATM   23  C14 UNL     1      26.302 -81.762  10.959  1.00  0.00     0.018 A
HETATM   24  C15 UNL     1      26.964 -81.705   9.769  1.00  0.00     0.019 A
HETATM   25  C16 UNL     1      26.434 -80.947   8.732  1.00  0.00     0.044 A
HETATM   26  C18 UNL     1      25.246 -80.270   8.945  1.00  0.00     0.107 A
BRANCH  25  27
HETATM   27  C17 UNL     1      27.181 -80.892   7.495  1.00  0.00     0.266 C
HETATM   28  N3  UNL     1      27.416 -82.087   6.776  1.00  0.00    -0.057 NA
HETATM   29  O4  UNL     1      27.628 -79.817   7.048  1.00  0.00    -0.271 OA
ENDBRANCH  25  27
ENDBRANCH  20  21
ENDBRANCH  18  20
ENDBRANCH   1  18
TORSDOF 13
ENDMDL