MODEL 1
REMARK VINA RESULT: -6.706833640      0.000      0.000
REMARK  12 active torsions:
REMARK  status: ('A' for Active; 'I' for Inactive)
REMARK    1  A    between atoms: O1_2  and  N1_3
REMARK    2  A    between atoms: N1_3  and  C2_4
REMARK    3  A    between atoms: C2_4  and  C3_5
REMARK    4  A    between atoms: C3_5  and  O2_6
REMARK    5  A    between atoms: C3_5  and  C4_8
REMARK    6  A    between atoms: C4_8  and  C5_9
REMARK    7  A    between atoms: C4_8  and  N3_14
REMARK    8  A    between atoms: C5_9  and  N2_10
REMARK       I    between atoms: N3_14  and  C8_16
REMARK    9  A    between atoms: C8_16  and  C9_18
REMARK   10  A    between atoms: C9_18  and  N4_19
REMARK   11  A    between atoms: C9_18  and  C10_23
REMARK   12  A    between atoms: C10_23  and  C11_24
ROOT
HETATM    1  N3  UNL     1      24.680 -79.442   9.097  1.00  0.00    -0.351 N
ATOM      2  H3  UNL     1      23.753 -79.684   8.749  1.00  0.00     0.163 HD
HETATM    3  C8  UNL     1      24.795 -78.741  10.302  1.00  0.00     0.249 C
HETATM    4  O4  UNL     1      25.943 -78.441  10.731  1.00  0.00    -0.271 OA
ENDROOT
BRANCH   1   5
HETATM    5  C4  UNL     1      25.851 -79.832   8.329  1.00  0.00     0.132 C
BRANCH   5   6
HETATM    6  C3  UNL     1      25.707 -81.230   7.782  1.00  0.00     0.159 C
BRANCH   6   7
HETATM    7  C2  UNL     1      26.594 -82.183   8.530  1.00  0.00     0.176 C
BRANCH   7   8
HETATM    8  N1  UNL     1      26.776 -81.738   9.920  1.00  0.00    -0.099 NA
BRANCH   8   9
HETATM    9  O1  UNL     1      25.707 -82.019  10.668  1.00  0.00    -0.291 OA
HETATM   10  C1  UNL     1      25.906 -81.875  12.026  1.00  0.00     0.231 C
ENDBRANCH   8   9
ENDBRANCH   7   8
ENDBRANCH   6   7
BRANCH   6  11
HETATM   11  O2  UNL     1      24.355 -81.598   7.929  1.00  0.00    -0.392 OA
ATOM     12  H2  UNL     1      24.269 -82.543   7.956  1.00  0.00     0.210 HD
ENDBRANCH   6  11
ENDBRANCH   5   6
BRANCH   5  13
HETATM   13  C5  UNL     1      26.155 -78.880   7.224  1.00  0.00     0.154 C
BRANCH  13  14
HETATM   14  N2  UNL     1      27.340 -78.082   7.490  1.00  0.00    -0.340 N
HETATM   15  C6  UNL     1      27.940 -76.898   8.060  1.00  0.00     0.228 A
HETATM   16  C7  UNL     1      28.756 -77.894   7.378  1.00  0.00     0.238 A
HETATM   17  O3  UNL     1      29.886 -78.283   6.988  1.00  0.00    -0.272 OA
ENDBRANCH  13  14
ENDBRANCH   5  13
ENDBRANCH   1   5
BRANCH   3  18
HETATM   18  C9  UNL     1      23.644 -78.315  11.131  1.00  0.00     0.278 C
BRANCH  18  19
HETATM   19  N4  UNL     1      22.437 -79.019  10.841  1.00  0.00    -0.066 N
ATOM     20  H43 UNL     1      22.424 -79.326   9.869  1.00  0.00     0.275 HD
ATOM     21  H42 UNL     1      22.428 -79.926  11.307  1.00  0.00     0.275 HD
ATOM     22  H41 UNL     1      21.592 -78.492  11.063  1.00  0.00     0.275 HD
ENDBRANCH  18  19
BRANCH  18  23
HETATM   23  C10 UNL     1      23.494 -76.816  11.054  1.00  0.00     0.081 C
BRANCH  23  24
HETATM   24  C11 UNL     1      23.808 -76.136  12.311  1.00  0.00    -0.056 A
HETATM   25  C12 UNL     1      25.086 -75.639  12.485  1.00  0.00     0.007 A
HETATM   26  C13 UNL     1      25.461 -74.985  13.644  1.00  0.00     0.001 A
HETATM   27  C14 UNL     1      24.509 -74.845  14.628  1.00  0.00     0.000 A
HETATM   28  C15 UNL     1      23.214 -75.340  14.470  1.00  0.00     0.001 A
HETATM   29  C16 UNL     1      22.865 -75.990  13.304  1.00  0.00     0.007 A
ENDBRANCH  23  24
ENDBRANCH  18  23
ENDBRANCH   3  18
TORSDOF 12
ENDMDL