MODEL 1
REMARK VINA RESULT: -6.258514806      0.000      0.000
REMARK  13 active torsions:
REMARK  status: ('A' for Active; 'I' for Inactive)
REMARK    1  A    between atoms: C2_2  and  C3_3
REMARK    2  A    between atoms: C3_3  and  N1_4
REMARK    3  A    between atoms: C3_3  and  C13_18
REMARK       I    between atoms: N1_4  and  C4_5
REMARK    4  A    between atoms: C4_5  and  C5_7
REMARK    5  A    between atoms: C5_7  and  N2_9
REMARK    6  A    between atoms: N2_9  and  C7_10
REMARK    7  A    between atoms: N2_9  and  C9_14
REMARK    8  A    between atoms: C7_10  and  C8_11
REMARK    9  A    between atoms: C9_14  and  C10_15
REMARK   10  A    between atoms: C13_18  and  O4_19
REMARK   11  A    between atoms: C13_18  and  N3_21
REMARK   12  A    between atoms: N3_21  and  C14_23
REMARK   13  A    between atoms: C14_23  and  C15_24
ROOT
HETATM    1  N1  UNL     1      25.347 -79.453  12.622  1.00  0.00    -0.369 NA
HETATM    2  C4  UNL     1      25.150 -78.536  13.577  1.00  0.00     0.314 C
HETATM    3  O1  UNL     1      25.683 -78.097  14.504  1.00  0.00    -0.255 OA
ENDROOT
BRANCH   1   4
HETATM    4  C3  UNL     1      25.586 -80.441  11.608  1.00  0.00     0.138 C
BRANCH   4   5
HETATM    5  C2  UNL     1      25.711 -81.864  12.138  1.00  0.00     0.073 C
HETATM    6  C1  UNL     1      27.130 -82.313  11.775  1.00  0.00     0.013 C
ENDBRANCH   4   5
BRANCH   4   7
HETATM    7  C13 UNL     1      24.806 -80.278  10.397  1.00  0.00     0.173 C
BRANCH   7   8
HETATM    8  O4  UNL     1      23.465 -80.450  10.552  1.00  0.00    -0.344 OA
ATOM      9  H4  UNL     1      22.925 -79.827  10.081  1.00  0.00     0.219 HD
ENDBRANCH   7   8
BRANCH   7  10
HETATM   10  N3  UNL     1      25.084 -80.009   9.076  1.00  0.00    -0.358 N
ATOM     11  H3  UNL     1      24.378 -79.947   8.342  1.00  0.00     0.162 HD
BRANCH  10  12
HETATM   12  C14 UNL     1      26.573 -79.817   8.846  1.00  0.00     0.235 C
BRANCH  12  13
HETATM   13  C15 UNL     1      26.855 -80.987   7.967  1.00  0.00     0.191 C
HETATM   14  O5  UNL     1      26.523 -82.118   8.268  1.00  0.00    -0.647 OA
HETATM   15  O6  UNL     1      27.577 -80.786   6.743  1.00  0.00    -0.647 OA
ENDBRANCH  12  13
ENDBRANCH  10  12
ENDBRANCH   7  10
ENDBRANCH   4   7
ENDBRANCH   1   4
BRANCH   2  16
HETATM   16  C5  UNL     1      23.668 -77.943  13.231  1.00  0.00     0.187 C
HETATM   17  C6  UNL     1      22.962 -78.066  14.595  1.00  0.00     0.043 C
BRANCH  16  18
HETATM   18  N2  UNL     1      23.683 -76.800  12.658  1.00  0.00    -0.369 N
BRANCH  18  19
HETATM   19  C7  UNL     1      22.819 -76.961  11.442  1.00  0.00     0.235 C
BRANCH  19  20
HETATM   20  C8  UNL     1      23.558 -77.062  10.222  1.00  0.00     0.191 C
HETATM   21  O2  UNL     1      22.725 -77.779   9.266  1.00  0.00    -0.647 OA
HETATM   22  O3  UNL     1      24.669 -76.817   9.551  1.00  0.00    -0.647 OA
ENDBRANCH  19  20
ENDBRANCH  18  19
BRANCH  18  23
HETATM   23  C9  UNL     1      23.676 -75.578  13.357  1.00  0.00     0.063 C
BRANCH  23  24
HETATM   24  C10 UNL     1      24.870 -74.723  13.376  1.00  0.00     0.016 C
HETATM   25  C11 UNL     1      26.101 -75.144  12.629  1.00  0.00     0.015 C
HETATM   26  C12 UNL     1      25.272 -74.596  14.851  1.00  0.00     0.015 C
ENDBRANCH  23  24
ENDBRANCH  18  23
ENDBRANCH  16  18
ENDBRANCH   2  16
TORSDOF 13
ENDMDL