MODEL 2
REMARK VINA RESULT: -6.849974160      1.646      1.973
REMARK  11 active torsions:
REMARK  status: ('A' for Active; 'I' for Inactive)
REMARK    1  A    between atoms: C2_2  and  C4_4
REMARK    2  A    between atoms: C4_4  and  C5_5
REMARK    3  A    between atoms: C5_5  and  N1_6
REMARK    4  A    between atoms: C5_5  and  C16_27
REMARK       I    between atoms: N1_6  and  C6_8
REMARK    5  A    between atoms: C6_8  and  C7_10
REMARK    6  A    between atoms: C7_10  and  C8_11
REMARK    7  A    between atoms: C7_10  and  N2_15
REMARK    8  A    between atoms: C8_11  and  C9_12
REMARK       I    between atoms: N2_15  and  C12_17
REMARK    9  A    between atoms: C12_17  and  C13_19
REMARK   10  A    between atoms: C13_19  and  N3_21
REMARK   11  A    between atoms: C13_19  and  C15_25
ROOT
HETATM    1  C7  UNL     1      23.846 -78.067  10.837  1.00  0.00     0.177 C
ENDROOT
BRANCH   1   2
HETATM    2  C6  UNL     1      24.290 -79.351  10.238  1.00  0.00     0.241 C
HETATM    3  N1  UNL     1      25.381 -80.027  10.817  1.00  0.00    -0.346 N
ATOM      4  H1  UNL     1      25.841 -79.626  11.634  1.00  0.00     0.163 HD
HETATM    5  O1  UNL     1      23.661 -79.760   9.240  1.00  0.00    -0.271 OA
BRANCH   3   6
HETATM    6  C5  UNL     1      25.876 -81.313  10.259  1.00  0.00     0.174 C
BRANCH   6   7
HETATM    7  C4  UNL     1      26.928 -80.902   9.297  1.00  0.00     0.038 C
BRANCH   7   8
HETATM    8  C2  UNL     1      26.677 -80.933   7.855  1.00  0.00    -0.020 C
HETATM    9  C1  UNL     1      27.117 -82.108   7.069  1.00  0.00     0.009 C
HETATM   10  C3  UNL     1      27.384 -79.696   7.261  1.00  0.00     0.009 C
ENDBRANCH   7   8
ENDBRANCH   6   7
BRANCH   6  11
HETATM   11  C16 UNL     1      26.328 -82.073  11.435  1.00  0.00     0.254 C
HETATM   12  N4  UNL     1      27.648 -82.556  11.623  1.00  0.00    -0.060 NA
HETATM   13  O4  UNL     1      25.475 -82.315  12.343  1.00  0.00    -0.275 OA
ENDBRANCH   6  11
ENDBRANCH   3   6
ENDBRANCH   1   2
BRANCH   1  14
HETATM   14  C8  UNL     1      24.654 -76.989  10.185  1.00  0.00     0.038 C
BRANCH  14  15
HETATM   15  C9  UNL     1      26.027 -76.792  10.772  1.00  0.00    -0.020 C
HETATM   16  C10 UNL     1      26.988 -76.801   9.573  1.00  0.00     0.009 C
HETATM   17  C11 UNL     1      26.164 -75.451  11.451  1.00  0.00     0.009 C
ENDBRANCH  14  15
ENDBRANCH   1  14
BRANCH   1  18
HETATM   18  N2  UNL     1      24.030 -78.132  12.268  1.00  0.00    -0.345 N
HETATM   19  C12 UNL     1      23.156 -77.445  13.143  1.00  0.00     0.261 C
HETATM   20  O2  UNL     1      22.210 -76.775  12.625  1.00  0.00    -0.270 OA
ATOM     21  H2  UNL     1      24.800 -78.679  12.653  1.00  0.00     0.163 HD
BRANCH  19  22
HETATM   22  C13 UNL     1      23.300 -77.482  14.614  1.00  0.00     0.251 C
HETATM   23  C14 UNL     1      24.737 -77.639  15.020  1.00  0.00     0.065 C
BRANCH  22  24
HETATM   24  N3  UNL     1      22.531 -78.536  15.220  1.00  0.00    -0.055 N
ATOM     25  H33 UNL     1      23.045 -79.416  15.210  1.00  0.00     0.276 HD
ATOM     26  H32 UNL     1      22.456 -78.400  16.228  1.00  0.00     0.276 HD
ATOM     27  H31 UNL     1      21.610 -78.645  14.794  1.00  0.00     0.276 HD
ENDBRANCH  22  24
BRANCH  22  28
HETATM   28  C15 UNL     1      22.767 -76.186  15.125  1.00  0.00     0.279 C
HETATM   29  O3  UNL     1      23.538 -75.381  15.624  1.00  0.00    -0.304 OA
ENDBRANCH  22  28
ENDBRANCH  19  22
ENDBRANCH   1  18
TORSDOF 11
ENDMDL