MODEL 5
REMARK VINA RESULT: -6.307612523      2.184      6.027
REMARK  10 active torsions:
REMARK  status: ('A' for Active; 'I' for Inactive)
REMARK    1  A    between atoms: C2_2  and  C3_3
REMARK       I    between atoms: C3_3  and  N1_5
REMARK    2  A    between atoms: N1_5  and  C4_7
REMARK    3  A    between atoms: C4_7  and  C5_8
REMARK    4  A    between atoms: C4_7  and  C7_11
REMARK    5  A    between atoms: C7_11  and  N2_12
REMARK    6  A    between atoms: C7_11  and  C10_18
REMARK    7  A    between atoms: C8_14  and  C9_15
REMARK    8  A    between atoms: C10_18  and  N3_19
REMARK    9  A    between atoms: C10_18  and  C12_24
REMARK       I    between atoms: N3_19  and  C11_21
REMARK   10  A    between atoms: C12_24  and  C14_26
ROOT
HETATM    1  C7  UNL     1      24.367 -76.732  11.519  1.00  0.00     0.158 C
ENDROOT
BRANCH   1   2
HETATM    2  C4  UNL     1      25.595 -77.481  11.139  1.00  0.00     0.082 C
BRANCH   2   3
HETATM    3  N1  UNL     1      26.399 -76.970  10.078  1.00  0.00    -0.326 N
HETATM    4  C3  UNL     1      27.226 -75.942   9.710  1.00  0.00     0.221 C
HETATM    5  O1  UNL     1      27.479 -74.972  10.444  1.00  0.00    -0.273 OA
ATOM      6  H1  UNL     1      26.332 -77.618   9.293  1.00  0.00     0.168 HD
BRANCH   4   7
HETATM    7  C2  UNL     1      27.912 -75.980   8.347  1.00  0.00     0.098 C
HETATM    8  C1  UNL     1      28.195 -77.409   8.023  1.00  0.00     0.014 C
ENDBRANCH   4   7
ENDBRANCH   2   3
BRANCH   2   9
HETATM    9  C5  UNL     1      25.550 -78.940  10.960  1.00  0.00     0.170 C
HETATM   10  C6  UNL     1      25.793 -79.638   9.637  1.00  0.00     0.098 C
HETATM   11  O2  UNL     1      25.325 -79.725  11.870  1.00  0.00    -0.291 OA
ENDBRANCH   2   9
ENDBRANCH   1   2
BRANCH   1  12
HETATM   12  N2  UNL     1      23.270 -77.649  11.517  1.00  0.00    -0.381 N
HETATM   13  C8  UNL     1      22.172 -77.601  10.740  1.00  0.00     0.169 C
ATOM     14  H2  UNL     1      23.326 -78.425  12.178  1.00  0.00     0.160 HD
BRANCH  13  15
HETATM   15  C9  UNL     1      22.155 -77.810   9.294  1.00  0.00     0.214 C
HETATM   16  O3  UNL     1      20.796 -77.564   8.879  1.00  0.00    -0.644 OA
HETATM   17  O4  UNL     1      22.900 -78.099   8.343  1.00  0.00    -0.644 OA
ENDBRANCH  13  15
ENDBRANCH   1  12
BRANCH   1  18
HETATM   18  C10 UNL     1      24.492 -76.381  13.010  1.00  0.00     0.118 C
BRANCH  18  19
HETATM   19  N3  UNL     1      23.537 -77.169  13.753  1.00  0.00    -0.338 N
HETATM   20  C11 UNL     1      23.427 -77.926  14.860  1.00  0.00     0.329 C
HETATM   21  N4  UNL     1      22.101 -78.483  15.177  1.00  0.00    -0.040 NA
HETATM   22  O5  UNL     1      24.310 -78.221  15.680  1.00  0.00    -0.251 OA
ATOM     23  H3  UNL     1      22.636 -77.143  13.274  1.00  0.00     0.164 HD
ENDBRANCH  18  19
BRANCH  18  24
HETATM   24  C12 UNL     1      24.304 -74.986  13.405  1.00  0.00     0.006 C
HETATM   25  C13 UNL     1      22.971 -74.929  14.202  1.00  0.00     0.012 C
BRANCH  24  26
HETATM   26  C14 UNL     1      25.287 -74.244  14.186  1.00  0.00     0.002 C
HETATM   27  C15 UNL     1      25.365 -74.941  15.571  1.00  0.00     0.005 C
ENDBRANCH  24  26
ENDBRANCH  18  24
ENDBRANCH   1  18
TORSDOF 10
ENDMDL