MODEL 3
REMARK VINA RESULT: -6.344353832      3.168      4.867
REMARK  12 active torsions:
REMARK  status: ('A' for Active; 'I' for Inactive)
REMARK    1  A    between atoms: C2_2  and  C4_4
REMARK    2  A    between atoms: C4_4  and  C5_5
REMARK    3  A    between atoms: C5_5  and  C6_6
REMARK    4  A    between atoms: C5_5  and  N1_9
REMARK    5  A    between atoms: C6_6  and  O1_7
REMARK       I    between atoms: N1_9  and  C7_11
REMARK    6  A    between atoms: C7_11  and  C8_13
REMARK    7  A    between atoms: C8_13  and  C9_14
REMARK    8  A    between atoms: C8_13  and  N3_21
REMARK    9  A    between atoms: C9_14  and  S1_15
REMARK   10  A    between atoms: S1_15  and  C10_16
REMARK   11  A    between atoms: C10_16  and  C11_17
REMARK       I    between atoms: N3_21  and  C12_23
REMARK   12  A    between atoms: C12_23  and  C13_25
ROOT
HETATM    1  C8  UNL     1      22.496 -78.335  10.752  1.00  0.00     0.186 C
ENDROOT
BRANCH   1   2
HETATM    2  C7  UNL     1      22.862 -77.616  11.956  1.00  0.00     0.245 C
HETATM    3  N1  UNL     1      23.837 -78.114  12.910  1.00  0.00    -0.331 N
ATOM      4  H1  UNL     1      24.279 -79.016  12.727  1.00  0.00     0.168 HD
HETATM    5  O2  UNL     1      22.345 -76.518  12.244  1.00  0.00    -0.271 OA
BRANCH   3   6
HETATM    6  C5  UNL     1      24.210 -77.403  14.090  1.00  0.00     0.013 C
BRANCH   6   7
HETATM    7  C4  UNL     1      25.607 -76.917  14.161  1.00  0.00     0.058 C
BRANCH   7   8
HETATM    8  C2  UNL     1      25.903 -75.561  13.653  1.00  0.00    -0.017 C
HETATM    9  C1  UNL     1      24.789 -74.618  14.147  1.00  0.00     0.010 C
HETATM   10  C3  UNL     1      25.947 -75.382  12.168  1.00  0.00     0.010 C
ENDBRANCH   7   8
ENDBRANCH   6   7
BRANCH   6  11
HETATM   11  C6  UNL     1      23.683 -77.996  15.385  1.00  0.00     0.216 C
BRANCH  11  12
HETATM   12  O1  UNL     1      22.566 -78.763  15.271  1.00  0.00    -0.395 OA
ATOM     13  H1  UNL     1      22.637 -79.646  15.613  1.00  0.00     0.209 HD
ENDBRANCH  11  12
ENDBRANCH   6  11
ENDBRANCH   3   6
ENDBRANCH   1   2
BRANCH   1  14
HETATM   14  C9  UNL     1      23.480 -78.207   9.597  1.00  0.00     0.109 C
BRANCH  14  15
HETATM   15  S1  UNL     1      24.766 -79.400   9.473  1.00  0.00    -0.162 SA
BRANCH  15  16
HETATM   16  C10 UNL     1      24.480 -80.935  10.306  1.00  0.00     0.117 C
BRANCH  16  17
HETATM   17  C11 UNL     1      25.527 -81.075  11.382  1.00  0.00     0.063 C
HETATM   18  N2  UNL     1      25.466 -82.040  12.212  1.00  0.00    -0.410 N
ATOM     19  H22 UNL     1      24.701 -82.710  12.135  1.00  0.00     0.155 HD
ATOM     20  H21 UNL     1      26.175 -82.135  12.939  1.00  0.00     0.155 HD
ENDBRANCH  16  17
ENDBRANCH  15  16
ENDBRANCH  14  15
ENDBRANCH   1  14
BRANCH   1  21
HETATM   21  N3  UNL     1      21.197 -77.887  10.213  1.00  0.00    -0.344 N
HETATM   22  C12 UNL     1      19.984 -78.490  10.607  1.00  0.00     0.255 C
HETATM   23  O3  UNL     1      20.042 -79.416  11.436  1.00  0.00    -0.270 OA
ATOM     24  H3  UNL     1      21.177 -77.122   9.538  1.00  0.00     0.163 HD
BRANCH  22  25
HETATM   25  C13 UNL     1      18.691 -78.053  10.073  1.00  0.00     0.159 A
HETATM   26  C14 UNL     1      17.546 -77.815  11.060  1.00  0.00     0.059 C
HETATM   27  C15 UNL     1      18.179 -78.716   8.787  1.00  0.00     0.217 A
HETATM   28  O4  UNL     1      18.589 -77.410   8.862  1.00  0.00    -0.365 OA
ENDBRANCH  22  25
ENDBRANCH   1  21
TORSDOF 12
ENDMDL