MODEL 4
REMARK VINA RESULT: -6.926459922      1.137      1.774
REMARK  15 active torsions:
REMARK  status: ('A' for Active; 'I' for Inactive)
REMARK    1  A    between atoms: C2_2  and  C3_3
REMARK    2  A    between atoms: C3_3  and  O1_4
REMARK    3  A    between atoms: O1_4  and  C4_5
REMARK    4  A    between atoms: C4_5  and  C5_7
REMARK    5  A    between atoms: C5_7  and  O3_8
REMARK    6  A    between atoms: C5_7  and  C6_10
REMARK    7  A    between atoms: C7_11  and  C8_12
REMARK    8  A    between atoms: C9_13  and  C10_14
REMARK    9  A    between atoms: N1_15  and  N2_17
REMARK   10  A    between atoms: C11_20  and  C13_22
REMARK   11  A    between atoms: C13_22  and  O4_23
REMARK   12  A    between atoms: C13_22  and  C14_25
REMARK   13  A    between atoms: C14_25  and  N3_26
REMARK   14  A    between atoms: C14_25  and  C15_30
REMARK   15  A    between atoms: C15_30  and  C16_31
ROOT
HETATM    1  C8  UNL     1      23.979 -76.738  11.107  1.00  0.00     0.029 A
HETATM    2  C9  UNL     1      23.102 -77.876  10.984  1.00  0.00     0.045 A
HETATM    3  C11 UNL     1      23.867 -77.596  12.310  1.00  0.00     0.000 A
HETATM    4  C12 UNL     1      24.870 -78.681  12.641  1.00  0.00     0.019 C
ENDROOT
BRANCH   3   5
HETATM    5  C13 UNL     1      22.988 -77.243  13.456  1.00  0.00     0.158 C
BRANCH   5   6
HETATM    6  O4  UNL     1      22.202 -76.104  13.131  1.00  0.00    -0.393 OA
ATOM      7  H4  UNL     1      22.716 -75.313  13.244  1.00  0.00     0.210 HD
ENDBRANCH   5   6
BRANCH   5   8
HETATM    8  C14 UNL     1      23.579 -77.089  14.799  1.00  0.00     0.213 C
BRANCH   8   9
HETATM    9  N3  UNL     1      22.953 -77.909  15.817  1.00  0.00    -0.073 N
ATOM     10  H33 UNL     1      21.956 -78.016  15.628  1.00  0.00     0.274 HD
ATOM     11  H32 UNL     1      23.251 -78.880  15.728  1.00  0.00     0.274 HD
ATOM     12  H31 UNL     1      23.102 -77.575  16.769  1.00  0.00     0.274 HD
ENDBRANCH   8   9
BRANCH   8  13
HETATM   13  C15 UNL     1      23.750 -75.704  15.314  1.00  0.00     0.039 C
BRANCH  13  14
HETATM   14  C16 UNL     1      25.015 -75.009  14.876  1.00  0.00    -0.021 C
HETATM   15  C17 UNL     1      24.712 -73.952  13.836  1.00  0.00     0.009 C
HETATM   16  C18 UNL     1      26.173 -75.875  14.571  1.00  0.00     0.009 C
ENDBRANCH  13  14
ENDBRANCH   8  13
ENDBRANCH   5   8
ENDBRANCH   3   5
BRANCH   1  17
HETATM   17  C7  UNL     1      25.244 -76.452  10.486  1.00  0.00    -0.021 C
HETATM   18  C6  UNL     1      26.166 -75.562  10.638  1.00  0.00     0.011 C
BRANCH  18  19
HETATM   19  C5  UNL     1      27.432 -75.519   9.802  1.00  0.00     0.240 C
BRANCH  19  20
HETATM   20  C4  UNL     1      27.371 -74.321   8.911  1.00  0.00     0.291 C
HETATM   21  O2  UNL     1      28.231 -73.414   8.990  1.00  0.00    -0.262 OA
BRANCH  20  22
HETATM   22  O1  UNL     1      26.355 -74.198   7.982  1.00  0.00    -0.316 OA
BRANCH  22  23
HETATM   23  C3  UNL     1      26.550 -74.391   6.609  1.00  0.00     0.205 C
BRANCH  23  24
HETATM   24  C2  UNL     1      25.913 -75.663   6.176  1.00  0.00    -0.011 C
HETATM   25  C1  UNL     1      24.849 -76.144   6.782  1.00  0.00     0.009 C
ENDBRANCH  23  24
ENDBRANCH  22  23
ENDBRANCH  20  22
ENDBRANCH  19  20
BRANCH  19  26
HETATM   26  O3  UNL     1      27.573 -76.689   9.075  1.00  0.00    -0.382 OA
ATOM     27  H3  UNL     1      28.465 -77.015   9.106  1.00  0.00     0.211 HD
ENDBRANCH  19  26
ENDBRANCH  18  19
ENDBRANCH   1  17
BRANCH   2  28
HETATM   28  C10 UNL     1      23.453 -79.119  10.244  1.00  0.00     0.085 C
HETATM   29  N1  UNL     1      22.622 -80.081  10.161  1.00  0.00    -0.322 N
ATOM     30  H1  UNL     1      21.708 -79.998  10.606  1.00  0.00     0.185 HD
BRANCH  29  31
HETATM   31  N2  UNL     1      22.943 -81.240   9.475  1.00  0.00    -0.346 N
ATOM     32  H22 UNL     1      22.609 -81.347   8.518  1.00  0.00     0.176 HD
ATOM     33  H21 UNL     1      23.501 -81.972   9.915  1.00  0.00     0.176 HD
ENDBRANCH  29  31
ENDBRANCH   2  28
TORSDOF 15
ENDMDL