MODEL 3
REMARK VINA RESULT: -7.265298873      3.353      6.958
REMARK  4 active torsions:
REMARK  status: ('A' for Active; 'I' for Inactive)
REMARK    1  A    between atoms: O1_2  and  C2_3
REMARK    2  A    between atoms: C2_3  and  C4_5
REMARK    3  A    between atoms: C4_5  and  N1_6
REMARK    4  A    between atoms: N3_19  and  C12_20
ROOT
HETATM    1  N1  UNL     1      19.684   8.503  40.237  1.00  0.00    -0.366 N
HETATM    2  C5  UNL     1      18.905   9.450  40.797  1.00  0.00     0.068 C
HETATM    3  C6  UNL     1      19.080   9.683  42.337  1.00  0.00     0.086 C
HETATM    4  C7  UNL     1      20.464   9.663  42.672  1.00  0.00    -0.004 A
HETATM    5  C8  UNL     1      21.253   8.753  41.940  1.00  0.00     0.064 A
HETATM    6  C9  UNL     1      22.600   8.703  42.213  1.00  0.00     0.301 A
HETATM    7  O2  UNL     1      23.301   7.868  41.533  1.00  0.00    -0.259 OA
HETATM    8  O3  UNL     1      23.162   9.453  43.109  1.00  0.00    -0.255 OA
HETATM    9  C10 UNL     1      22.471  10.313  43.817  1.00  0.00     0.181 A
HETATM   10  N2  UNL     1      22.897  11.142  44.767  1.00  0.00    -0.311 N
ATOM     11  H2  UNL     1      23.851  11.255  45.110  1.00  0.00     0.170 HD
HETATM   12  C11 UNL     1      21.782  11.808  45.182  1.00  0.00     0.184 A
HETATM   13 CL1  UNL     1      21.862  13.020  46.430  1.00  0.00    -0.044 Cl
HETATM   14  N3  UNL     1      20.678  11.411  44.512  1.00  0.00    -0.310 N
HETATM   15  C16 UNL     1      21.081  10.442  43.613  1.00  0.00     0.097 A
HETATM   16  C17 UNL     1      20.688   7.825  40.912  1.00  0.00     0.108 C
ENDROOT
BRANCH   1  17
HETATM   17  C4  UNL     1      20.038   8.632  38.851  1.00  0.00     0.158 C
BRANCH  17  18
HETATM   18  C2  UNL     1      20.811   9.864  38.517  1.00  0.00     0.135 C
HETATM   19  C3  UNL     1      22.127   9.577  37.837  1.00  0.00     0.041 C
BRANCH  18  20
HETATM   20  O1  UNL     1      20.036  10.737  37.758  1.00  0.00    -0.389 OA
HETATM   21  C1  UNL     1      18.806  10.156  37.415  1.00  0.00     0.202 C
ENDBRANCH  18  20
ENDBRANCH  17  18
ENDBRANCH   1  17
BRANCH  14  22
HETATM   22  C12 UNL     1      19.318  11.822  44.640  1.00  0.00     0.029 C
HETATM   23  C13 UNL     1      18.827  12.847  43.640  1.00  0.00     0.038 C
HETATM   24  C14 UNL     1      18.319  10.847  45.187  1.00  0.00     0.038 C
HETATM   25  C15 UNL     1      19.330  12.786  45.876  1.00  0.00     0.038 C
ENDBRANCH  14  22
TORSDOF 4
ENDMDL