MODEL 3
REMARK VINA RESULT: -7.753467486      2.622      6.468
REMARK  7 active torsions:
REMARK  status: ('A' for Active; 'I' for Inactive)
REMARK    1  A    between atoms: C3_3  and  C4_4
REMARK    2  A    between atoms: C5_5  and  C6_6
REMARK    3  A    between atoms: C6_6  and  O1_9
REMARK    4  A    between atoms: O1_9  and  C9_10
REMARK    5  A    between atoms: C9_10  and  C10_12
REMARK    6  A    between atoms: C12_14  and  O3_15
REMARK    7  A    between atoms: C16_20  and  N1_21
ROOT
HETATM    1  C1  UNL     1      24.953  11.762  46.418  1.00  0.00     0.113 C
HETATM    2  C2  UNL     1      23.486  11.829  46.381  1.00  0.00    -0.097 C
HETATM    3  C3  UNL     1      22.276  11.899  46.336  1.00  0.00    -0.015 C
ENDROOT
BRANCH   3   4
HETATM    4  C4  UNL     1      20.857  11.973  46.257  1.00  0.00    -0.012 C
HETATM    5  C5  UNL     1      19.651  12.023  46.207  1.00  0.00    -0.054 C
BRANCH   5   6
HETATM    6  C6  UNL     1      18.188  12.074  46.167  1.00  0.00     0.127 C
HETATM    7  C7  UNL     1      17.573  11.073  47.123  1.00  0.00     0.061 C
HETATM    8  C8  UNL     1      17.751  13.472  46.451  1.00  0.00     0.061 C
BRANCH   6   9
HETATM    9  O1  UNL     1      17.784  11.715  44.868  1.00  0.00    -0.294 OA
BRANCH   9  10
HETATM   10  C9  UNL     1      18.372  12.186  43.707  1.00  0.00     0.295 C
HETATM   11  O2  UNL     1      18.431  13.409  43.530  1.00  0.00    -0.259 OA
BRANCH  10  12
HETATM   12  C10 UNL     1      18.899  11.218  42.738  1.00  0.00     0.043 A
HETATM   13  C11 UNL     1      19.771  10.231  43.138  1.00  0.00     0.057 A
HETATM   14  C12 UNL     1      20.284   9.306  42.247  1.00  0.00     0.103 A
HETATM   15  C14 UNL     1      19.927   9.350  40.916  1.00  0.00     0.121 A
HETATM   16  O4  UNL     1      20.271   8.603  39.912  1.00  0.00    -0.316 OA
HETATM   17  C17 UNL     1      19.049  10.338  40.494  1.00  0.00     0.036 A
HETATM   18  C15 UNL     1      19.649   9.059  38.824  1.00  0.00     0.179 A
HETATM   19  C16 UNL     1      18.882  10.134  39.142  1.00  0.00     0.138 A
HETATM   20  C18 UNL     1      18.547  11.256  41.405  1.00  0.00     0.034 A
BRANCH  14  21
HETATM   21  O3  UNL     1      21.152   8.343  42.709  1.00  0.00    -0.353 OA
HETATM   22  C13 UNL     1      22.532   8.551  42.650  1.00  0.00     0.210 C
ENDBRANCH  14  21
BRANCH  19  23
HETATM   23  N1  UNL     1      18.057  10.926  38.307  1.00  0.00    -0.113 N
HETATM   24  O5  UNL     1      17.458  10.398  37.327  1.00  0.00    -0.532 OA
HETATM   25  O6  UNL     1      17.863  12.255  38.497  1.00  0.00    -0.532 OA
ENDBRANCH  19  23
ENDBRANCH  10  12
ENDBRANCH   9  10
ENDBRANCH   6   9
ENDBRANCH   5   6
ENDBRANCH   3   4
TORSDOF 7
ENDMDL