MODEL 5
REMARK VINA RESULT: -7.278671519      3.115      7.093
REMARK  5 active torsions:
REMARK  status: ('A' for Active; 'I' for Inactive)
REMARK    1  A    between atoms: C2_2  and  O1_3
REMARK    2  A    between atoms: O1_3  and  C3_4
REMARK       I    between atoms: C3_4  and  N1_6
REMARK    3  A    between atoms: C8_12  and  C9_13
REMARK    4  A    between atoms: C10_15  and  N2_16
REMARK    5  A    between atoms: N2_16  and  O5_18
ROOT
HETATM    1  C3  UNL     1      18.795  10.864  40.823  1.00  0.00     0.363 C
HETATM    2  O2  UNL     1      18.043  11.821  41.132  1.00  0.00    -0.238 OA
HETATM    3  N1  UNL     1      19.362  10.094  41.878  1.00  0.00    -0.323 N
HETATM    4  C4  UNL     1      20.235   8.978  41.591  1.00  0.00     0.136 C
HETATM    5  C5  UNL     1      21.356   8.807  42.581  1.00  0.00     0.103 C
HETATM    6  C6  UNL     1      21.547  10.047  43.417  1.00  0.00     0.158 C
HETATM    7  O3  UNL     1      22.673  10.509  43.714  1.00  0.00    -0.293 OA
HETATM    8  C7  UNL     1      20.360  10.768  43.918  1.00  0.00     0.008 C
HETATM    9  C8  UNL     1      20.496  11.653  44.887  1.00  0.00     0.050 C
HETATM   10  C15 UNL     1      19.056  10.440  43.268  1.00  0.00     0.170 C
ENDROOT
BRANCH   9  11
HETATM   11  C9  UNL     1      19.398  12.404  45.442  1.00  0.00     0.086 A
HETATM   12  O4  UNL     1      18.794  13.399  44.867  1.00  0.00    -0.290 OA
HETATM   13  C10 UNL     1      17.830  13.893  45.605  1.00  0.00     0.192 A
HETATM   14  C12 UNL     1      17.805  13.154  46.762  1.00  0.00     0.096 A
HETATM   15 CL1  UNL     1      16.723  13.361  48.121  1.00  0.00    -0.079 Cl
HETATM   16  C13 UNL     1      18.796  12.201  46.678  1.00  0.00    -0.002 A
HETATM   17  C14 UNL     1      19.150  11.184  47.673  1.00  0.00     0.053 C
BRANCH  13  18
HETATM   18  N2  UNL     1      16.973  14.969  45.299  1.00  0.00    -0.241 N
HETATM   19  C11 UNL     1      17.138  16.218  45.989  1.00  0.00     0.188 C
BRANCH  18  20
HETATM   20  O5  UNL     1      16.084  14.859  44.450  1.00  0.00    -0.286 OA
ATOM     21  H5  UNL     1      16.291  14.723  43.533  1.00  0.00     0.244 HD
ENDBRANCH  18  20
ENDBRANCH  13  18
ENDBRANCH   9  11
BRANCH   1  22
HETATM   22  O1  UNL     1      19.058  10.576  39.486  1.00  0.00    -0.304 OA
BRANCH  22  23
HETATM   23  C2  UNL     1      18.234  11.211  38.507  1.00  0.00     0.176 C
HETATM   24  C1  UNL     1      17.848  10.205  37.456  1.00  0.00     0.034 C
ENDBRANCH  22  23
ENDBRANCH   1  22
TORSDOF 5
ENDMDL