MODEL 3
REMARK VINA RESULT: -7.965917050      2.330      3.340
REMARK  4 active torsions:
REMARK  status: ('A' for Active; 'I' for Inactive)
REMARK    1  A    between atoms: C1_2  and  C2_3
REMARK    2  A    between atoms: C1_2  and  O2_6
REMARK    3  A    between atoms: C2_3  and  C3_4
REMARK    4  A    between atoms: O2_6  and  C4_7
ROOT
HETATM    1  C4  UNL     1      18.844  11.932  45.447  1.00  0.00     0.132 C
HETATM    2  C5  UNL     1      19.975  12.391  44.559  1.00  0.00     0.038 C
HETATM    3  C6  UNL     1      19.659  12.216  43.095  1.00  0.00     0.077 C
HETATM    4  C7  UNL     1      19.401  10.772  42.736  1.00  0.00     0.230 C
HETATM    5  C8  UNL     1      18.665  10.035  43.827  1.00  0.00     0.077 C
HETATM    6  C9  UNL     1      17.919  10.971  44.747  1.00  0.00     0.038 C
HETATM    7  O3  UNL     1      20.586  10.080  42.484  1.00  0.00    -0.195 OA
HETATM    8  O4  UNL     1      20.253   8.979  41.845  1.00  0.00    -0.194 OA
HETATM    9  C10 UNL     1      19.941   9.331  40.543  1.00  0.00     0.237 C
HETATM   10  O5  UNL     1      19.427  10.600  40.490  1.00  0.00    -0.194 OA
HETATM   11  O6  UNL     1      18.665  10.772  41.552  1.00  0.00    -0.195 OA
HETATM   12  C11 UNL     1      18.984   8.379  39.885  1.00  0.00     0.055 C
HETATM   13  C12 UNL     1      18.801   8.818  38.457  1.00  0.00     0.015 C
HETATM   14  C13 UNL     1      20.219   8.694  37.914  1.00  0.00    -0.009 C
HETATM   15  C14 UNL     1      21.012   9.920  38.390  1.00  0.00     0.015 C
HETATM   16  C15 UNL     1      21.192   9.149  39.706  1.00  0.00     0.059 C
HETATM   17  C16 UNL     1      20.996   7.892  38.915  1.00  0.00    -0.001 C
HETATM   18  C17 UNL     1      19.906   7.167  39.674  1.00  0.00     0.015 C
ENDROOT
BRANCH   1  19
HETATM   19  O2  UNL     1      19.409  11.257  46.555  1.00  0.00    -0.316 OA
BRANCH  19  20
HETATM   20  C1  UNL     1      19.369  11.776  47.839  1.00  0.00     0.260 C
HETATM   21  O1  UNL     1      19.398  13.013  47.995  1.00  0.00    -0.265 OA
BRANCH  20  22
HETATM   22  C2  UNL     1      19.293  10.876  49.026  1.00  0.00     0.126 C
BRANCH  22  23
HETATM   23  C3  UNL     1      18.176   9.862  48.859  1.00  0.00     0.124 C
HETATM   24 CL1  UNL     1      16.682  10.676  48.350  1.00  0.00    -0.130 Cl
ENDBRANCH  22  23
ENDBRANCH  20  22
ENDBRANCH  19  20
ENDBRANCH   1  19
TORSDOF 4
ENDMDL