MODEL 2
REMARK VINA RESULT: -7.315537885      3.162      6.205
REMARK  3 active torsions:
REMARK  status: ('A' for Active; 'I' for Inactive)
REMARK    1  A    between atoms: C4_5  and  N1_6
REMARK    2  A    between atoms: C7_11  and  S1_12
REMARK    3  A    between atoms: S1_12  and  C8_13
ROOT
HETATM    1  C1  UNL     1      22.240   8.595  42.112  1.00  0.00     0.051 C
HETATM    2  C2  UNL     1      21.659   9.688  42.950  1.00  0.00    -0.020 A
HETATM    3  C3  UNL     1      22.436  10.324  43.917  1.00  0.00     0.077 A
HETATM    4 CL1  UNL     1      24.090   9.822  44.110  1.00  0.00    -0.081 Cl
HETATM    5  C4  UNL     1      21.923  11.327  44.707  1.00  0.00     0.159 A
HETATM    6  C5  UNL     1      20.603  11.700  44.524  1.00  0.00     0.112 A
HETATM    7  C6  UNL     1      19.813  11.092  43.582  1.00  0.00    -0.002 A
HETATM    8  C7  UNL     1      20.350  10.093  42.805  1.00  0.00     0.018 A
HETATM    9  C12 UNL     1      18.480  11.739  43.666  1.00  0.00     0.080 C
HETATM   10  C13 UNL     1      18.497  12.205  45.122  1.00  0.00     0.065 C
HETATM   11  C14 UNL     1      17.483  13.260  45.399  1.00  0.00     0.046 C
HETATM   12  C15 UNL     1      18.298  10.985  45.970  1.00  0.00     0.046 C
HETATM   13  O5  UNL     1      19.849  12.687  45.198  1.00  0.00    -0.337 OA
ENDROOT
BRANCH   8  14
HETATM   14  S1  UNL     1      19.292   9.315  41.558  1.00  0.00    -0.121 SA
BRANCH  14  15
HETATM   15  C8  UNL     1      19.233  10.377  40.129  1.00  0.00     0.086 C
HETATM   16  C9  UNL     1      18.636   9.777  38.897  1.00  0.00     0.194 C
HETATM   17  O3  UNL     1      18.453  10.941  38.080  1.00  0.00    -0.320 OA
HETATM   18  C10 UNL     1      18.042  11.970  38.915  1.00  0.00     0.260 C
HETATM   19  O4  UNL     1      17.462  13.010  38.528  1.00  0.00    -0.265 OA
HETATM   20  C11 UNL     1      18.407  11.623  40.333  1.00  0.00     0.128 C
ENDBRANCH  14  15
ENDBRANCH   8  14
BRANCH   5  21
HETATM   21  N1  UNL     1      22.737  11.977  45.699  1.00  0.00    -0.111 N
HETATM   22  O1  UNL     1      23.139  13.130  45.481  1.00  0.00    -0.532 OA
HETATM   23  O2  UNL     1      23.086  11.376  46.875  1.00  0.00    -0.532 OA
ENDBRANCH   5  21
TORSDOF 3
ENDMDL