MODEL 5
REMARK VINA RESULT: -6.134651059      2.824      4.850
REMARK  4 active torsions:
REMARK  status: ('A' for Active; 'I' for Inactive)
REMARK    1  A    between atoms: C2_2  and  O1_3
REMARK    2  A    between atoms: O1_3  and  C3_4
REMARK    3  A    between atoms: C3_4  and  C4_6
REMARK    4  A    between atoms: C5_7  and  C6_8
ROOT
HETATM    1  C4  UNL     1      18.155  12.680  46.108  1.00  0.00     0.133 C
HETATM    2  C5  UNL     1      18.850  12.752  47.453  1.00  0.00     0.087 C
HETATM    3  C10 UNL     1      20.337  12.938  47.363  1.00  0.00     0.203 C
HETATM    4  C11 UNL     1      20.889  12.736  48.699  1.00  0.00     0.075 C
HETATM    5  N1  UNL     1      21.315  12.561  49.768  1.00  0.00    -0.196 NA
HETATM    6  C12 UNL     1      20.906  11.929  46.457  1.00  0.00     0.278 C
HETATM    7  O4  UNL     1      22.005  11.335  46.711  1.00  0.00    -0.264 OA
HETATM    8  O5  UNL     1      20.226  11.637  45.321  1.00  0.00    -0.308 OA
HETATM    9  C13 UNL     1      18.922  12.089  45.000  1.00  0.00     0.084 C
HETATM   10  C14 UNL     1      18.232  10.812  44.471  1.00  0.00     0.039 C
HETATM   11  C15 UNL     1      18.951  10.672  43.123  1.00  0.00     0.003 C
HETATM   12  C16 UNL     1      18.720  12.058  42.565  1.00  0.00     0.003 C
HETATM   13  C17 UNL     1      19.067  12.924  43.758  1.00  0.00     0.039 C
ENDROOT
BRANCH   2  14
HETATM   14  C6  UNL     1      18.480  11.617  48.340  1.00  0.00     0.061 A
HETATM   15  C7  UNL     1      17.517  11.549  49.305  1.00  0.00     0.037 A
HETATM   16  C8  UNL     1      17.560  10.288  49.848  1.00  0.00     0.052 A
HETATM   17  C9  UNL     1      18.570   9.639  49.169  1.00  0.00     0.145 A
HETATM   18 CL1  UNL     1      19.006   7.963  49.523  1.00  0.00    -0.057 Cl
HETATM   19  O3  UNL     1      19.075  10.453  48.301  1.00  0.00    -0.302 OA
ENDBRANCH   2  14
BRANCH   1  20
HETATM   20  C3  UNL     1      17.504  13.984  45.801  1.00  0.00     0.266 C
HETATM   21  O2  UNL     1      16.550  14.113  44.996  1.00  0.00    -0.265 OA
BRANCH  20  22
HETATM   22  O1  UNL     1      17.953  15.139  46.420  1.00  0.00    -0.321 OA
BRANCH  22  23
HETATM   23  C2  UNL     1      17.007  16.070  46.970  1.00  0.00     0.174 C
HETATM   24  C1  UNL     1      17.332  17.484  46.622  1.00  0.00     0.034 C
ENDBRANCH  22  23
ENDBRANCH  20  22
ENDBRANCH   1  20
TORSDOF 4
ENDMDL