MODEL 5
REMARK VINA RESULT: -7.758043856      2.610      7.252
REMARK  4 active torsions:
REMARK  status: ('A' for Active; 'I' for Inactive)
REMARK    1  A    between atoms: C5_6  and  C6_7
REMARK    2  A    between atoms: C6_7  and  O3_9
REMARK    3  A    between atoms: O3_9  and  C7_10
REMARK    4  A    between atoms: C7_10  and  C8_11
ROOT
HETATM    1  C7  UNL     1      18.038  12.552  41.561  1.00  0.00     0.211 C
ENDROOT
BRANCH   1   2
HETATM    2  O3  UNL     1      18.618  12.742  42.790  1.00  0.00    -0.315 OA
BRANCH   2   3
HETATM    3  C6  UNL     1      18.265  12.328  44.033  1.00  0.00     0.297 C
HETATM    4  O2  UNL     1      18.048  11.100  44.224  1.00  0.00    -0.259 OA
BRANCH   3   5
HETATM    5  C5  UNL     1      18.130  13.276  45.168  1.00  0.00     0.092 A
HETATM    6  C3  UNL     1      18.851  13.238  46.336  1.00  0.00     0.067 A
HETATM    7  O1  UNL     1      18.464  14.231  47.109  1.00  0.00    -0.317 OA
HETATM    8  C4  UNL     1      19.899  12.229  46.660  1.00  0.00     0.078 C
HETATM    9  C2  UNL     1      17.523  14.950  46.547  1.00  0.00     0.072 A
HETATM   10  C1  UNL     1      16.826  16.149  47.089  1.00  0.00     0.078 C
HETATM   11  C16 UNL     1      17.292  14.355  45.300  1.00  0.00     0.082 A
HETATM   12 CL1  UNL     1      16.141  14.873  44.097  1.00  0.00    -0.081 Cl
ENDBRANCH   3   5
ENDBRANCH   2   3
ENDBRANCH   1   2
BRANCH   1  13
HETATM   13  C8  UNL     1      18.780  11.590  40.683  1.00  0.00     0.149 C
HETATM   14  C9  UNL     1      18.025  11.611  39.336  1.00  0.00     0.037 C
HETATM   15  C10 UNL     1      18.965  10.902  38.380  1.00  0.00     0.040 C
HETATM   16  C11 UNL     1      19.312   9.571  38.912  1.00  0.00     0.180 C
HETATM   17  O4  UNL     1      20.690   9.339  38.734  1.00  0.00    -0.346 OA
HETATM   18  C15 UNL     1      19.091   9.315  40.330  1.00  0.00     0.292 C
HETATM   19  C12 UNL     1      21.009   8.371  39.679  1.00  0.00     0.160 C
HETATM   20  C13 UNL     1      22.502   8.444  39.915  1.00  0.00     0.078 C
HETATM   21  C14 UNL     1      20.686   6.986  39.193  1.00  0.00     0.078 C
HETATM   22  O5  UNL     1      20.284   8.743  40.787  1.00  0.00    -0.324 OA
HETATM   23  O6  UNL     1      18.749  10.339  41.144  1.00  0.00    -0.351 OA
ENDBRANCH   1  13
TORSDOF 4
ENDMDL