MODEL 2
REMARK VINA RESULT: -6.120363173      1.542      2.283
REMARK  3 active torsions:
REMARK  status: ('A' for Active; 'I' for Inactive)
REMARK    1  A    between atoms: C5_6  and  C6_7
REMARK    2  A    between atoms: N5_17  and  C9_18
REMARK    3  A    between atoms: C9_18  and  C10_19
ROOT
HETATM    1  C1  UNL     1      16.563  14.798  44.741  1.00  0.00     0.149 C
HETATM    2  N1  UNL     1      17.610  14.427  45.562  1.00  0.00    -0.391 N
HETATM    3  C2  UNL     1      17.719  14.906  46.867  1.00  0.00     0.058 C
HETATM    4  C3  UNL     1      17.803  13.820  47.928  1.00  0.00     0.046 C
HETATM    5  C4  UNL     1      17.503  12.531  47.191  1.00  0.00     0.026 C
HETATM    6  C5  UNL     1      18.559  12.286  46.096  1.00  0.00     0.058 C
HETATM    7  C11 UNL     1      18.491  13.367  45.153  1.00  0.00     0.106 C
HETATM    8  C12 UNL     1      17.750  12.551  44.069  1.00  0.00     0.030 C
HETATM    9  C13 UNL     1      18.572  12.503  42.811  1.00  0.00     0.008 C
HETATM   10  C14 UNL     1      18.709  11.379  41.933  1.00  0.00     0.001 C
HETATM   11  C15 UNL     1      19.796  10.321  42.139  1.00  0.00     0.011 C
HETATM   12  C16 UNL     1      19.667   9.622  43.538  1.00  0.00     0.081 C
HETATM   13  C17 UNL     1      18.865  10.465  44.321  1.00  0.00    -0.172 C
HETATM   14  C18 UNL     1      18.004  11.335  45.009  1.00  0.00     0.030 C
HETATM   15  C19 UNL     1      16.719  10.716  45.536  1.00  0.00     0.030 C
ENDROOT
BRANCH   6  16
HETATM   16  C6  UNL     1      19.740  11.671  46.660  1.00  0.00     0.099 A
HETATM   17  N2  UNL     1      19.570  10.770  47.707  1.00  0.00    -0.327 N
HETATM   18  C7  UNL     1      20.757  10.396  48.143  1.00  0.00     0.175 A
ATOM     19  H2  UNL     1      18.674  10.452  48.075  1.00  0.00     0.169 HD
HETATM   20  N3  UNL     1      21.463   9.643  49.012  1.00  0.00    -0.222 N
HETATM   21  C8  UNL     1      21.720  11.038  47.396  1.00  0.00     0.177 A
HETATM   22  O1  UNL     1      22.727   9.823  48.801  1.00  0.00    -0.153 OA
ATOM     23  H3  UNL     1      21.065   9.028  49.722  1.00  0.00     0.198 HD
HETATM   24  N4  UNL     1      22.932  10.675  47.817  1.00  0.00    -0.222 N
ATOM     25  H4  UNL     1      23.831  10.991  47.452  1.00  0.00     0.198 HD
HETATM   26  N5  UNL     1      21.043  11.818  46.488  1.00  0.00    -0.315 N
BRANCH  26  27
HETATM   27  C9  UNL     1      21.733  12.572  45.501  1.00  0.00     0.163 C
BRANCH  27  28
HETATM   28  C10 UNL     1      22.259  11.731  44.370  1.00  0.00     0.242 C
HETATM   29  F1  UNL     1      23.439  11.137  44.692  1.00  0.00    -0.254 F
ENDBRANCH  27  28
ENDBRANCH  26  27
ENDBRANCH   6  16
TORSDOF 3
ENDMDL