MODEL 1
REMARK VINA RESULT: -7.800980511      0.000      0.000
REMARK  3 active torsions:
REMARK  status: ('A' for Active; 'I' for Inactive)
REMARK    1  A    between atoms: C5_8  and  C6_9
REMARK    2  A    between atoms: C6_9  and  C7_11
REMARK    3  A    between atoms: C7_11  and  C8_13
ROOT
HETATM    1  C6  UNL     1      19.987   8.219  39.987  1.00  0.00     0.206 C
HETATM    2  O4  UNL     1      19.520   7.157  39.532  1.00  0.00    -0.288 OA
ENDROOT
BRANCH   1   3
HETATM    3  C5  UNL     1      21.374   8.329  40.323  1.00  0.00     0.160 A
HETATM    4  C2  UNL     1      22.328   8.639  39.406  1.00  0.00    -0.016 A
HETATM    5  C1  UNL     1      21.947   8.879  37.997  1.00  0.00     0.051 C
HETATM    6  C3  UNL     1      23.682   8.737  39.781  1.00  0.00     0.094 A
HETATM    7  C4  UNL     1      23.981   8.504  41.101  1.00  0.00     0.313 A
HETATM    8  O1  UNL     1      25.174   8.580  41.483  1.00  0.00    -0.258 OA
HETATM    9  O2  UNL     1      23.020   8.213  41.922  1.00  0.00    -0.148 OA
HETATM   10  O3  UNL     1      21.789   8.125  41.572  1.00  0.00    -0.184 OA
ENDBRANCH   1   3
BRANCH   1  11
HETATM   11  C7  UNL     1      19.110   9.400  40.190  1.00  0.00     0.183 C
HETATM   12 CL1  UNL     1      19.126  10.420  38.760  1.00  0.00    -0.114 Cl
BRANCH  11  13
HETATM   13  C8  UNL     1      19.504  10.210  41.392  1.00  0.00     0.140 C
HETATM   14  S1  UNL     1      19.123   9.369  42.950  1.00  0.00    -0.115 SA
HETATM   15  C9  UNL     1      19.009  10.852  44.027  1.00  0.00     0.000 C
HETATM   16  C10 UNL     1      19.438  11.158  45.219  1.00  0.00     0.060 C
HETATM   17  C12 UNL     1      18.238  11.864  43.340  1.00  0.00     0.098 C
HETATM   18  S2  UNL     1      18.899  12.846  45.556  1.00  0.00    -0.139 SA
HETATM   19  C11 UNL     1      18.659  13.254  43.760  1.00  0.00     0.099 C
HETATM   20  S3  UNL     1      18.505  11.706  41.578  1.00  0.00    -0.140 SA
ENDBRANCH  11  13
ENDBRANCH   1  11
TORSDOF 3
ENDMDL