MODEL 1
REMARK VINA RESULT: -7.599238126      0.000      0.000
REMARK  3 active torsions:
REMARK  status: ('A' for Active; 'I' for Inactive)
REMARK    1  A    between atoms: N2_5  and  C3_6
REMARK    2  A    between atoms: C3_6  and  N3_7
REMARK    3  A    between atoms: N4_10  and  C6_11
ROOT
HETATM    1  N3  UNL     1      18.793  12.333  45.166  1.00  0.00    -0.370 N
HETATM    2  C4  UNL     1      20.170  12.257  44.905  1.00  0.00     0.090 C
HETATM    3  C5  UNL     1      20.560  11.366  43.755  1.00  0.00     0.317 C
HETATM    4  N4  UNL     1      19.340  11.090  43.019  1.00  0.00     0.103 N
HETATM    5  C15 UNL     1      18.444  10.303  43.839  1.00  0.00     0.293 C
HETATM    6  C16 UNL     1      17.972  11.192  44.938  1.00  0.00     0.154 C
ENDROOT
BRANCH   4   7
HETATM    7  C6  UNL     1      19.570  10.551  41.731  1.00  0.00     0.259 C
HETATM    8  C7  UNL     1      19.386   9.080  41.615  1.00  0.00     0.066 C
HETATM    9  C8  UNL     1      19.913   8.599  40.306  1.00  0.00     0.040 C
HETATM   10  C9  UNL     1      18.891   7.660  39.683  1.00  0.00     0.033 C
HETATM   11 CL1  UNL     1      21.377   7.625  40.616  1.00  0.00    -0.119 Cl
HETATM   12  C10 UNL     1      20.271   9.705  39.359  1.00  0.00     0.065 C
HETATM   13  C11 UNL     1      19.222  10.802  39.385  1.00  0.00    -0.041 A
HETATM   14  C12 UNL     1      18.619  11.396  38.317  1.00  0.00     0.057 A
HETATM   15  C14 UNL     1      18.871  11.236  40.616  1.00  0.00    -0.012 A
HETATM   16  S1  UNL     1      17.586  12.538  39.034  1.00  0.00    -0.113 SA
HETATM   17  C13 UNL     1      17.938  12.241  40.674  1.00  0.00     0.059 A
ENDBRANCH   4   7
BRANCH   1  18
HETATM   18  C3  UNL     1      18.168  13.606  45.043  1.00  0.00     0.301 C
BRANCH  18  19
HETATM   19  N2  UNL     1      17.623  13.973  46.350  1.00  0.00    -0.172 N
HETATM   20  N1  UNL     1      16.453  14.163  46.909  1.00  0.00    -0.258 N
HETATM   21  C2  UNL     1      17.065  14.449  48.063  1.00  0.00     0.161 A
ATOM     22  H1  UNL     1      15.484  14.114  46.596  1.00  0.00     0.191 HD
HETATM   23  C1  UNL     1      16.639  14.831  49.445  1.00  0.00     0.101 C
HETATM   24  O1  UNL     1      18.193  14.249  47.461  1.00  0.00    -0.204 OA
ENDBRANCH  18  19
ENDBRANCH   1  18
TORSDOF 3
ENDMDL