MODEL 2
REMARK VINA RESULT: -7.660722839      1.920      2.580
REMARK  4 active torsions:
REMARK  status: ('A' for Active; 'I' for Inactive)
REMARK    1  A    between atoms: C3_5  and  N2_6
REMARK    2  A    between atoms: C10_14  and  C11_15
REMARK    3  A    between atoms: C11_15  and  O2_17
REMARK    4  A    between atoms: O2_17  and  C12_18
ROOT
HETATM    1  C1  UNL     1      18.346  81.202   2.790  1.00  0.00     0.070 C
HETATM    2  C2  UNL     1      18.927  82.550   3.171  1.00  0.00     0.030 A
HETATM    3  N1  UNL     1      18.723  83.091   4.333  1.00  0.00    -0.339 N
ATOM      4  H1  UNL     1      18.156  82.598   5.023  1.00  0.00     0.168 HD
HETATM    5  C3  UNL     1      19.234  84.257   4.635  1.00  0.00     0.147 A
HETATM    6  S1  UNL     1      20.076  84.645   3.181  1.00  0.00    -0.046 SA
HETATM    7  C10 UNL     1      19.696  83.248   2.279  1.00  0.00     0.105 A
ENDROOT
BRANCH   7   8
HETATM    8  C11 UNL     1      20.080  82.891   0.913  1.00  0.00     0.303 C
HETATM    9  O1  UNL     1      21.120  82.174   0.706  1.00  0.00    -0.259 OA
BRANCH   8  10
HETATM   10  O2  UNL     1      19.380  83.282  -0.199  1.00  0.00    -0.304 OA
BRANCH  10  11
HETATM   11  C12 UNL     1      18.203  82.597  -0.649  1.00  0.00     0.203 C
HETATM   12  C13 UNL     1      17.233  83.488  -1.348  1.00  0.00     0.050 C
HETATM   13  C14 UNL     1      17.628  83.985  -2.686  1.00  0.00     0.077 C
HETATM   14  S2  UNL     1      18.607  82.806  -3.641  1.00  0.00    -0.162 SA
HETATM   15  C15 UNL     1      18.974  81.314  -2.734  1.00  0.00     0.154 C
HETATM   16  C16 UNL     1      18.529  81.343  -1.331  1.00  0.00     0.165 C
HETATM   17  O3  UNL     1      18.451  80.237  -0.775  1.00  0.00    -0.294 OA
ENDBRANCH  10  11
ENDBRANCH   8  10
ENDBRANCH   7   8
BRANCH   5  18
HETATM   18  N2  UNL     1      19.134  85.030   5.852  1.00  0.00    -0.361 N
HETATM   19  C4  UNL     1      18.969  84.332   7.086  1.00  0.00     0.125 C
HETATM   20  C5  UNL     1      20.141  84.470   8.031  1.00  0.00     0.020 C
HETATM   21  C6  UNL     1      20.224  85.849   8.642  1.00  0.00     0.002 C
HETATM   22  C7  UNL     1      20.627  86.850   7.567  1.00  0.00     0.002 C
HETATM   23  C8  UNL     1      19.361  87.260   6.871  1.00  0.00     0.020 C
HETATM   24  C9  UNL     1      19.213  86.451   5.619  1.00  0.00     0.125 C
ENDBRANCH   5  18
TORSDOF 4
ENDMDL