MODEL 5
REMARK VINA RESULT: -7.859231952      1.209      1.688
REMARK  3 active torsions:
REMARK  status: ('A' for Active; 'I' for Inactive)
REMARK    1  A    between atoms: C3_5  and  C4_6
REMARK       I    between atoms: N2_10  and  C8_11
REMARK    2  A    between atoms: C8_11  and  C9_13
REMARK    3  A    between atoms: C11_16  and  C12_17
ROOT
HETATM    1  C4  UNL     1      20.042  82.670   1.206  1.00  0.00     0.072 C
HETATM    2  C5  UNL     1      21.087  83.434   1.930  1.00  0.00     0.015 C
HETATM    3  C6  UNL     1      20.689  84.782   2.449  1.00  0.00     0.021 C
HETATM    4  C7  UNL     1      19.245  84.827   2.907  1.00  0.00     0.126 C
HETATM    5  N2  UNL     1      18.800  83.486   3.051  1.00  0.00    -0.346 N
HETATM    6  C8  UNL     1      18.514  82.729   4.200  1.00  0.00     0.270 C
HETATM    7  O1  UNL     1      18.105  81.508   4.052  1.00  0.00    -0.266 OA
HETATM    8  C16 UNL     1      18.642  82.796   1.750  1.00  0.00     0.138 C
ENDROOT
BRANCH   6   9
HETATM    9  C9  UNL     1      18.641  83.217   5.594  1.00  0.00     0.108 A
HETATM   10  C10 UNL     1      18.117  82.511   6.655  1.00  0.00     0.086 A
HETATM   11  S1  UNL     1      18.553  83.521   7.983  1.00  0.00    -0.086 SA
HETATM   12  C11 UNL     1      19.356  84.745   7.114  1.00  0.00     0.057 A
HETATM   13  N3  UNL     1      19.249  84.327   5.888  1.00  0.00    -0.349 N
ATOM     14  H3  UNL     1      19.653  84.884   5.136  1.00  0.00     0.166 HD
BRANCH  12  15
HETATM   15  C12 UNL     1      20.026  85.994   7.571  1.00  0.00     0.069 C
HETATM   16  C13 UNL     1      20.159  86.990   6.436  1.00  0.00     0.040 C
HETATM   17  C14 UNL     1      18.868  87.762   6.565  1.00  0.00     0.168 C
HETATM   18  O2  UNL     1      18.446  87.689   7.861  1.00  0.00    -0.390 OA
HETATM   19  C15 UNL     1      19.168  86.759   8.547  1.00  0.00     0.179 C
ENDBRANCH  12  15
ENDBRANCH   6   9
BRANCH   1  20
HETATM   20  C3  UNL     1      20.025  83.041  -0.270  1.00  0.00     0.093 A
HETATM   21  N1  UNL     1      21.114  83.385  -0.902  1.00  0.00    -0.342 N
HETATM   22  C2  UNL     1      21.045  83.699  -2.184  1.00  0.00     0.065 A
ATOM     23  H1  UNL     1      22.008  83.412  -0.413  1.00  0.00     0.167 HD
HETATM   24  C1  UNL     1      22.169  84.123  -3.103  1.00  0.00     0.078 C
HETATM   25  S2  UNL     1      19.385  83.500  -2.512  1.00  0.00    -0.000 SA
HETATM   26  N4  UNL     1      18.887  83.028  -0.980  1.00  0.00    -0.314 N
ATOM     27  H4  UNL     1      17.947  82.789  -0.666  1.00  0.00     0.175 HD
ENDBRANCH   1  20
TORSDOF 3
ENDMDL