MODEL 3
REMARK VINA RESULT: -7.176024335      3.317      6.202
REMARK  4 active torsions:
REMARK  status: ('A' for Active; 'I' for Inactive)
REMARK    1  A    between atoms: O1_2  and  C2_3
REMARK    2  A    between atoms: C2_3  and  C3_5
REMARK    3  A    between atoms: C8_10  and  S1_11
REMARK    4  A    between atoms: S1_11  and  C9_12
ROOT
HETATM    1  C3  UNL     1      18.594  82.956   5.078  1.00  0.00     0.059 A
HETATM    2  C4  UNL     1      18.372  81.816   4.334  1.00  0.00     0.058 A
HETATM    3  C5  UNL     1      18.733  81.744   3.027  1.00  0.00     0.101 A
HETATM    4  C6  UNL     1      19.339  82.839   2.427  1.00  0.00    -0.001 A
HETATM    5  C7  UNL     1      19.556  83.971   3.179  1.00  0.00     0.031 A
HETATM    6  C8  UNL     1      19.201  84.072   4.502  1.00  0.00     0.018 A
HETATM    7  C14 UNL     1      19.590  82.426   1.035  1.00  0.00     0.122 C
HETATM    8  C15 UNL     1      19.148  83.436   0.028  1.00  0.00     0.028 C
HETATM    9  C16 UNL     1      17.630  83.285   0.027  1.00  0.00     0.019 C
HETATM   10  C17 UNL     1      17.356  81.939   0.651  1.00  0.00     0.122 C
HETATM   11  N1  UNL     1      18.669  81.315   0.846  1.00  0.00    -0.182 NA
HETATM   12  O5  UNL     1      18.616  80.724   2.085  1.00  0.00    -0.260 OA
ENDROOT
BRANCH   6  13
HETATM   13  S1  UNL     1      19.477  85.530   5.487  1.00  0.00    -0.111 SA
BRANCH  13  14
HETATM   14  C9  UNL     1      21.059  85.377   6.351  1.00  0.00     0.186 C
HETATM   15  C10 UNL     1      22.098  86.178   5.656  1.00  0.00     0.277 C
HETATM   16  O3  UNL     1      22.987  86.004   4.790  1.00  0.00    -0.264 OA
HETATM   17  O4  UNL     1      21.705  87.299   6.371  1.00  0.00    -0.308 OA
HETATM   18  C11 UNL     1      21.327  86.412   7.408  1.00  0.00     0.085 C
HETATM   19  C12 UNL     1      22.514  86.026   8.257  1.00  0.00     0.048 C
HETATM   20  C13 UNL     1      20.175  86.844   8.246  1.00  0.00     0.048 C
ENDBRANCH  13  14
ENDBRANCH   6  13
BRANCH   1  21
HETATM   21  C2  UNL     1      18.178  82.957   6.470  1.00  0.00     0.294 C
HETATM   22  O2  UNL     1      17.909  81.872   7.026  1.00  0.00    -0.259 OA
BRANCH  21  23
HETATM   23  O1  UNL     1      18.063  84.114   7.225  1.00  0.00    -0.322 OA
HETATM   24  C1  UNL     1      18.091  84.149   8.629  1.00  0.00     0.213 C
ENDBRANCH  21  23
ENDBRANCH   1  21
TORSDOF 4
ENDMDL