MODEL 3
REMARK VINA RESULT: -6.551345511      3.264      6.534
REMARK  5 active torsions:
REMARK  status: ('A' for Active; 'I' for Inactive)
REMARK    1  A    between atoms: C2_2  and  C3_3
REMARK    2  A    between atoms: C3_3  and  C4_4
REMARK    3  A    between atoms: C12_15  and  O4_16
REMARK    4  A    between atoms: O4_16  and  C13_17
REMARK    5  A    between atoms: C18_23  and  O6_24
ROOT
HETATM    1  C4  UNL     1      21.136  83.653   2.675  1.00  0.00     0.272 C
HETATM    2  O1  UNL     1      21.575  83.374   1.440  1.00  0.00    -0.290 OA
HETATM    3  C5  UNL     1      22.462  82.870   0.620  1.00  0.00     0.261 C
HETATM    4  O2  UNL     1      23.528  83.495   0.275  1.00  0.00    -0.265 OA
HETATM    5  C6  UNL     1      22.382  81.519  -0.038  1.00  0.00     0.111 C
HETATM    6  C7  UNL     1      21.832  81.480  -1.400  1.00  0.00     0.012 C
HETATM    7  C8  UNL     1      21.259  82.772  -1.870  1.00  0.00     0.027 C
HETATM    8  C9  UNL     1      20.122  82.570  -2.823  1.00  0.00     0.175 C
HETATM    9  O3  UNL     1      18.848  82.370  -2.197  1.00  0.00    -0.351 OA
HETATM   10  C10 UNL     1      18.591  82.086  -0.844  1.00  0.00     0.072 A
HETATM   11  C11 UNL     1      18.068  80.807  -0.644  1.00  0.00     0.074 A
HETATM   12  C12 UNL     1      17.763  80.306   0.598  1.00  0.00     0.082 A
HETATM   13  C15 UNL     1      18.013  81.153   1.644  1.00  0.00     0.049 A
HETATM   14  C16 UNL     1      18.539  82.455   1.492  1.00  0.00     0.002 A
HETATM   15  C17 UNL     1      18.821  82.919   0.239  1.00  0.00     0.049 A
HETATM   16  C18 UNL     1      18.858  83.054   2.838  1.00  0.00     0.297 C
HETATM   17  O7  UNL     1      20.201  82.786   3.156  1.00  0.00    -0.327 OA
ENDROOT
BRANCH  12  18
HETATM   18  O4  UNL     1      17.240  79.029   0.779  1.00  0.00    -0.279 OA
BRANCH  18  19
HETATM   19  C13 UNL     1      17.032  78.143  -0.252  1.00  0.00     0.260 C
HETATM   20  C14 UNL     1      17.395  76.691  -0.147  1.00  0.00     0.126 C
HETATM   21  O5  UNL     1      16.517  78.585  -1.311  1.00  0.00    -0.265 OA
ENDBRANCH  18  19
ENDBRANCH  12  18
BRANCH  16  22
HETATM   22  O6  UNL     1      18.170  82.371   3.871  1.00  0.00    -0.362 OA
HETATM   23  C19 UNL     1      18.481  82.866   5.134  1.00  0.00     0.205 C
ENDBRANCH  16  22
BRANCH   1  24
HETATM   24  C3  UNL     1      20.658  85.110   2.731  1.00  0.00     0.061 C
BRANCH  24  25
HETATM   25  C2  UNL     1      21.687  85.976   3.430  1.00  0.00     0.000 C
HETATM   26  C1  UNL     1      21.274  86.056   4.884  1.00  0.00     0.005 C
ENDBRANCH  24  25
ENDBRANCH   1  24
TORSDOF 5
ENDMDL