MODEL 5
REMARK VINA RESULT: -7.546854079      2.754      6.872
REMARK  4 active torsions:
REMARK  status: ('A' for Active; 'I' for Inactive)
REMARK    1  A    between atoms: O1_2  and  C2_3
REMARK    2  A    between atoms: C7_8  and  O2_9
REMARK    3  A    between atoms: O2_9  and  C8_10
REMARK    4  A    between atoms: C10_13  and  O4_14
ROOT
HETATM    1  C2  UNL     1      17.173  80.642  -0.659  1.00  0.00     0.111 A
HETATM    2  C3  UNL     1      17.472  80.363   0.653  1.00  0.00    -0.016 A
HETATM    3  C4  UNL     1      17.047  79.055   1.234  1.00  0.00     0.052 C
HETATM    4  C5  UNL     1      18.155  81.273   1.434  1.00  0.00    -0.009 A
HETATM    5  C6  UNL     1      18.528  82.463   0.865  1.00  0.00     0.114 A
HETATM    6  C7  UNL     1      18.232  82.762  -0.465  1.00  0.00     0.149 A
HETATM    7  C10 UNL     1      17.549  81.847  -1.238  1.00  0.00     0.139 A
HETATM    8  O5  UNL     1      19.216  83.548   1.407  1.00  0.00    -0.327 OA
HETATM    9  C12 UNL     1      19.967  83.611   2.607  1.00  0.00     0.267 A
HETATM   10  C13 UNL     1      20.232  84.908   3.177  1.00  0.00     0.300 A
HETATM   11  O6  UNL     1      20.848  85.868   2.661  1.00  0.00    -0.261 OA
HETATM   12  O7  UNL     1      19.670  84.947   4.470  1.00  0.00    -0.252 OA
HETATM   13  C14 UNL     1      18.977  83.754   4.745  1.00  0.00     0.203 A
HETATM   14  O8  UNL     1      18.250  83.036   5.570  1.00  0.00    -0.299 OA
HETATM   15  C15 UNL     1      17.926  81.858   5.029  1.00  0.00     0.153 A
HETATM   16  C16 UNL     1      18.481  81.818   3.781  1.00  0.00    -0.017 A
HETATM   17  C17 UNL     1      19.122  82.995   3.640  1.00  0.00     0.048 A
HETATM   18  C18 UNL     1      18.335  80.701   2.815  1.00  0.00     0.083 C
ENDROOT
BRANCH   6  19
HETATM   19  O2  UNL     1      18.637  83.979  -0.970  1.00  0.00    -0.273 OA
BRANCH  19  20
HETATM   20  C8  UNL     1      19.699  83.994  -1.865  1.00  0.00     0.260 C
HETATM   21  C9  UNL     1      19.653  84.710  -3.166  1.00  0.00     0.126 C
HETATM   22  O3  UNL     1      20.775  83.383  -1.598  1.00  0.00    -0.265 OA
ENDBRANCH  19  20
ENDBRANCH   6  19
BRANCH   7  23
HETATM   23  O4  UNL     1      17.272  82.178  -2.556  1.00  0.00    -0.351 OA
HETATM   24  C11 UNL     1      16.077  82.895  -2.808  1.00  0.00     0.210 C
ENDBRANCH   7  23
BRANCH   1  25
HETATM   25  O1  UNL     1      16.488  79.725  -1.435  1.00  0.00    -0.352 OA
HETATM   26  C1  UNL     1      17.206  78.978  -2.394  1.00  0.00     0.210 C
ENDBRANCH   1  25
TORSDOF 4
ENDMDL