MODEL 2
REMARK VINA RESULT: -7.914754927      3.531      6.179
REMARK  4 active torsions:
REMARK  status: ('A' for Active; 'I' for Inactive)
REMARK    1  A    between atoms: O1_2  and  C2_3
REMARK    2  A    between atoms: C2_3  and  C3_5
REMARK    3  A    between atoms: N2_9  and  C6_11
REMARK    4  A    between atoms: N3_16  and  C11_17
ROOT
HETATM    1  C3  UNL     1      18.659  81.718   1.683  1.00  0.00     0.100 A
HETATM    2  C4  UNL     1      18.595  82.449   2.837  1.00  0.00     0.142 A
HETATM    3  N1  UNL     1      19.539  83.330   3.053  1.00  0.00    -0.132 N
HETATM    4  C5  UNL     1      19.861  84.258   4.055  1.00  0.00     0.704 A
HETATM    5  N2  UNL     1      19.189  84.434   5.091  1.00  0.00    -0.219 N
ATOM      6  H2  UNL     1      18.418  83.773   5.005  1.00  0.00     0.178 HD
HETATM    7  N3  UNL     1      20.986  84.904   3.714  1.00  0.00    -0.117 N
HETATM    8  N4  UNL     1      21.375  84.417   2.543  1.00  0.00    -0.262 N
ATOM      9  H4  UNL     1      22.202  84.709   2.022  1.00  0.00     0.190 HD
HETATM   10  C17 UNL     1      20.499  83.474   2.160  1.00  0.00     0.187 A
HETATM   11  S1  UNL     1      20.074  82.328   0.952  1.00  0.00    -0.044 SA
ENDROOT
BRANCH   5  12
HETATM   12  C6  UNL     1      18.965  85.053   6.265  1.00  0.00     0.099 C
HETATM   13  C7  UNL     1      19.168  86.571   6.274  1.00  0.00     0.026 C
HETATM   14  C8  UNL     1      19.618  86.952   7.646  1.00  0.00     0.002 C
HETATM   15  C9  UNL     1      19.601  85.693   8.469  1.00  0.00     0.002 C
HETATM   16  C10 UNL     1      19.908  84.643   7.413  1.00  0.00     0.026 C
ENDBRANCH   5  12
BRANCH   7  17
HETATM   17  C11 UNL     1      21.720  85.967   4.436  1.00  0.00     0.126 C
HETATM   18  C12 UNL     1      22.477  85.452   5.611  1.00  0.00     0.028 C
HETATM   19  C13 UNL     1      23.883  86.006   5.579  1.00  0.00     0.002 C
HETATM   20  C14 UNL     1      24.535  85.409   4.321  1.00  0.00     0.000 C
HETATM   21  C15 UNL     1      23.859  85.998   3.091  1.00  0.00     0.002 C
HETATM   22  C16 UNL     1      22.599  86.721   3.438  1.00  0.00     0.028 C
ENDBRANCH   7  17
BRANCH   1  23
HETATM   23  C2  UNL     1      17.726  80.672   1.208  1.00  0.00     0.301 C
HETATM   24  O2  UNL     1      17.091  79.997   2.049  1.00  0.00    -0.259 OA
BRANCH  23  25
HETATM   25  O1  UNL     1      17.561  80.442  -0.146  1.00  0.00    -0.322 OA
HETATM   26  C1  UNL     1      16.968  79.215  -0.530  1.00  0.00     0.213 C
ENDBRANCH  23  25
ENDBRANCH   1  23
TORSDOF 4
ENDMDL