MODEL 2
REMARK VINA RESULT: -7.153692170      1.893      6.415
REMARK  5 active torsions:
REMARK  status: ('A' for Active; 'I' for Inactive)
REMARK    1  A    between atoms: O1_2  and  C2_3
REMARK    2  A    between atoms: C2_3  and  C3_5
REMARK    3  A    between atoms: C7_9  and  O3_10
REMARK    4  A    between atoms: C9_12  and  O4_13
REMARK    5  A    between atoms: O4_13  and  C10_14
ROOT
HETATM    1  C3  UNL     1      18.500  83.017   5.761  1.00  0.00     0.079 A
HETATM    2  C4  UNL     1      18.345  81.969   4.847  1.00  0.00     0.058 A
HETATM    3  C5  UNL     1      18.606  82.191   3.500  1.00  0.00     0.083 A
HETATM    4  C6  UNL     1      19.014  83.464   3.116  1.00  0.00     0.021 A
HETATM    5  C7  UNL     1      19.170  84.497   3.989  1.00  0.00     0.112 A
HETATM    6  C9  UNL     1      18.908  84.259   5.323  1.00  0.00     0.129 A
HETATM    7  C12 UNL     1      19.202  83.386   1.647  1.00  0.00     0.087 C
HETATM    8  C13 UNL     1      17.838  83.589   1.034  1.00  0.00     0.015 C
HETATM    9  C14 UNL     1      17.839  83.650  -0.449  1.00  0.00     0.003 C
HETATM   10  C15 UNL     1      17.729  82.295  -1.108  1.00  0.00     0.026 C
HETATM   11  C16 UNL     1      18.268  81.185  -0.229  1.00  0.00     0.171 C
HETATM   12  O6  UNL     1      19.531  81.449   0.241  1.00  0.00    -0.354 OA
HETATM   13  C17 UNL     1      19.576  81.926   1.518  1.00  0.00     0.174 C
HETATM   14  C18 UNL     1      20.882  81.629   2.226  1.00  0.00     0.080 C
HETATM   15  O7  UNL     1      18.548  81.365   2.357  1.00  0.00    -0.313 OA
ENDROOT
BRANCH   1  16
HETATM   16  C2  UNL     1      18.221  82.789   7.176  1.00  0.00     0.295 C
HETATM   17  O2  UNL     1      18.337  81.655   7.691  1.00  0.00    -0.259 OA
BRANCH  16  18
HETATM   18  O1  UNL     1      17.811  83.840   8.011  1.00  0.00    -0.322 OA
HETATM   19  C1  UNL     1      18.597  84.210   9.127  1.00  0.00     0.213 C
ENDBRANCH  16  18
ENDBRANCH   1  16
BRANCH   6  20
HETATM   20  O4  UNL     1      19.081  85.349   6.196  1.00  0.00    -0.275 OA
BRANCH  20  21
HETATM   21  C10 UNL     1      20.375  85.762   6.575  1.00  0.00     0.260 C
HETATM   22  C11 UNL     1      20.769  87.186   6.600  1.00  0.00     0.126 C
HETATM   23  O5  UNL     1      21.161  84.826   6.888  1.00  0.00    -0.265 OA
ENDBRANCH  20  21
ENDBRANCH   6  20
BRANCH   5  24
HETATM   24  O3  UNL     1      19.576  85.726   3.537  1.00  0.00    -0.352 OA
HETATM   25  C8  UNL     1      20.823  86.086   3.053  1.00  0.00     0.210 C
ENDBRANCH   5  24
TORSDOF 5
ENDMDL