MODEL 1
REMARK VINA RESULT: -5.997729917      0.000      0.000
REMARK  4 active torsions:
REMARK  status: ('A' for Active; 'I' for Inactive)
REMARK    1  A    between atoms: O1_2  and  C2_3
REMARK    2  A    between atoms: C2_3  and  O2_4
REMARK    3  A    between atoms: O2_4  and  C3_5
REMARK    4  A    between atoms: C3_5  and  O3_6
ROOT
HETATM    1  C3  UNL     1      21.697  82.185   0.211  1.00  0.00     0.344 C
HETATM    2  O4  UNL     1      21.765  81.909   1.563  1.00  0.00    -0.167 OA
HETATM    3  O5  UNL     1      20.714  81.654   2.211  1.00  0.00    -0.220 OA
HETATM    4  C5  UNL     1      19.742  82.572   2.286  1.00  0.00     0.135 C
HETATM    5  C6  UNL     1      18.446  82.083   1.745  1.00  0.00     0.031 C
HETATM    6  C7  UNL     1      18.222  82.165   0.301  1.00  0.00     0.011 C
HETATM    7  C8  UNL     1      19.420  81.925  -0.540  1.00  0.00     0.047 C
HETATM    8  C9  UNL     1      20.520  82.940  -0.246  1.00  0.00     0.145 C
HETATM    9  C10 UNL     1      20.855  83.606  -1.593  1.00  0.00     0.054 C
HETATM   10  O6  UNL     1      20.069  83.974   0.541  1.00  0.00    -0.358 OA
HETATM   11  C11 UNL     1      20.177  83.935   1.865  1.00  0.00     0.097 C
HETATM   12  C12 UNL     1      21.363  84.568   2.424  1.00  0.00     0.050 C
HETATM   13  C13 UNL     1      18.984  84.397   2.733  1.00  0.00     0.026 C
HETATM   14  C14 UNL     1      19.208  85.767   3.390  1.00  0.00     0.014 C
HETATM   15  C15 UNL     1      19.373  83.231   3.596  1.00  0.00     0.033 C
HETATM   16  C16 UNL     1      18.347  82.384   4.240  1.00  0.00     0.009 C
HETATM   17  C17 UNL     1      18.415  80.906   3.848  1.00  0.00     0.005 C
HETATM   18  C18 UNL     1      18.312  80.669   2.356  1.00  0.00    -0.012 C
HETATM   19  C19 UNL     1      16.886  80.196   2.096  1.00  0.00     0.010 C
ENDROOT
BRANCH   1  20
HETATM   20  O2  UNL     1      21.837  80.943  -0.359  1.00  0.00    -0.304 OA
BRANCH  20  21
HETATM   21  C2  UNL     1      22.964  80.591  -0.984  1.00  0.00     0.343 C
BRANCH  21  22
HETATM   22  O1  UNL     1      23.595  79.621  -0.158  1.00  0.00    -0.372 OA
HETATM   23  C1  UNL     1      24.811  79.238  -0.719  1.00  0.00     0.204 C
ENDBRANCH  21  22
ENDBRANCH  20  21
ENDBRANCH   1  20
BRANCH   1  24
HETATM   24  O3  UNL     1      22.874  82.909  -0.080  1.00  0.00    -0.334 OA
HETATM   25  C4  UNL     1      23.666  83.061   1.049  1.00  0.00     0.208 C
ENDBRANCH   1  24
TORSDOF 4
ENDMDL