MODEL 2
REMARK VINA RESULT: -4.996827337      8.595     11.085
REMARK  4 active torsions:
REMARK  status: ('A' for Active; 'I' for Inactive)
REMARK    1  A    between atoms: C2_2  and  C3_3
REMARK    2  A    between atoms: C3_3  and  C6_6
REMARK    3  A    between atoms: C11_13  and  O3_14
REMARK    4  A    between atoms: O3_14  and  C12_15
ROOT
HETATM    1  C6  UNL     1      16.907  81.987  -2.431  1.00  0.00     0.049 C
HETATM    2  C7  UNL     1      17.102  81.256  -1.132  1.00  0.00     0.015 C
HETATM    3  C8  UNL     1      18.318  81.522  -0.337  1.00  0.00     0.074 C
HETATM    4  C9  UNL     1      18.539  82.978  -0.009  1.00  0.00     0.226 C
HETATM    5  C10 UNL     1      18.736  83.228   1.471  1.00  0.00     0.085 C
HETATM    6  O1  UNL     1      19.625  83.469  -0.692  1.00  0.00    -0.195 OA
HETATM    7  O2  UNL     1      19.816  82.652  -1.725  1.00  0.00    -0.189 OA
HETATM    8  C11 UNL     1      19.128  83.183  -2.816  1.00  0.00     0.265 C
HETATM    9  C14 UNL     1      19.609  84.585  -2.935  1.00  0.00     0.044 C
HETATM   10  C15 UNL     1      19.056  85.379  -3.845  1.00  0.00    -0.018 C
HETATM   11  C16 UNL     1      17.970  84.779  -4.689  1.00  0.00     0.109 C
HETATM   12  C17 UNL     1      17.062  84.009  -3.758  1.00  0.00     0.174 C
HETATM   13  O5  UNL     1      15.889  84.082  -3.970  1.00  0.00    -0.294 OA
HETATM   14  C18 UNL     1      17.663  83.219  -2.646  1.00  0.00     0.223 C
HETATM   15  O6  UNL     1      17.467  84.080  -1.554  1.00  0.00    -0.212 OA
HETATM   16  O7  UNL     1      17.326  83.586  -0.407  1.00  0.00    -0.197 OA
ENDROOT
BRANCH   1  17
HETATM   17  C3  UNL     1      16.808  80.923  -3.449  1.00  0.00    -0.024 C
HETATM   18  C4  UNL     1      17.740  79.750  -3.299  1.00  0.00     0.019 C
HETATM   19  C5  UNL     1      16.737  81.261  -4.898  1.00  0.00     0.019 C
BRANCH  17  20
HETATM   20  C2  UNL     1      15.418  80.337  -3.209  1.00  0.00    -0.028 C
HETATM   21  C1  UNL     1      14.345  81.006  -3.586  1.00  0.00     0.007 C
ENDBRANCH  17  20
ENDBRANCH   1  17
BRANCH   8  22
HETATM   22  O3  UNL     1      19.592  82.509  -3.957  1.00  0.00    -0.273 OA
BRANCH  22  23
HETATM   23  C12 UNL     1      20.828  81.880  -3.916  1.00  0.00     0.257 C
HETATM   24  C13 UNL     1      22.090  82.533  -4.328  1.00  0.00     0.126 C
HETATM   25  O4  UNL     1      20.880  80.704  -3.513  1.00  0.00    -0.266 OA
ENDBRANCH  22  23
ENDBRANCH   8  22
TORSDOF 4
ENDMDL