MODEL 4
REMARK VINA RESULT: -8.217181839      2.725      4.676
REMARK  6 active torsions:
REMARK  status: ('A' for Active; 'I' for Inactive)
REMARK    1  A    between atoms: O1_2  and  C2_3
REMARK    2  A    between atoms: C4_5  and  C5_6
REMARK    3  A    between atoms: C10_13  and  O2_14
REMARK    4  A    between atoms: O2_14  and  C11_15
REMARK       I    between atoms: C11_15  and  N3_17
REMARK    5  A    between atoms: N3_17  and  C12_19
REMARK    6  A    between atoms: C17_24  and  O4_25
ROOT
HETATM    1  C5  UNL     1      18.604  81.808   3.839  1.00  0.00     0.045 C
HETATM    2  C6  UNL     1      18.104  81.765   2.639  1.00  0.00     0.125 C
HETATM    3  C7  UNL     1      17.858  82.887   1.775  1.00  0.00     0.110 C
HETATM    4  N1  UNL     1      17.671  83.782   1.058  1.00  0.00    -0.191 NA
HETATM    5  C8  UNL     1      17.755  80.454   2.105  1.00  0.00     0.110 C
HETATM    6  N2  UNL     1      17.498  79.426   1.689  1.00  0.00    -0.191 NA
ENDROOT
BRANCH   1   7
HETATM    7  C4  UNL     1      18.983  83.050   4.470  1.00  0.00    -0.029 A
HETATM    8  C3  UNL     1      18.429  83.440   5.687  1.00  0.00     0.051 A
HETATM    9  C2  UNL     1      18.785  84.634   6.255  1.00  0.00     0.104 A
HETATM   10  C17 UNL     1      19.700  85.492   5.651  1.00  0.00     0.133 A
HETATM   11  C10 UNL     1      20.224  85.079   4.458  1.00  0.00     0.117 A
HETATM   12  C9  UNL     1      19.889  83.873   3.846  1.00  0.00     0.052 A
BRANCH   9  13
HETATM   13  O1  UNL     1      18.222  84.994   7.459  1.00  0.00    -0.353 OA
HETATM   14  C1  UNL     1      18.017  84.214   8.584  1.00  0.00     0.210 C
ENDBRANCH   9  13
BRANCH  10  15
HETATM   15  O4  UNL     1      20.020  86.677   6.268  1.00  0.00    -0.356 OA
ATOM     16  H4  UNL     1      19.347  87.152   6.740  1.00  0.00     0.218 HD
ENDBRANCH  10  15
BRANCH  11  17
HETATM   17  O2  UNL     1      21.145  85.948   3.855  1.00  0.00    -0.259 OA
BRANCH  17  18
HETATM   18  C11 UNL     1      22.452  85.515   3.701  1.00  0.00     0.366 C
HETATM   19  O3  UNL     1      23.235  85.650   4.666  1.00  0.00    -0.238 OA
HETATM   20  N3  UNL     1      22.870  84.939   2.471  1.00  0.00    -0.332 N
ATOM     21  H3  UNL     1      22.196  84.849   1.710  1.00  0.00     0.165 HD
BRANCH  20  22
HETATM   22  C12 UNL     1      24.229  84.474   2.269  1.00  0.00     0.086 C
HETATM   23  C13 UNL     1      24.200  83.544   1.068  1.00  0.00     0.025 C
HETATM   24  C14 UNL     1      25.604  83.731   0.520  1.00  0.00     0.002 C
HETATM   25  C15 UNL     1      25.923  85.199   0.708  1.00  0.00     0.002 C
HETATM   26  C16 UNL     1      25.073  85.660   1.876  1.00  0.00     0.025 C
ENDBRANCH  20  22
ENDBRANCH  17  18
ENDBRANCH  11  17
ENDBRANCH   1   7
TORSDOF 6
ENDMDL