MODEL 1
REMARK VINA RESULT: -8.939644934      0.000      0.000
REMARK  6 active torsions:
REMARK  status: ('A' for Active; 'I' for Inactive)
REMARK       I    between atoms: C1_2  and  N1_3
REMARK    1  A    between atoms: C1_2  and  O2_9
REMARK    2  A    between atoms: N1_3  and  C2_4
REMARK    3  A    between atoms: O2_9  and  C7_10
REMARK    4  A    between atoms: C10_14  and  C11_15
REMARK    5  A    between atoms: C11_15  and  O4_16
REMARK    6  A    between atoms: C15_21  and  N2_22
ROOT
HETATM    1  C7  UNL     1      19.071  84.975   5.765  1.00  0.00     0.117 A
HETATM    2  C8  UNL     1      19.110  84.640   4.419  1.00  0.00     0.078 A
HETATM    3  C9  UNL     1      18.717  83.402   3.937  1.00  0.00     0.088 A
HETATM    4  O3  UNL     1      18.653  82.843   2.768  1.00  0.00    -0.312 OA
HETATM    5  C10 UNL     1      18.198  81.617   2.834  1.00  0.00     0.078 A
HETATM    6  C12 UNL     1      17.944  81.356   4.162  1.00  0.00     0.049 A
HETATM    7  C13 UNL     1      18.271  82.490   4.890  1.00  0.00     0.003 A
HETATM    8  C14 UNL     1      18.232  82.821   6.226  1.00  0.00     0.053 A
HETATM    9  C15 UNL     1      18.621  84.048   6.707  1.00  0.00     0.137 A
ENDROOT
BRANCH   1  10
HETATM   10  O2  UNL     1      19.460  86.208   6.253  1.00  0.00    -0.248 OA
BRANCH  10  11
HETATM   11  C1  UNL     1      20.851  86.477   6.578  1.00  0.00     0.440 C
HETATM   12  O1  UNL     1      20.958  86.701   7.819  1.00  0.00    -0.221 OA
HETATM   13  N1  UNL     1      21.780  86.456   5.595  1.00  0.00    -0.385 NA
BRANCH  13  14
HETATM   14  C2  UNL     1      22.719  86.436   4.601  1.00  0.00     0.169 C
HETATM   15  C3  UNL     1      22.328  85.391   3.531  1.00  0.00     0.039 C
HETATM   16  C4  UNL     1      23.627  85.052   2.850  1.00  0.00     0.003 C
HETATM   17  C5  UNL     1      24.718  85.245   3.847  1.00  0.00     0.003 C
HETATM   18  C6  UNL     1      24.055  85.798   5.057  1.00  0.00     0.039 C
ENDBRANCH  13  14
ENDBRANCH  10  11
ENDBRANCH   1  10
BRANCH   9  19
HETATM   19  N2  UNL     1      18.575  84.383   8.088  1.00  0.00    -0.113 N
HETATM   20  O5  UNL     1      19.465  84.013   8.901  1.00  0.00    -0.532 OA
HETATM   21  O6  UNL     1      17.523  85.138   8.542  1.00  0.00    -0.532 OA
ENDBRANCH   9  19
BRANCH   5  22
HETATM   22  C11 UNL     1      17.973  80.640   1.712  1.00  0.00     0.229 C
BRANCH  22  23
HETATM   23  O4  UNL     1      17.466  79.450   2.227  1.00  0.00    -0.394 OA
ATOM     24  H4  UNL     1      16.957  79.633   3.007  1.00  0.00     0.209 HD
ENDBRANCH  22  23
ENDBRANCH   5  22
TORSDOF 6
ENDMDL