MODEL 2
REMARK VINA RESULT: -7.504948966      3.362      5.605
REMARK  4 active torsions:
REMARK  status: ('A' for Active; 'I' for Inactive)
REMARK    1  A    between atoms: C3_4  and  N2_5
REMARK    2  A    between atoms: C4_8  and  N3_9
REMARK    3  A    between atoms: N3_9  and  C5_11
REMARK    4  A    between atoms: C12_18  and  N4_19
ROOT
HETATM    1  N1  UNL     1      24.784  86.247   4.854  1.00  0.00    -0.100 NA
HETATM    2  C1  UNL     1      23.392  85.896   4.818  1.00  0.00     0.075 A
HETATM    3  C2  UNL     1      22.593  86.176   5.893  1.00  0.00     0.067 A
HETATM    4  C3  UNL     1      21.222  85.853   5.954  1.00  0.00     0.131 A
HETATM    5  C4  UNL     1      20.633  85.225   4.884  1.00  0.00     0.064 A
HETATM    6  C11 UNL     1      21.447  84.944   3.802  1.00  0.00     0.063 A
HETATM    7  C12 UNL     1      22.816  85.269   3.747  1.00  0.00     0.057 A
ENDROOT
BRANCH   5   8
HETATM    8  N3  UNL     1      19.239  84.931   4.831  1.00  0.00    -0.383 N
ATOM      9  H3  UNL     1      18.649  85.685   4.480  1.00  0.00     0.160 HD
BRANCH   8  10
HETATM   10  C5  UNL     1      18.556  83.749   5.194  1.00  0.00     0.081 C
HETATM   11  C6  UNL     1      18.236  83.557   6.641  1.00  0.00     0.025 C
HETATM   12  C7  UNL     1      18.101  82.077   6.975  1.00  0.00     0.002 C
HETATM   13  C8  UNL     1      17.321  81.345   5.910  1.00  0.00     0.000 C
HETATM   14  C9  UNL     1      17.832  81.536   4.523  1.00  0.00     0.002 C
HETATM   15  C10 UNL     1      19.065  82.466   4.619  1.00  0.00     0.025 C
ENDBRANCH   8  10
ENDBRANCH   5   8
BRANCH   4  16
HETATM   16  N2  UNL     1      20.509  86.192   7.132  1.00  0.00    -0.113 N
HETATM   17  O1  UNL     1      20.845  85.717   8.218  1.00  0.00    -0.532 OA
HETATM   18  O2  UNL     1      19.453  87.121   7.063  1.00  0.00    -0.532 OA
ENDBRANCH   4  16
BRANCH   7  19
HETATM   19  N4  UNL     1      23.527  84.959   2.566  1.00  0.00    -0.375 N
HETATM   20  C13 UNL     1      22.999  83.881   1.732  1.00  0.00     0.149 C
HETATM   21  C14 UNL     1      24.069  83.118   1.024  1.00  0.00     0.187 C
HETATM   22  O3  UNL     1      25.318  83.616   0.992  1.00  0.00    -0.388 OA
HETATM   23  C15 UNL     1      25.734  84.454   1.986  1.00  0.00     0.187 C
HETATM   24  C16 UNL     1      24.700  85.585   2.047  1.00  0.00     0.149 C
ENDBRANCH   7  19
TORSDOF 4
ENDMDL