MODEL 1
REMARK VINA RESULT: -7.098932076      0.000      0.000
REMARK  4 active torsions:
REMARK  status: ('A' for Active; 'I' for Inactive)
REMARK    1  A    between atoms: C2_2  and  C3_3
REMARK    2  A    between atoms: C3_3  and  C4_4
REMARK    3  A    between atoms: C8_12  and  N2_13
REMARK    4  A    between atoms: N2_13  and  C9_15
ROOT
HETATM    1  C4  UNL     1      18.704  83.012   0.598  1.00  0.00     0.115 C
HETATM    2  S1  UNL     1      17.499  81.772   1.139  1.00  0.00    -0.147 SA
HETATM    3  C5  UNL     1      18.334  80.806   2.452  1.00  0.00     0.135 C
HETATM    4  C6  UNL     1      18.369  81.687   3.665  1.00  0.00     0.055 A
HETATM    5  N1  UNL     1      17.862  81.172   4.799  1.00  0.00    -0.321 N
ATOM      6  H1  UNL     1      17.482  80.226   4.802  1.00  0.00     0.169 HD
HETATM    7  C7  UNL     1      17.854  81.905   5.933  1.00  0.00     0.289 A
HETATM    8  O1  UNL     1      17.380  81.431   7.002  1.00  0.00    -0.264 OA
HETATM    9  C8  UNL     1      18.384  83.178   5.864  1.00  0.00     0.173 A
HETATM   10  N3  UNL     1      18.892  83.685   4.720  1.00  0.00    -0.331 N
ATOM     11  H3  UNL     1      19.273  84.631   4.715  1.00  0.00     0.168 HD
HETATM   12  C14 UNL     1      18.902  82.955   3.579  1.00  0.00     0.096 A
HETATM   13  S2  UNL     1      19.573  83.609   2.059  1.00  0.00    -0.095 SA
ENDROOT
BRANCH   9  14
HETATM   14  N2  UNL     1      18.375  83.953   7.068  1.00  0.00    -0.345 N
ATOM     15  H2  UNL     1      18.012  83.562   7.937  1.00  0.00     0.163 HD
BRANCH  14  16
HETATM   16  C9  UNL     1      18.895  85.308   7.027  1.00  0.00     0.222 C
HETATM   17  C10 UNL     1      18.337  86.121   8.167  1.00  0.00     0.054 C
HETATM   18  C11 UNL     1      18.544  87.585   7.819  1.00  0.00     0.006 C
HETATM   19  C12 UNL     1      19.859  87.681   7.076  1.00  0.00     0.026 C
HETATM   20  C13 UNL     1      20.797  86.533   7.466  1.00  0.00     0.170 C
HETATM   21  O2  UNL     1      20.288  85.320   7.013  1.00  0.00    -0.367 OA
ENDBRANCH  14  16
ENDBRANCH   9  14
BRANCH   1  22
HETATM   22  C3  UNL     1      19.675  82.384  -0.401  1.00  0.00     0.026 C
BRANCH  22  23
HETATM   23  C2  UNL     1      20.045  83.379  -1.480  1.00  0.00    -0.003 C
HETATM   24  C1  UNL     1      18.858  84.123  -2.004  1.00  0.00     0.005 C
ENDBRANCH  22  23
ENDBRANCH   1  22
TORSDOF 4
ENDMDL