MODEL 1
REMARK VINA RESULT: -7.403989486      0.000      0.000
REMARK  5 active torsions:
REMARK  status: ('A' for Active; 'I' for Inactive)
REMARK    1  A    between atoms: O1_2  and  C2_3
REMARK    2  A    between atoms: C2_3  and  C3_5
REMARK    3  A    between atoms: C4_6  and  N1_7
REMARK       I    between atoms: N1_7  and  C5_9
REMARK    4  A    between atoms: C9_16  and  N3_17
REMARK    5  A    between atoms: N3_17  and  C10_19
ROOT
HETATM    1  C3  UNL     1      18.645  82.872   3.798  1.00  0.00     0.101 A
HETATM    2  C4  UNL     1      18.509  81.511   3.741  1.00  0.00     0.096 A
HETATM    3  S1  UNL     1      18.170  81.088   5.386  1.00  0.00    -0.058 SA
HETATM    4  C7  UNL     1      18.217  82.633   6.073  1.00  0.00     0.114 A
HETATM    5  C8  UNL     1      18.010  83.030   7.470  1.00  0.00     0.109 C
HETATM    6  N2  UNL     1      17.844  83.319   8.571  1.00  0.00    -0.191 NA
HETATM    7  C9  UNL     1      18.495  83.456   5.018  1.00  0.00     0.075 A
ENDROOT
BRANCH   7   8
HETATM    8  N3  UNL     1      18.684  84.893   5.270  1.00  0.00    -0.383 N
ATOM      9  H3  UNL     1      18.091  85.559   4.775  1.00  0.00     0.160 HD
BRANCH   8  10
HETATM   10  C10 UNL     1      19.663  85.389   6.175  1.00  0.00     0.082 C
HETATM   11  C11 UNL     1      20.892  85.971   5.528  1.00  0.00     0.025 C
HETATM   12  C12 UNL     1      21.973  86.022   6.605  1.00  0.00     0.002 C
HETATM   13  C13 UNL     1      21.401  86.790   7.768  1.00  0.00     0.000 C
HETATM   14  C14 UNL     1      20.126  87.524   7.393  1.00  0.00     0.002 C
HETATM   15  C15 UNL     1      19.043  86.561   6.956  1.00  0.00     0.025 C
ENDBRANCH   8  10
ENDBRANCH   7   8
BRANCH   2  16
HETATM   16  N1  UNL     1      18.610  80.596   2.636  1.00  0.00    -0.321 N
HETATM   17  C5  UNL     1      17.386  80.012   2.189  1.00  0.00     0.218 C
HETATM   18  C6  UNL     1      17.339  79.050   1.059  1.00  0.00     0.117 C
HETATM   19  O3  UNL     1      16.268  80.277   2.727  1.00  0.00    -0.274 OA
ATOM     20  H1  UNL     1      19.504  80.377   2.197  1.00  0.00     0.169 HD
ENDBRANCH   2  16
BRANCH   1  21
HETATM   21  C2  UNL     1      18.907  83.674   2.556  1.00  0.00     0.298 C
HETATM   22  O2  UNL     1      19.465  84.797   2.594  1.00  0.00    -0.259 OA
BRANCH  21  23
HETATM   23  O1  UNL     1      18.550  83.227   1.309  1.00  0.00    -0.322 OA
HETATM   24  C1  UNL     1      17.293  83.523   0.731  1.00  0.00     0.213 C
ENDBRANCH  21  23
ENDBRANCH   1  21
TORSDOF 5
ENDMDL