MODEL 2
REMARK VINA RESULT: -7.544784145      1.690      2.174
REMARK  5 active torsions:
REMARK  status: ('A' for Active; 'I' for Inactive)
REMARK    1  A    between atoms: C1_2  and  C2_3
REMARK       I    between atoms: C1_2  and  N2_11
REMARK    2  A    between atoms: C2_3  and  O2_4
REMARK    3  A    between atoms: O2_4  and  C3_5
REMARK    4  A    between atoms: N2_11  and  C6_13
REMARK    5  A    between atoms: C9_17  and  O3_18
ROOT
HETATM    1  C6  UNL     1      19.105  83.074   4.011  1.00  0.00     0.111 A
HETATM    2  S2  UNL     1      18.547  83.786   5.519  1.00  0.00    -0.073 SA
HETATM    3  C7  UNL     1      19.507  85.175   5.539  1.00  0.00    -0.006 A
HETATM    4  C8  UNL     1      20.233  85.079   4.405  1.00  0.00    -0.009 A
HETATM    5  C9  UNL     1      20.029  83.991   3.609  1.00  0.00     0.106 A
HETATM    6  C10 UNL     1      21.236  86.156   4.031  1.00  0.00     0.042 C
HETATM    7  C11 UNL     1      22.382  85.952   4.978  1.00  0.00     0.005 C
HETATM    8  C12 UNL     1      22.088  86.023   6.412  1.00  0.00     0.001 C
HETATM    9  C13 UNL     1      20.903  86.714   6.919  1.00  0.00     0.005 C
HETATM   10  C14 UNL     1      19.546  86.247   6.568  1.00  0.00     0.047 C
ENDROOT
BRANCH   1  11
HETATM   11  N2  UNL     1      18.622  81.853   3.480  1.00  0.00    -0.317 N
HETATM   12  C1  UNL     1      18.203  81.573   2.182  1.00  0.00     0.246 C
HETATM   13  O1  UNL     1      18.160  82.338   1.200  1.00  0.00    -0.271 OA
ATOM     14  H2  UNL     1      18.575  81.074   4.136  1.00  0.00     0.169 HD
BRANCH  12  15
HETATM   15  C2  UNL     1      17.735  80.155   1.917  1.00  0.00     0.278 C
BRANCH  15  16
HETATM   16  O2  UNL     1      16.733  80.201   0.944  1.00  0.00    -0.340 OA
BRANCH  16  17
HETATM   17  C3  UNL     1      16.792  79.428  -0.243  1.00  0.00     0.093 A
HETATM   18  C4  UNL     1      16.795  78.089  -0.253  1.00  0.00     0.133 A
HETATM   19  N1  UNL     1      16.854  77.475  -1.437  1.00  0.00    -0.335 N
HETATM   20  S1  UNL     1      16.904  78.733  -2.546  1.00  0.00    -0.024 SA
ATOM     21  H1  UNL     1      16.866  76.472  -1.624  1.00  0.00     0.173 HD
HETATM   22  C5  UNL     1      16.849  80.050  -1.468  1.00  0.00     0.106 A
ENDBRANCH  16  17
ENDBRANCH  15  16
ENDBRANCH  12  15
ENDBRANCH   1  11
BRANCH   5  23
HETATM   23  O3  UNL     1      20.745  83.795   2.391  1.00  0.00    -0.357 OA
ATOM     24  H3  UNL     1      20.278  83.557   1.600  1.00  0.00     0.217 HD
ENDBRANCH   5  23
TORSDOF 5
ENDMDL