MODEL 3
REMARK VINA RESULT: -8.050507236      0.382      1.122
REMARK  5 active torsions:
REMARK  status: ('A' for Active; 'I' for Inactive)
REMARK    1  A    between atoms: C2_3  and  C3_4
REMARK    2  A    between atoms: C3_4  and  N1_5
REMARK    3  A    between atoms: N1_5  and  C4_7
REMARK    4  A    between atoms: C10_13  and  O2_14
REMARK    5  A    between atoms: C12_19  and  C13_20
ROOT
HETATM    1  O1  UNL     1      20.178  85.642   3.528  1.00  0.00    -0.285 OA
HETATM    2  C1  UNL     1      21.125  85.693   4.349  1.00  0.00     0.218 A
HETATM    3  C2  UNL     1      20.893  85.881   5.704  1.00  0.00     0.090 A
HETATM    4  C10 UNL     1      21.893  85.961   6.620  1.00  0.00     0.200 A
HETATM    5  O3  UNL     1      23.155  85.837   6.165  1.00  0.00    -0.277 OA
HETATM    6  C11 UNL     1      23.400  85.655   4.897  1.00  0.00     0.151 A
HETATM    7  S1  UNL     1      24.844  85.463   3.961  1.00  0.00    -0.049 SA
HETATM    8  C12 UNL     1      24.136  85.323   2.438  1.00  0.00     0.058 A
HETATM    9  N2  UNL     1      22.848  85.408   2.694  1.00  0.00    -0.348 N
ATOM     10  H2  UNL     1      22.167  85.345   1.937  1.00  0.00     0.166 HD
HETATM   11  C16 UNL     1      22.453  85.572   3.908  1.00  0.00     0.126 A
ENDROOT
BRANCH   3  12
HETATM   12  C3  UNL     1      19.456  86.113   6.128  1.00  0.00     0.104 C
BRANCH  12  13
HETATM   13  N1  UNL     1      18.864  85.097   6.841  1.00  0.00    -0.393 N
ATOM     14  H1  UNL     1      18.984  85.204   7.848  1.00  0.00     0.159 HD
BRANCH  13  15
HETATM   15  C4  UNL     1      18.161  83.992   6.522  1.00  0.00     0.081 C
HETATM   16  C5  UNL     1      18.699  83.276   5.281  1.00  0.00     0.025 C
HETATM   17  C6  UNL     1      18.094  81.944   5.102  1.00  0.00     0.002 C
HETATM   18  C7  UNL     1      18.168  81.078   6.335  1.00  0.00     0.000 C
HETATM   19  C8  UNL     1      17.548  81.832   7.488  1.00  0.00     0.002 C
HETATM   20  C9  UNL     1      18.417  83.008   7.757  1.00  0.00     0.025 C
ENDBRANCH  13  15
ENDBRANCH  12  13
ENDBRANCH   3  12
BRANCH   4  21
HETATM   21  O2  UNL     1      21.707  86.176   7.964  1.00  0.00    -0.340 OA
ATOM     22  H2  UNL     1      21.637  87.031   8.371  1.00  0.00     0.220 HD
ENDBRANCH   4  21
BRANCH   8  23
HETATM   23  C13 UNL     1      24.769  85.272   1.038  1.00  0.00     0.043 A
HETATM   24  C14 UNL     1      26.151  84.758   0.982  1.00  0.00     0.012 A
HETATM   25  C15 UNL     1      25.093  83.715   0.794  1.00  0.00     0.012 A
ENDBRANCH   8  23
TORSDOF 5
ENDMDL