MODEL 5
REMARK VINA RESULT: -7.590662553      4.694      8.519
REMARK  6 active torsions:
REMARK  status: ('A' for Active; 'I' for Inactive)
REMARK       I    between atoms: C1_2  and  N1_3
REMARK    1  A    between atoms: C1_2  and  C11_22
REMARK    2  A    between atoms: N2_5  and  C2_7
REMARK    3  A    between atoms: C3_8  and  O2_9
REMARK    4  A    between atoms: N3_12  and  C5_13
REMARK    5  A    between atoms: C5_13  and  C6_14
REMARK    6  A    between atoms: C10_19  and  O4_20
ROOT
HETATM    1  C2  UNL     1      19.088  82.038   2.734  1.00  0.00     0.134 A
HETATM    2  C3  UNL     1      18.191  81.054   2.384  1.00  0.00     0.113 A
HETATM    3  C4  UNL     1      18.287  80.826   1.036  1.00  0.00     0.132 A
HETATM    4  N3  UNL     1      19.241  81.662   0.536  1.00  0.00    -0.331 N
HETATM    5  C10 UNL     1      19.723  82.391   1.556  1.00  0.00     0.174 A
ENDROOT
BRANCH   1   6
HETATM    6  N2  UNL     1      19.346  82.605   4.019  1.00  0.00    -0.292 N
HETATM    7  N1  UNL     1      18.537  83.445   4.466  1.00  0.00    -0.269 N
HETATM    8  C1  UNL     1      18.668  84.084   5.719  1.00  0.00     0.240 C
ATOM      9  H1  UNL     1      17.730  83.683   3.890  1.00  0.00     0.190 HD
HETATM   10  O1  UNL     1      18.515  83.405   6.766  1.00  0.00    -0.271 OA
ATOM     11  H2  UNL     1      20.170  82.333   4.556  1.00  0.00     0.187 HD
BRANCH   8  12
HETATM   12  C11 UNL     1      18.983  85.535   5.744  1.00  0.00     0.079 C
HETATM   13  C12 UNL     1      18.708  86.126   7.101  1.00  0.00     0.014 C
HETATM   14  C13 UNL     1      19.538  87.378   7.275  1.00  0.00     0.001 C
HETATM   15  C14 UNL     1      20.983  86.930   7.413  1.00  0.00     0.000 C
HETATM   16  C15 UNL     1      21.383  85.938   6.363  1.00  0.00     0.001 C
HETATM   17  C16 UNL     1      20.377  85.818   5.249  1.00  0.00     0.014 C
ENDBRANCH   8  12
ENDBRANCH   1   6
BRANCH   2  18
HETATM   18  O2  UNL     1      17.351  80.438   3.328  1.00  0.00    -0.357 OA
ATOM     19  H2  UNL     1      17.640  80.250   4.213  1.00  0.00     0.218 HD
ENDBRANCH   2  18
BRANCH   5  20
HETATM   20  O4  UNL     1      20.711  83.357   1.450  1.00  0.00    -0.344 OA
ATOM     21  H4  UNL     1      21.637  83.205   1.598  1.00  0.00     0.219 HD
ENDBRANCH   5  20
BRANCH   4  22
HETATM   22  C5  UNL     1      19.579  81.659  -0.869  1.00  0.00     0.162 C
BRANCH  22  23
HETATM   23  C6  UNL     1      19.001  82.836  -1.599  1.00  0.00     0.139 C
HETATM   24  C7  UNL     1      18.833  82.578  -3.067  1.00  0.00     0.035 C
HETATM   25  C8  UNL     1      18.672  84.028  -3.558  1.00  0.00     0.029 C
HETATM   26  C9  UNL     1      19.595  84.746  -2.602  1.00  0.00     0.168 C
HETATM   27  O3  UNL     1      19.719  83.992  -1.455  1.00  0.00    -0.384 OA
ENDBRANCH  22  23
ENDBRANCH   4  22
TORSDOF 6
ENDMDL