MODEL 1
REMARK VINA RESULT: -7.768719209      0.000      0.000
REMARK  8 active torsions:
REMARK  status: ('A' for Active; 'I' for Inactive)
REMARK    1  A    between atoms: N1_1  and  N2_4
REMARK    2  A    between atoms: N2_4  and  N3_5
REMARK    3  A    between atoms: N3_5  and  C1_7
REMARK    4  A    between atoms: C4_10  and  N4_11
REMARK    5  A    between atoms: C5_14  and  S1_15
REMARK    6  A    between atoms: S1_15  and  N5_16
REMARK    7  A    between atoms: S1_15  and  N6_20
REMARK    8  A    between atoms: N6_20  and  C6_22
ROOT
HETATM    1  C1  UNL     1      18.232  81.946   4.715  1.00  0.00     0.064 A
HETATM    2  C2  UNL     1      17.707  81.345   5.839  1.00  0.00     0.034 A
HETATM    3  C3  UNL     1      17.707  81.979   7.047  1.00  0.00     0.040 A
HETATM    4  C4  UNL     1      18.257  83.278   7.147  1.00  0.00     0.124 A
HETATM    5  C5  UNL     1      18.783  83.902   6.060  1.00  0.00     0.093 A
HETATM    6  C12 UNL     1      18.749  83.188   4.848  1.00  0.00     0.058 A
ENDROOT
BRANCH   5   7
HETATM    7  S1  UNL     1      19.505  85.483   6.096  1.00  0.00     0.136 S
HETATM    8  O3  UNL     1      18.409  86.476   6.430  1.00  0.00    -0.223 OA
BRANCH   7   9
HETATM    9  N5  UNL     1      20.468  85.516   7.318  1.00  0.00    -0.341 N
ATOM     10  H52 UNL     1      21.370  85.043   7.379  1.00  0.00     0.167 HD
ATOM     11  H51 UNL     1      20.025  86.094   8.032  1.00  0.00     0.167 HD
ENDBRANCH   7   9
BRANCH   7  12
HETATM   12  N6  UNL     1      20.257  85.825   4.624  1.00  0.00    -0.327 N
ATOM     13  H6  UNL     1      19.736  86.245   3.854  1.00  0.00     0.171 HD
BRANCH  12  14
HETATM   14  C6  UNL     1      21.632  85.515   4.488  1.00  0.00     0.091 C
HETATM   15  C7  UNL     1      22.566  86.646   4.894  1.00  0.00     0.026 C
HETATM   16  C8  UNL     1      23.903  85.963   5.187  1.00  0.00     0.002 C
HETATM   17  C9  UNL     1      24.439  85.260   3.986  1.00  0.00     0.000 C
HETATM   18  C10 UNL     1      23.493  85.162   2.839  1.00  0.00     0.002 C
HETATM   19  C11 UNL     1      22.068  84.914   3.211  1.00  0.00     0.026 C
ENDBRANCH  12  14
ENDBRANCH   7  12
ENDBRANCH   5   7
BRANCH   4  20
HETATM   20  N4  UNL     1      18.179  83.879   8.409  1.00  0.00    -0.114 N
HETATM   21  O1  UNL     1      17.215  84.457   8.854  1.00  0.00    -0.532 OA
HETATM   22  O2  UNL     1      19.308  83.837   9.234  1.00  0.00    -0.532 OA
ENDBRANCH   4  20
BRANCH   1  23
HETATM   23  N3  UNL     1      18.199  81.225   3.480  1.00  0.00    -0.217 N
ATOM     24  H3  UNL     1      17.467  80.545   3.274  1.00  0.00     0.203 HD
BRANCH  23  25
HETATM   25  N2  UNL     1      19.094  81.467   2.684  1.00  0.00    -0.243 NA
BRANCH  25  26
HETATM   26  N1  UNL     1      19.911  81.567   1.780  1.00  0.00    -0.260 N
ATOM     27  H12 UNL     1      20.604  81.188   2.426  1.00  0.00     0.193 HD
ATOM     28  H11 UNL     1      20.469  81.710   0.939  1.00  0.00     0.193 HD
ENDBRANCH  25  26
ENDBRANCH  23  25
ENDBRANCH   1  23
TORSDOF 8
ENDMDL