MODEL 3
REMARK VINA RESULT: -6.870117903      1.626      2.337
REMARK  9 active torsions:
REMARK  status: ('A' for Active; 'I' for Inactive)
REMARK    1  A    between atoms: C2_2  and  O1_3
REMARK    2  A    between atoms: C2_2  and  C15_19
REMARK    3  A    between atoms: O1_3  and  C3_4
REMARK    4  A    between atoms: C3_4  and  C4_6
REMARK    5  A    between atoms: C5_7  and  C6_8
REMARK    6  A    between atoms: C6_8  and  O4_10
REMARK    7  A    between atoms: O4_10  and  C7_11
REMARK    8  A    between atoms: C15_19  and  O5_20
REMARK    9  A    between atoms: N1_22  and  O6_24
ROOT
HETATM    1  C4  UNL     1      19.060  84.636   5.824  1.00  0.00     0.029 C
HETATM    2  C5  UNL     1      18.557  83.439   5.896  1.00  0.00     0.029 C
HETATM    3  C11 UNL     1      17.692  83.144   7.134  1.00  0.00     0.045 C
HETATM    4  C12 UNL     1      18.579  83.530   8.302  1.00  0.00     0.005 C
HETATM    5  C13 UNL     1      18.825  85.013   8.282  1.00  0.00     0.005 C
HETATM    6  C14 UNL     1      18.773  85.615   6.919  1.00  0.00     0.045 C
ENDROOT
BRANCH   1   7
HETATM    7  C3  UNL     1      19.884  85.066   4.736  1.00  0.00     0.290 C
HETATM    8  O2  UNL     1      19.606  85.580   3.640  1.00  0.00    -0.260 OA
BRANCH   7   9
HETATM    9  O1  UNL     1      21.305  84.908   4.858  1.00  0.00    -0.304 OA
BRANCH   9  10
HETATM   10  C2  UNL     1      22.154  85.995   5.151  1.00  0.00     0.204 C
HETATM   11  C1  UNL     1      22.151  86.097   6.686  1.00  0.00     0.049 C
BRANCH  10  12
HETATM   12  C15 UNL     1      23.506  85.843   4.627  1.00  0.00     0.165 C
HETATM   13  N1  UNL     1      23.687  85.528   3.399  1.00  0.00    -0.249 N
ATOM     14  H1  UNL     1      24.642  85.427   3.054  1.00  0.00     0.196 HD
BRANCH  12  15
HETATM   15  O5  UNL     1      24.610  86.031   5.427  1.00  0.00    -0.346 OA
ATOM     16  H5  UNL     1      25.489  86.032   5.065  1.00  0.00     0.219 HD
ENDBRANCH  12  15
BRANCH  13  17
HETATM   17  O6  UNL     1      22.641  85.322   2.525  1.00  0.00    -0.288 OA
ATOM     18  H6  UNL     1      22.159  84.504   2.491  1.00  0.00     0.244 HD
ENDBRANCH  13  17
ENDBRANCH  10  12
ENDBRANCH   9  10
ENDBRANCH   7   9
ENDBRANCH   1   7
BRANCH   2  19
HETATM   19  C6  UNL     1      18.695  82.358   4.981  1.00  0.00     0.290 C
HETATM   20  O3  UNL     1      19.374  81.346   5.135  1.00  0.00    -0.260 OA
BRANCH  19  21
HETATM   21  O4  UNL     1      18.013  82.383   3.756  1.00  0.00    -0.307 OA
BRANCH  21  22
HETATM   22  C7  UNL     1      18.702  82.186   2.530  1.00  0.00     0.060 C
HETATM   23  C8  UNL     1      18.306  83.199   1.481  1.00  0.00     0.046 C
HETATM   24  C9  UNL     1      20.189  82.189   2.663  1.00  0.00     0.046 C
HETATM   25  C10 UNL     1      18.234  80.840   2.030  1.00  0.00     0.046 C
ENDBRANCH  21  22
ENDBRANCH  19  21
ENDBRANCH   2  19
TORSDOF 9
ENDMDL