MODEL 2
REMARK VINA RESULT: -7.521950510      0.017      1.247
REMARK  4 active torsions:
REMARK  status: ('A' for Active; 'I' for Inactive)
REMARK    1  A    between atoms: N1_4  and  C4_5
REMARK    2  A    between atoms: C4_5  and  C5_6
REMARK    3  A    between atoms: C5_6  and  C6_7
REMARK    4  A    between atoms: C6_7  and  N2_8
ROOT
HETATM    1  C6  UNL     1    -103.341  39.753  25.322  1.00  0.00     0.153 C
ENDROOT
BRANCH   1   2
HETATM    2  C5  UNL     1    -101.990  39.345  25.831  1.00  0.00     0.042 C
BRANCH   2   3
HETATM    3  C4  UNL     1    -102.044  38.459  27.040  1.00  0.00     0.129 C
BRANCH   3   4
HETATM    4  N1  UNL     1    -100.672  38.052  27.334  1.00  0.00    -0.366 N
HETATM    5  C3  UNL     1     -99.614  38.702  26.810  1.00  0.00     0.090 A
HETATM    6  C2  UNL     1     -98.312  38.340  27.069  1.00  0.00     0.017 A
HETATM    7  C1  UNL     1     -98.062  37.274  27.895  1.00  0.00     0.003 A
HETATM    8  C9  UNL     1     -99.129  36.598  28.439  1.00  0.00     0.017 A
HETATM    9  C8  UNL     1    -100.412  37.005  28.144  1.00  0.00     0.090 A
ENDBRANCH   3   4
ENDBRANCH   2   3
ENDBRANCH   1   2
BRANCH   1  10
HETATM   10  N2  UNL     1    -103.200  40.013  23.892  1.00  0.00    -0.271 N
HETATM   11  C7  UNL     1    -102.172  39.670  23.093  1.00  0.00     0.219 A
HETATM   12  N3  UNL     1    -102.428  40.097  21.823  1.00  0.00    -0.279 N
HETATM   13  N4  UNL     1    -103.607  40.693  21.865  1.00  0.00    -0.227 N
ATOM     14  H3  UNL     1    -101.830  39.980  21.006  1.00  0.00     0.189 HD
HETATM   15  N5  UNL     1    -104.057  40.638  23.094  1.00  0.00    -0.225 N
ATOM     16  H4  UNL     1    -104.086  41.124  21.074  1.00  0.00     0.210 HD
ATOM     17  H5  UNL     1    -104.950  41.026  23.399  1.00  0.00     0.210 HD
ENDBRANCH   1  10
TORSDOF 4
ENDMDL