MODEL 3
REMARK VINA RESULT: -6.691643602      2.039      2.650
REMARK  4 active torsions:
REMARK  status: ('A' for Active; 'I' for Inactive)
REMARK    1  A    between atoms: N1_4  and  C4_5
REMARK    2  A    between atoms: C4_5  and  C5_6
REMARK    3  A    between atoms: C5_6  and  C6_7
REMARK    4  A    between atoms: C6_7  and  C7_8
ROOT
HETATM    1  C5  UNL     1    -101.345  39.703  25.679  1.00  0.00     0.022 C
ENDROOT
BRANCH   1   2
HETATM    2  C4  UNL     1     -99.981  39.119  25.411  1.00  0.00     0.128 C
BRANCH   2   3
HETATM    3  N1  UNL     1     -99.390  38.443  26.514  1.00  0.00    -0.366 N
HETATM    4  C3  UNL     1     -98.944  39.126  27.583  1.00  0.00     0.090 A
HETATM    5  C2  UNL     1     -98.363  38.493  28.672  1.00  0.00     0.017 A
HETATM    6  C1  UNL     1     -98.236  37.134  28.665  1.00  0.00     0.003 A
HETATM    7  C11 UNL     1     -98.694  36.415  27.566  1.00  0.00     0.017 A
HETATM    8  C10 UNL     1     -99.262  37.119  26.518  1.00  0.00     0.090 A
ENDBRANCH   2   3
ENDBRANCH   1   2
BRANCH   1   9
HETATM    9  C6  UNL     1    -102.232  39.707  24.453  1.00  0.00     0.037 C
BRANCH   9  10
HETATM   10  C7  UNL     1    -103.481  38.944  24.817  1.00  0.00     0.212 C
HETATM   11  C8  UNL     1    -103.444  38.440  26.242  1.00  0.00     0.203 C
HETATM   12  O1  UNL     1    -104.812  38.117  26.408  1.00  0.00    -0.362 OA
HETATM   13  C9  UNL     1    -105.440  39.249  25.940  1.00  0.00     0.399 C
HETATM   14  N2  UNL     1    -104.658  39.783  24.859  1.00  0.00    -0.048 N
ATOM     15  H22 UNL     1    -104.457  40.779  24.944  1.00  0.00     0.280 HD
ATOM     16  H21 UNL     1    -105.158  39.843  23.973  1.00  0.00     0.280 HD
ENDBRANCH   9  10
ENDBRANCH   1   9
TORSDOF 4
ENDMDL