MODEL 3
REMARK VINA RESULT: -5.822657267      2.076      5.588
REMARK  4 active torsions:
REMARK  status: ('A' for Active; 'I' for Inactive)
REMARK    1  A    between atoms: N2_5  and  C4_6
REMARK    2  A    between atoms: C4_6  and  C5_7
REMARK    3  A    between atoms: C5_7  and  C6_8
REMARK    4  A    between atoms: C6_8  and  N3_9
ROOT
HETATM    1  C5  UNL     1     -99.046  39.170  27.727  1.00  0.00     0.011 C
ENDROOT
BRANCH   1   2
HETATM    2  C4  UNL     1     -99.218  39.093  26.277  1.00  0.00     0.157 C
BRANCH   2   3
HETATM    3  N2  UNL     1    -100.585  39.168  25.849  1.00  0.00    -0.348 N
HETATM    4  C3  UNL     1    -100.960  39.309  24.567  1.00  0.00     0.109 A
HETATM    5  C2  UNL     1    -102.319  39.346  24.507  1.00  0.00     0.108 A
HETATM    6  N1  UNL     1    -102.758  39.228  25.759  1.00  0.00    -0.356 N
HETATM    7  C1  UNL     1    -104.177  39.226  26.102  1.00  0.00     0.156 C
HETATM    8  C9  UNL     1    -101.713  39.120  26.573  1.00  0.00     0.184 A
ENDBRANCH   2   3
ENDBRANCH   1   2
BRANCH   1   9
HETATM    9  C6  UNL     1     -98.858  38.058  28.413  1.00  0.00     0.096 C
BRANCH   9  10
HETATM   10  N3  UNL     1     -99.352  36.792  27.930  1.00  0.00    -0.312 N
HETATM   11  C7  UNL     1     -98.824  36.037  26.957  1.00  0.00     0.205 A
HETATM   12  N4  UNL     1     -99.578  34.958  26.821  1.00  0.00    -0.295 N
HETATM   13  N5  UNL     1    -100.580  35.000  27.685  1.00  0.00    -0.295 N
ATOM     14  H4  UNL     1     -99.412  34.207  26.152  1.00  0.00     0.187 HD
HETATM   15  C8  UNL     1    -100.438  36.137  28.371  1.00  0.00     0.205 A
ATOM     16  H5  UNL     1    -101.314  34.302  27.804  1.00  0.00     0.187 HD
ENDBRANCH   9  10
ENDBRANCH   1   9
TORSDOF 4
ENDMDL