MODEL 3
REMARK VINA RESULT: -7.514331093      0.786      1.207
REMARK  4 active torsions:
REMARK  status: ('A' for Active; 'I' for Inactive)
REMARK    1  A    between atoms: N1_4  and  C4_5
REMARK    2  A    between atoms: C4_5  and  C5_6
REMARK    3  A    between atoms: C5_6  and  C6_7
REMARK    4  A    between atoms: C6_7  and  N2_8
ROOT
HETATM    1  C5  UNL     1    -102.123  39.225  25.928  1.00  0.00     0.042 C
ENDROOT
BRANCH   1   2
HETATM    2  C4  UNL     1    -102.132  38.340  27.141  1.00  0.00     0.129 C
BRANCH   2   3
HETATM    3  N1  UNL     1    -100.737  37.976  27.408  1.00  0.00    -0.366 N
HETATM    4  C3  UNL     1    -100.409  37.001  28.253  1.00  0.00     0.090 A
HETATM    5  C2  UNL     1     -99.101  36.636  28.525  1.00  0.00     0.017 A
HETATM    6  C1  UNL     1     -98.075  37.292  27.907  1.00  0.00     0.003 A
HETATM    7  C9  UNL     1     -98.409  38.312  27.022  1.00  0.00     0.017 A
HETATM    8  C8  UNL     1     -99.735  38.636  26.788  1.00  0.00     0.090 A
ENDBRANCH   2   3
ENDBRANCH   1   2
BRANCH   1   9
HETATM    9  C6  UNL     1    -103.491  39.452  25.349  1.00  0.00     0.149 C
BRANCH   9  10
HETATM   10  N2  UNL     1    -103.291  39.805  23.937  1.00  0.00    -0.269 N
HETATM   11  C7  UNL     1    -102.175  39.633  23.206  1.00  0.00     0.216 A
HETATM   12  N3  UNL     1    -102.422  40.089  21.975  1.00  0.00    -0.282 N
HETATM   13  N4  UNL     1    -103.646  40.536  21.914  1.00  0.00    -0.225 N
ATOM     14  H3  UNL     1    -101.757  40.088  21.202  1.00  0.00     0.189 HD
HETATM   15  N5  UNL     1    -104.169  40.359  23.116  1.00  0.00    -0.004 NA
ATOM     16  H4  UNL     1    -104.108  40.941  21.100  1.00  0.00     0.205 HD
ENDBRANCH   9  10
ENDBRANCH   1   9
TORSDOF 4
ENDMDL