MODEL 1
REMARK VINA RESULT: -7.008564433      0.000      0.000
REMARK  4 active torsions:
REMARK  status: ('A' for Active; 'I' for Inactive)
REMARK    1  A    between atoms: N1_4  and  C4_5
REMARK    2  A    between atoms: C4_5  and  C5_6
REMARK    3  A    between atoms: C5_6  and  C6_7
REMARK    4  A    between atoms: C6_7  and  N2_8
ROOT
HETATM    1  C5  UNL     1    -102.049  39.499  26.125  1.00  0.00     0.042 C
ENDROOT
BRANCH   1   2
HETATM    2  C4  UNL     1    -102.107  38.386  27.121  1.00  0.00     0.129 C
BRANCH   2   3
HETATM    3  N1  UNL     1    -100.719  37.993  27.396  1.00  0.00    -0.366 N
HETATM    4  C3  UNL     1     -99.695  38.680  26.852  1.00  0.00     0.090 A
HETATM    5  C2  UNL     1     -98.362  38.372  27.059  1.00  0.00     0.017 A
HETATM    6  C1  UNL     1     -98.082  37.290  27.875  1.00  0.00     0.003 A
HETATM    7  C10 UNL     1     -99.110  36.577  28.438  1.00  0.00     0.017 A
HETATM    8  C9  UNL     1    -100.408  36.943  28.187  1.00  0.00     0.090 A
ENDBRANCH   2   3
ENDBRANCH   1   2
BRANCH   1   9
HETATM    9  C6  UNL     1    -103.449  39.803  25.594  1.00  0.00     0.145 C
BRANCH   9  10
HETATM   10  N2  UNL     1    -103.331  39.832  24.151  1.00  0.00    -0.312 N
HETATM   11  C7  UNL     1    -102.222  39.243  23.392  1.00  0.00     0.165 C
HETATM   12  C8  UNL     1    -102.249  40.122  22.166  1.00  0.00     0.162 C
HETATM   13  N3  UNL     1    -103.618  40.570  22.092  1.00  0.00    -0.321 N
HETATM   14  N4  UNL     1    -104.169  40.395  23.190  1.00  0.00    -0.249 N
ATOM     15  H3  UNL     1    -104.064  40.969  21.266  1.00  0.00     0.181 HD
ATOM     16  H4  UNL     1    -105.143  40.638  23.371  1.00  0.00     0.207 HD
ENDBRANCH   9  10
ENDBRANCH   1   9
TORSDOF 4
ENDMDL