MODEL 1
REMARK VINA RESULT: -4.941242154      0.000      0.000
REMARK  4 active torsions:
REMARK  status: ('A' for Active; 'I' for Inactive)
REMARK    1  A    between atoms: C2_2  and  N1_3
REMARK    2  A    between atoms: C6_8  and  O1_9
REMARK    3  A    between atoms: C6_8  and  C7_11
REMARK    4  A    between atoms: C7_11  and  C8_12
ROOT
HETATM    1  N1  UNL     1    -100.350  37.803  27.617  1.00  0.00    -0.017 N
HETATM    2  C3  UNL     1     -99.360  38.817  27.999  1.00  0.00     0.275 C
HETATM    3  C4  UNL     1     -98.473  39.015  26.769  1.00  0.00     0.303 C
HETATM    4  N2  UNL     1     -99.347  38.420  25.737  1.00  0.00     0.119 N
HETATM    5  C5  UNL     1    -100.353  39.385  25.453  1.00  0.00     0.314 C
HETATM    6  C6  UNL     1    -101.680  39.182  26.096  1.00  0.00     0.115 C
HETATM    7  C9  UNL     1    -101.603  38.450  27.388  1.00  0.00     0.285 C
HETATM    8  C10 UNL     1     -99.764  37.244  26.432  1.00  0.00     0.513 C
ENDROOT
BRANCH   6   9
HETATM    9  O1  UNL     1    -102.268  40.441  26.376  1.00  0.00    -0.386 OA
ATOM     10  H1  UNL     1    -103.211  40.381  26.272  1.00  0.00     0.210 HD
ENDBRANCH   6   9
BRANCH   6  11
HETATM   11  C7  UNL     1    -102.629  38.541  25.106  1.00  0.00     0.110 C
BRANCH  11  12
HETATM   12  C8  UNL     1    -104.024  38.969  25.298  1.00  0.00     0.234 C
HETATM   13  O2  UNL     1    -104.703  38.421  26.140  1.00  0.00    -0.307 OA
ENDBRANCH  11  12
ENDBRANCH   6  11
BRANCH   1  14
HETATM   14  C2  UNL     1    -100.437  36.805  28.608  1.00  0.00     0.194 C
HETATM   15  C1  UNL     1    -100.106  35.550  28.304  1.00  0.00     0.038 C
ENDBRANCH   1  14
TORSDOF 4
ENDMDL