MODEL 5
REMARK VINA RESULT: -6.018191798      2.468      3.632
REMARK  6 active torsions:
REMARK  status: ('A' for Active; 'I' for Inactive)
REMARK    1  A    between atoms: C2_2  and  C3_3
REMARK    2  A    between atoms: C3_3  and  C4_4
REMARK    3  A    between atoms: C4_4  and  C5_5
REMARK    4  A    between atoms: C5_5  and  N1_6
REMARK    5  A    between atoms: N2_12  and  N3_14
REMARK    6  A    between atoms: N3_14  and  N4_16
ROOT
HETATM    1  N1  UNL     1    -102.302  38.738  26.278  1.00  0.00    -0.366 N
HETATM    2  C6  UNL     1    -101.339  39.269  25.343  1.00  0.00     0.150 C
HETATM    3  C7  UNL     1    -102.004  40.507  24.741  1.00  0.00     0.188 C
HETATM    4  O1  UNL     1    -103.199  40.281  24.140  1.00  0.00    -0.382 OA
HETATM    5  C8  UNL     1    -103.882  39.140  24.453  1.00  0.00     0.245 C
HETATM    6  C9  UNL     1    -103.663  38.793  25.877  1.00  0.00     0.119 C
HETATM    7  N2  UNL     1    -104.631  38.557  26.693  1.00  0.00    -0.273 N
ATOM      8  H2  UNL     1    -104.406  38.323  27.660  1.00  0.00     0.190 HD
ENDROOT
BRANCH   1   9
HETATM    9  C5  UNL     1    -101.896  38.182  27.544  1.00  0.00     0.124 C
BRANCH   9  10
HETATM   10  C4  UNL     1    -100.478  37.688  27.338  1.00  0.00     0.023 C
BRANCH  10  11
HETATM   11  C3  UNL     1    -100.092  36.606  28.291  1.00  0.00     0.028 C
BRANCH  11  12
HETATM   12  C2  UNL     1     -98.604  36.692  28.473  1.00  0.00    -0.037 C
HETATM   13  C1  UNL     1     -97.912  37.443  27.665  1.00  0.00     0.007 C
ENDBRANCH  11  12
ENDBRANCH  10  11
ENDBRANCH   9  10
ENDBRANCH   1   9
BRANCH   7  14
HETATM   14  N3  UNL     1    -105.972  38.606  26.317  1.00  0.00    -0.248 N
ATOM     15  H3  UNL     1    -106.240  38.407  25.353  1.00  0.00     0.207 HD
BRANCH  14  16
HETATM   16  N4  UNL     1    -106.869  38.902  27.188  1.00  0.00    -0.331 N
ATOM     17  H42 UNL     1    -107.102  39.882  27.348  1.00  0.00     0.178 HD
ATOM     18  H41 UNL     1    -107.335  38.158  27.708  1.00  0.00     0.178 HD
ENDBRANCH  14  16
ENDBRANCH   7  14
TORSDOF 6
ENDMDL