MODEL 2
REMARK VINA RESULT: -6.674795738      0.756      1.250
REMARK  4 active torsions:
REMARK  status: ('A' for Active; 'I' for Inactive)
REMARK    1  A    between atoms: N2_6  and  C4_7
REMARK    2  A    between atoms: C4_7  and  C5_8
REMARK    3  A    between atoms: C5_8  and  C6_9
REMARK    4  A    between atoms: C6_9  and  N3_10
ROOT
HETATM    1  C5  UNL     1    -102.063  39.344  25.978  1.00  0.00     0.040 C
ENDROOT
BRANCH   1   2
HETATM    2  C4  UNL     1    -102.013  38.376  27.135  1.00  0.00     0.130 C
BRANCH   2   3
HETATM    3  N2  UNL     1    -100.648  37.961  27.393  1.00  0.00    -0.353 N
HETATM    4  C3  UNL     1     -99.606  38.579  26.789  1.00  0.00     0.182 A
HETATM    5  N1  UNL     1     -98.329  38.227  27.000  1.00  0.00    -0.362 N
HETATM    6  C2  UNL     1     -98.011  37.207  27.851  1.00  0.00     0.090 A
ATOM      7  H1  UNL     1     -97.583  38.728  26.518  1.00  0.00     0.165 HD
HETATM    8  C1  UNL     1     -99.081  36.583  28.461  1.00  0.00     0.034 A
HETATM    9  C9  UNL     1    -100.385  36.956  28.235  1.00  0.00     0.093 A
ENDBRANCH   2   3
ENDBRANCH   1   2
BRANCH   1  10
HETATM   10  C6  UNL     1    -103.397  39.402  25.317  1.00  0.00     0.132 C
BRANCH  10  11
HETATM   11  N3  UNL     1    -103.199  39.756  23.925  1.00  0.00    -0.337 N
HETATM   12  C7  UNL     1    -102.092  39.607  23.176  1.00  0.00     0.200 A
HETATM   13  N4  UNL     1    -102.334  40.062  21.944  1.00  0.00    -0.295 N
HETATM   14  N5  UNL     1    -103.579  40.501  21.890  1.00  0.00    -0.295 N
ATOM     15  H4  UNL     1    -101.667  40.069  21.172  1.00  0.00     0.187 HD
HETATM   16  C8  UNL     1    -104.106  40.315  23.094  1.00  0.00     0.200 A
ATOM     17  H5  UNL     1    -104.045  40.905  21.078  1.00  0.00     0.187 HD
ENDBRANCH  10  11
ENDBRANCH   1  10
TORSDOF 4
ENDMDL