MODEL 1
REMARK VINA RESULT: -6.360561985      0.000      0.000
REMARK  4 active torsions:
REMARK  status: ('A' for Active; 'I' for Inactive)
REMARK    1  A    between atoms: N1_3  and  C3_4
REMARK    2  A    between atoms: C3_4  and  C4_5
REMARK    3  A    between atoms: C4_5  and  C5_6
REMARK    4  A    between atoms: C5_6  and  N2_7
ROOT
HETATM    1  C4  UNL     1    -102.328  39.624  26.258  1.00  0.00     0.042 C
ENDROOT
BRANCH   1   2
HETATM    2  C3  UNL     1    -100.882  39.351  26.224  1.00  0.00     0.129 C
BRANCH   2   3
HETATM    3  N1  UNL     1    -100.409  38.224  26.974  1.00  0.00    -0.364 N
HETATM    4  C2  UNL     1     -99.147  37.764  26.705  1.00  0.00     0.107 A
HETATM    5  C1  UNL     1     -98.592  36.700  27.380  1.00  0.00     0.104 A
HETATM    6  N5  UNL     1     -99.288  36.074  28.340  1.00  0.00    -0.373 N
HETATM    7  C9  UNL     1    -100.514  36.495  28.625  1.00  0.00     0.104 A
ATOM      8  H5  UNL     1     -98.881  35.286  28.845  1.00  0.00     0.164 HD
HETATM    9  C8  UNL     1    -101.055  37.575  27.928  1.00  0.00     0.107 A
ENDBRANCH   2   3
ENDBRANCH   1   2
BRANCH   1  10
HETATM   10  C5  UNL     1    -103.232  39.034  25.260  1.00  0.00     0.151 C
BRANCH  10  11
HETATM   11  N2  UNL     1    -103.069  39.558  23.930  1.00  0.00    -0.287 N
HETATM   12  C6  UNL     1    -104.018  40.283  23.258  1.00  0.00     0.201 A
HETATM   13  N3  UNL     1    -103.559  40.636  22.058  1.00  0.00    -0.346 N
HETATM   14  C7  UNL     1    -102.303  40.123  21.981  1.00  0.00     0.198 A
ATOM     15  H3  UNL     1    -104.048  41.178  21.346  1.00  0.00     0.167 HD
HETATM   16  N4  UNL     1    -102.061  39.490  23.124  1.00  0.00    -0.293 N
ATOM     17  H4  UNL     1    -101.187  39.009  23.340  1.00  0.00     0.188 HD
ENDBRANCH  10  11
ENDBRANCH   1  10
TORSDOF 4
ENDMDL