MODEL 2
REMARK VINA RESULT: -6.520428000      1.832      2.308
REMARK  8 active torsions:
REMARK  status: ('A' for Active; 'I' for Inactive)
REMARK    1  A    between atoms: C1_2  and  C2_4
REMARK    2  A    between atoms: C2_4  and  C3_5
REMARK    3  A    between atoms: C3_5  and  C4_6
REMARK    4  A    between atoms: C4_6  and  C5_7
REMARK    5  A    between atoms: C5_7  and  C6_8
REMARK    6  A    between atoms: C6_8  and  C7_9
REMARK    7  A    between atoms: C8_10  and  N1_11
REMARK    8  A    between atoms: N1_11  and  C9_13
ROOT
HETATM    1  C6  UNL     1      54.518  -4.645 -56.464  1.00  0.00     0.096 C
ENDROOT
BRANCH   1   2
HETATM    2  C5  UNL     1      55.268  -4.620 -57.735  1.00  0.00     0.012 C
BRANCH   2   3
HETATM    3  C4  UNL     1      56.011  -3.420 -58.141  1.00  0.00     0.001 C
BRANCH   3   4
HETATM    4  C3  UNL     1      57.470  -3.432 -58.294  1.00  0.00     0.010 C
BRANCH   4   5
HETATM    5  C2  UNL     1      58.247  -4.615 -57.861  1.00  0.00     0.113 C
BRANCH   5   6
HETATM    6  C1  UNL     1      58.800  -4.332 -56.474  1.00  0.00     0.172 C
HETATM    7  O1  UNL     1      58.644  -3.210 -55.933  1.00  0.00    -0.648 OA
HETATM    8  O2  UNL     1      59.473  -5.339 -55.844  1.00  0.00    -0.648 OA
ENDBRANCH   5   6
ENDBRANCH   4   5
ENDBRANCH   3   4
ENDBRANCH   2   3
ENDBRANCH   1   2
BRANCH   1   9
HETATM    9  C7  UNL     1      55.226  -3.950 -55.371  1.00  0.00    -0.084 C
HETATM   10  C8  UNL     1      55.797  -3.398 -54.464  1.00  0.00     0.006 C
BRANCH  10  11
HETATM   11  N1  UNL     1      56.461  -2.766 -53.374  1.00  0.00    -0.346 N
ATOM     12  H1  UNL     1      57.228  -2.112 -53.534  1.00  0.00     0.170 HD
BRANCH  11  13
HETATM   13  C9  UNL     1      56.018  -3.079 -52.039  1.00  0.00     0.090 A
HETATM   14  C10 UNL     1      55.393  -1.994 -51.193  1.00  0.00     0.028 A
HETATM   15  C11 UNL     1      54.562  -3.116 -51.700  1.00  0.00     0.028 A
ENDBRANCH  11  13
ENDBRANCH  10  11
ENDBRANCH   1   9
TORSDOF 8
ENDMDL