MODEL 2
REMARK VINA RESULT: -5.848654464      1.705      5.802
REMARK  7 active torsions:
REMARK  status: ('A' for Active; 'I' for Inactive)
REMARK    1  A    between atoms: C1_2  and  C2_4
REMARK    2  A    between atoms: C2_4  and  N1_5
REMARK    3  A    between atoms: N1_5  and  C3_6
REMARK    4  A    between atoms: C3_6  and  C4_7
REMARK    5  A    between atoms: C4_7  and  C5_8
REMARK    6  A    between atoms: N2_9  and  C6_11
REMARK    7  A    between atoms: C6_11  and  O3_12
ROOT
HETATM    1  N1  UNL     1      54.676  -3.442 -52.996  1.00  0.00    -0.057 N
HETATM    2  C7  UNL     1      54.342  -2.449 -52.021  1.00  0.00     0.239 C
HETATM    3  C8  UNL     1      55.802  -2.039 -51.925  1.00  0.00     0.056 C
HETATM    4  C9  UNL     1      56.021  -3.473 -52.392  1.00  0.00     0.239 C
ENDROOT
BRANCH   1   5
HETATM    5  C2  UNL     1      54.062  -4.729 -52.832  1.00  0.00     0.349 C
BRANCH   5   6
HETATM    6  C1  UNL     1      52.719  -4.647 -52.206  1.00  0.00     0.199 C
HETATM    7  O1  UNL     1      51.701  -4.373 -52.891  1.00  0.00    -0.647 OA
HETATM    8  O2  UNL     1      52.510  -4.865 -50.854  1.00  0.00    -0.647 OA
ENDBRANCH   5   6
ENDBRANCH   1   5
BRANCH   1   9
HETATM    9  C3  UNL     1      54.800  -2.980 -54.342  1.00  0.00     0.243 C
BRANCH   9  10
HETATM   10  C4  UNL     1      54.705  -4.077 -55.374  1.00  0.00     0.072 C
BRANCH  10  11
HETATM   11  C5  UNL     1      56.005  -4.123 -56.130  1.00  0.00     0.059 C
HETATM   12  N2  UNL     1      56.634  -5.216 -56.247  1.00  0.00    -0.382 N
ATOM     13  H2  UNL     1      56.247  -6.058 -55.822  1.00  0.00     0.160 HD
BRANCH  12  14
HETATM   14  C6  UNL     1      57.871  -5.303 -56.957  1.00  0.00     0.286 C
BRANCH  14  15
HETATM   15  O3  UNL     1      58.777  -6.056 -56.213  1.00  0.00    -0.382 OA
ATOM     16  H3  UNL     1      59.525  -6.274 -56.757  1.00  0.00     0.211 HD
ENDBRANCH  14  15
ENDBRANCH  12  14
ENDBRANCH  10  11
ENDBRANCH   9  10
ENDBRANCH   1   9
TORSDOF 7
ENDMDL