MODEL 4
REMARK VINA RESULT: -6.451829466      1.989      2.844
REMARK  6 active torsions:
REMARK  status: ('A' for Active; 'I' for Inactive)
REMARK    1  A    between atoms: C2_2  and  C3_3
REMARK    2  A    between atoms: C3_3  and  N1_4
REMARK    3  A    between atoms: N1_4  and  C4_5
REMARK       I    between atoms: N1_4  and  C10_12
REMARK    4  A    between atoms: C4_5  and  C5_6
REMARK    5  A    between atoms: C10_12  and  C11_14
REMARK    6  A    between atoms: C11_14  and  N2_15
ROOT
HETATM    1  N1  UNL     1      54.281  -4.040 -54.341  1.00  0.00    -0.347 N
HETATM    2  C10 UNL     1      53.345  -4.718 -53.545  1.00  0.00     0.245 C
HETATM    3  O2  UNL     1      52.854  -5.802 -54.000  1.00  0.00    -0.272 OA
ENDROOT
BRANCH   1   4
HETATM    4  C3  UNL     1      54.920  -2.846 -53.796  1.00  0.00     0.152 C
BRANCH   4   5
HETATM    5  C2  UNL     1      55.995  -3.132 -52.833  1.00  0.00    -0.017 C
HETATM    6  C1  UNL     1      56.002  -2.753 -51.564  1.00  0.00     0.008 C
ENDBRANCH   4   5
ENDBRANCH   1   4
BRANCH   1   7
HETATM    7  C4  UNL     1      54.583  -4.445 -55.673  1.00  0.00     0.133 C
BRANCH   7   8
HETATM    8  C5  UNL     1      55.935  -4.936 -55.974  1.00  0.00     0.040 A
HETATM    9  C6  UNL     1      57.183  -4.264 -56.235  1.00  0.00     0.025 A
HETATM   10  C7  UNL     1      57.474  -2.961 -56.861  1.00  0.00     0.034 C
HETATM   11  C9  UNL     1      56.403  -4.967 -57.392  1.00  0.00     0.132 A
HETATM   12  C8  UNL     1      57.025  -3.118 -58.294  1.00  0.00     0.168 C
HETATM   13  O1  UNL     1      55.906  -3.925 -58.166  1.00  0.00    -0.385 OA
ENDBRANCH   7   8
ENDBRANCH   1   7
BRANCH   2  14
HETATM   14  C11 UNL     1      52.887  -4.245 -52.195  1.00  0.00     0.332 C
BRANCH  14  15
HETATM   15  N2  UNL     1      51.683  -4.997 -51.856  1.00  0.00    -0.071 N
ATOM     16  H23 UNL     1      50.938  -4.886 -52.543  1.00  0.00     0.274 HD
ATOM     17  H22 UNL     1      51.803  -6.005 -51.951  1.00  0.00     0.274 HD
ATOM     18  H21 UNL     1      51.404  -4.715 -50.916  1.00  0.00     0.274 HD
ENDBRANCH  14  15
ENDBRANCH   2  14
TORSDOF 6
ENDMDL