MODEL 5
REMARK VINA RESULT: -6.414693580      1.187      2.379
REMARK  5 active torsions:
REMARK  status: ('A' for Active; 'I' for Inactive)
REMARK    1  A    between atoms: C1_2  and  S1_3
REMARK    2  A    between atoms: S1_3  and  C2_5
REMARK    3  A    between atoms: C2_5  and  O3_6
REMARK    4  A    between atoms: O3_6  and  C3_7
REMARK    5  A    between atoms: C3_7  and  C4_9
ROOT
HETATM    1  C3  UNL     1      56.036  -3.403 -55.209  1.00  0.00     0.263 C
HETATM    2  O4  UNL     1      56.711  -3.073 -54.199  1.00  0.00    -0.265 OA
ENDROOT
BRANCH   1   3
HETATM    3  O3  UNL     1      54.695  -3.589 -55.045  1.00  0.00    -0.308 OA
BRANCH   3   4
HETATM    4  C2  UNL     1      54.105  -4.698 -54.388  1.00  0.00     0.295 C
BRANCH   4   5
HETATM    5  S1  UNL     1      53.170  -4.017 -53.030  1.00  0.00     0.102 S
HETATM    6  O2  UNL     1      51.779  -4.859 -52.739  1.00  0.00    -0.248 OA
BRANCH   5   7
HETATM    7  C1  UNL     1      54.145  -3.738 -51.632  1.00  0.00     0.338 C
HETATM    8  O1  UNL     1      54.741  -2.699 -51.489  1.00  0.00    -0.292 OA
ENDBRANCH   5   7
ENDBRANCH   4   5
ENDBRANCH   3   4
ENDBRANCH   1   3
BRANCH   1   9
HETATM    9  C4  UNL     1      56.649  -3.587 -56.534  1.00  0.00     0.085 C
HETATM   10  C5  UNL     1      58.010  -4.253 -56.459  1.00  0.00     0.014 C
HETATM   11  C6  UNL     1      58.263  -4.435 -57.960  1.00  0.00     0.001 C
HETATM   12  C7  UNL     1      56.903  -4.795 -58.522  1.00  0.00     0.001 C
HETATM   13  C8  UNL     1      55.906  -4.577 -57.402  1.00  0.00     0.014 C
ENDBRANCH   1   9
TORSDOF 5
ENDMDL