MODEL 4
REMARK VINA RESULT: -6.602075639      2.230      3.109
REMARK  7 active torsions:
REMARK  status: ('A' for Active; 'I' for Inactive)
REMARK    1  A    between atoms: C2_2  and  C3_3
REMARK       I    between atoms: C3_3  and  N1_5
REMARK    2  A    between atoms: N1_5  and  C4_7
REMARK    3  A    between atoms: C4_7  and  C5_8
REMARK    4  A    between atoms: C5_8  and  C6_9
REMARK    5  A    between atoms: C7_10  and  C8_11
REMARK    6  A    between atoms: C8_11  and  C9_12
REMARK    7  A    between atoms: C9_12  and  C10_14
ROOT
HETATM    1  C10 UNL     1      58.454  -3.567 -56.528  1.00  0.00     0.202 C
HETATM    2  C11 UNL     1      57.828  -3.104 -55.295  1.00  0.00     0.066 C
HETATM    3  N2  UNL     1      57.324  -2.739 -54.323  1.00  0.00    -0.197 NA
ENDROOT
BRANCH   1   4
HETATM    4  C9  UNL     1      57.860  -4.836 -57.017  1.00  0.00     0.150 C
HETATM    5  O2  UNL     1      58.433  -5.890 -56.850  1.00  0.00    -0.296 OA
BRANCH   4   6
HETATM    6  C8  UNL     1      56.569  -4.806 -57.706  1.00  0.00     0.173 C
BRANCH   6   7
HETATM    7  C7  UNL     1      55.504  -4.739 -56.708  1.00  0.00    -0.099 C
HETATM    8  C6  UNL     1      54.634  -4.676 -55.879  1.00  0.00    -0.105 C
BRANCH   8   9
HETATM    9  C5  UNL     1      53.582  -4.585 -54.858  1.00  0.00     0.113 C
BRANCH   9  10
HETATM   10  C4  UNL     1      54.108  -5.200 -53.602  1.00  0.00     0.135 C
BRANCH  10  11
HETATM   11  N1  UNL     1      55.026  -4.285 -52.959  1.00  0.00    -0.357 N
HETATM   12  C3  UNL     1      54.642  -3.493 -51.831  1.00  0.00     0.240 C
HETATM   13  O1  UNL     1      53.460  -3.630 -51.421  1.00  0.00    -0.269 OA
ATOM     14  H1  UNL     1      55.976  -4.203 -53.321  1.00  0.00     0.162 HD
BRANCH  12  15
HETATM   15  C2  UNL     1      55.560  -2.575 -51.184  1.00  0.00     0.064 C
HETATM   16  C1  UNL     1      55.354  -1.276 -51.112  1.00  0.00     0.017 C
ENDBRANCH  12  15
ENDBRANCH  10  11
ENDBRANCH   9  10
ENDBRANCH   8   9
ENDBRANCH   6   7
ENDBRANCH   4   6
ENDBRANCH   1   4
TORSDOF 7
ENDMDL