MODEL 4
REMARK VINA RESULT: -6.842119087      2.232      2.852
REMARK  7 active torsions:
REMARK  status: ('A' for Active; 'I' for Inactive)
REMARK    1  A    between atoms: N1_1  and  C1_4
REMARK    2  A    between atoms: C2_7  and  N3_8
REMARK    3  A    between atoms: C7_16  and  N5_17
REMARK    4  A    between atoms: N5_17  and  C8_19
REMARK    5  A    between atoms: C8_19  and  C9_20
REMARK    6  A    between atoms: C9_20  and  C10_21
REMARK    7  A    between atoms: C10_21  and  N6_22
ROOT
HETATM    1  C1  UNL     1     -14.358  11.919  20.328  1.00  0.00     0.705 A
HETATM    2  N2  UNL     1     -14.306  12.030  18.978  1.00  0.00    -0.022 N
ATOM      3  H2  UNL     1     -13.890  11.296  18.405  1.00  0.00     0.203 HD
HETATM    4  C2  UNL     1     -14.823  13.148  18.416  1.00  0.00     0.709 A
HETATM    5  N4  UNL     1     -15.369  14.109  19.192  1.00  0.00    -0.021 N
ATOM      6  H4  UNL     1     -15.753  14.942  18.747  1.00  0.00     0.203 HD
HETATM    7  C7  UNL     1     -15.424  14.005  20.531  1.00  0.00     0.707 A
HETATM    8  N8  UNL     1     -14.909  12.893  21.086  1.00  0.00    -0.022 N
ATOM      9  H8  UNL     1     -14.934  12.783  22.100  1.00  0.00     0.203 HD
ENDROOT
BRANCH   7  10
HETATM   10  N5  UNL     1     -15.950  14.929  21.253  1.00  0.00    -0.225 N
ATOM     11  H5  UNL     1     -15.419  15.789  21.383  1.00  0.00     0.177 HD
BRANCH  10  12
HETATM   12  C8  UNL     1     -17.233  14.832  21.888  1.00  0.00     0.139 C
BRANCH  12  13
HETATM   13  C9  UNL     1     -17.080  15.244  23.328  1.00  0.00     0.042 C
BRANCH  13  14
HETATM   14  C10 UNL     1     -16.292  14.255  24.108  1.00  0.00     0.154 C
BRANCH  14  15
HETATM   15  N6  UNL     1     -15.226  14.915  24.832  1.00  0.00    -0.256 N
HETATM   16  N7  UNL     1     -15.306  15.483  26.021  1.00  0.00    -0.295 N
HETATM   17  C11 UNL     1     -14.110  15.997  26.344  1.00  0.00     0.064 A
ATOM     18  H7  UNL     1     -16.144  15.524  26.601  1.00  0.00     0.187 HD
HETATM   19  C12 UNL     1     -13.652  16.675  27.434  1.00  0.00     0.032 A
HETATM   20  C16 UNL     1     -13.211  15.756  25.324  1.00  0.00     0.061 A
HETATM   21  C13 UNL     1     -12.338  17.110  27.526  1.00  0.00     0.002 A
HETATM   22  C14 UNL     1     -11.453  16.858  26.493  1.00  0.00     0.001 A
HETATM   23  C15 UNL     1     -11.900  16.176  25.389  1.00  0.00     0.019 A
HETATM   24  C17 UNL     1     -13.942  15.069  24.377  1.00  0.00     0.274 A
HETATM   25  O2  UNL     1     -13.561  14.635  23.281  1.00  0.00    -0.266 OA
ENDBRANCH  14  15
ENDBRANCH  13  14
ENDBRANCH  12  13
ENDBRANCH  10  12
ENDBRANCH   7  10
BRANCH   4  26
HETATM   26  N3  UNL     1     -14.798  13.318  17.010  1.00  0.00    -0.213 N
HETATM   27  C3  UNL     1     -13.922  14.329  16.458  1.00  0.00     0.167 C
HETATM   28  C4  UNL     1     -13.046  13.588  15.439  1.00  0.00     0.188 C
HETATM   29  O1  UNL     1     -13.818  12.916  14.502  1.00  0.00    -0.388 OA
HETATM   30  C5  UNL     1     -14.649  11.966  15.051  1.00  0.00     0.188 C
HETATM   31  C6  UNL     1     -15.598  12.543  16.089  1.00  0.00     0.167 C
ENDBRANCH   4  26
BRANCH   1  32
HETATM   32  N1  UNL     1     -13.879  10.872  20.930  1.00  0.00    -0.234 N
ATOM     33  H12 UNL     1     -14.535  10.166  21.263  1.00  0.00     0.174 HD
ATOM     34  H11 UNL     1     -12.874  10.762  21.067  1.00  0.00     0.174 HD
ENDBRANCH   1  32
TORSDOF 7
ENDMDL