MODEL 2
REMARK VINA RESULT: -6.989504816      1.554      1.902
REMARK  5 active torsions:
REMARK  status: ('A' for Active; 'I' for Inactive)
REMARK       I    between atoms: C1_2  and  N1_3
REMARK    1  A    between atoms: C1_2  and  C7_17
REMARK    2  A    between atoms: N1_3  and  N2_5
REMARK       I    between atoms: N2_5  and  C2_7
REMARK       I    between atoms: C2_7  and  N3_9
REMARK    3  A    between atoms: N6_24  and  C12_26
REMARK    4  A    between atoms: C12_26  and  C13_27
REMARK    5  A    between atoms: C13_27  and  N7_28
ROOT
HETATM    1  C7  UNL     1     -12.154  16.043  24.939  1.00  0.00     0.077 A
HETATM    2  C8  UNL     1     -11.996  16.457  26.269  1.00  0.00     0.022 A
HETATM    3  C9  UNL     1     -13.058  16.467  27.140  1.00  0.00     0.018 A
HETATM    4  C10 UNL     1     -14.273  16.053  26.637  1.00  0.00     0.089 A
HETATM    5  N5  UNL     1     -14.420  15.655  25.370  1.00  0.00    -0.352 N
ATOM      6  H5  UNL     1     -15.347  15.361  25.063  1.00  0.00     0.166 HD
HETATM    7  C11 UNL     1     -13.406  15.619  24.466  1.00  0.00     0.116 A
HETATM    8  N6  UNL     1     -13.471  15.029  23.237  1.00  0.00    -0.374 N
ATOM      9  H6  UNL     1     -12.569  14.846  22.797  1.00  0.00     0.161 HD
ENDROOT
BRANCH   1  10
HETATM   10  C1  UNL     1     -11.098  16.310  24.012  1.00  0.00     0.273 C
HETATM   11  O1  UNL     1     -11.297  16.761  22.874  1.00  0.00    -0.266 OA
HETATM   12  N1  UNL     1      -9.712  16.072  24.346  1.00  0.00    -0.262 N
ATOM     13  H1  UNL     1      -9.482  15.665  25.253  1.00  0.00     0.190 HD
BRANCH  12  14
HETATM   14  N2  UNL     1      -8.694  16.380  23.474  1.00  0.00    -0.249 N
HETATM   15  C2  UNL     1      -8.084  17.663  23.519  1.00  0.00     0.337 C
HETATM   16  O2  UNL     1      -8.524  18.473  24.379  1.00  0.00    -0.245 OA
HETATM   17  N3  UNL     1      -7.029  18.064  22.664  1.00  0.00    -0.330 N
HETATM   18  C3  UNL     1      -6.484  19.403  22.830  1.00  0.00     0.155 C
HETATM   19  C6  UNL     1      -6.456  17.238  21.645  1.00  0.00     0.155 C
HETATM   20  C4  UNL     1      -4.985  19.400  22.787  1.00  0.00     0.252 C
HETATM   21  N4  UNL     1      -4.439  18.510  21.821  1.00  0.00    -0.072 N
HETATM   22  C5  UNL     1      -4.946  17.173  21.902  1.00  0.00     0.252 C
ATOM     23  H42 UNL     1      -4.566  18.883  20.880  1.00  0.00     0.277 HD
ATOM     24  H41 UNL     1      -3.420  18.509  21.872  1.00  0.00     0.277 HD
ATOM     25  H2  UNL     1      -8.377  15.688  22.796  1.00  0.00     0.192 HD
ENDBRANCH  12  14
ENDBRANCH   1  10
BRANCH   8  26
HETATM   26  C12 UNL     1     -14.647  14.618  22.451  1.00  0.00     0.151 C
BRANCH  26  27
HETATM   27  C13 UNL     1     -14.618  13.126  22.280  1.00  0.00     0.292 C
BRANCH  27  28
HETATM   28  N7  UNL     1     -15.380  12.796  21.084  1.00  0.00     0.094 N
HETATM   29  C14 UNL     1     -15.832  14.025  20.428  1.00  0.00     0.298 C
HETATM   30  C15 UNL     1     -16.634  13.585  19.221  1.00  0.00     0.198 C
HETATM   31  O3  UNL     1     -15.820  12.954  18.300  1.00  0.00    -0.388 OA
HETATM   32  C16 UNL     1     -14.573  12.647  18.777  1.00  0.00     0.198 C
HETATM   33  C17 UNL     1     -14.571  12.026  20.149  1.00  0.00     0.298 C
ENDBRANCH  27  28
ENDBRANCH  26  27
ENDBRANCH   8  26
TORSDOF 5
ENDMDL