MODEL 2
REMARK VINA RESULT: -6.195880117      3.653      6.348
REMARK  6 active torsions:
REMARK  status: ('A' for Active; 'I' for Inactive)
REMARK    1  A    between atoms: N2_5  and  C4_6
REMARK    2  A    between atoms: C4_6  and  C5_7
REMARK    3  A    between atoms: C5_7  and  N3_8
REMARK    4  A    between atoms: N5_13  and  C7_14
REMARK    5  A    between atoms: C7_14  and  C8_15
REMARK    6  A    between atoms: C16_26  and  N7_27
ROOT
HETATM    1  N3  UNL     1      -8.731  19.598  21.194  1.00  0.00    -0.164 N
HETATM    2  C6  UNL     1      -9.734  19.620  22.125  1.00  0.00     0.683 A
HETATM    3  N4  UNL     1     -10.706  20.430  22.031  1.00  0.00    -0.234 N
ATOM      4  H41 UNL     1     -11.453  20.447  22.726  1.00  0.00     0.174 HD
ATOM      5  H42 UNL     1     -10.864  21.137  21.313  1.00  0.00     0.174 HD
HETATM    6  N5  UNL     1      -9.526  18.691  23.070  1.00  0.00    -0.170 N
HETATM    7  C14 UNL     1      -8.370  18.070  22.720  1.00  0.00     0.165 A
HETATM    8  C15 UNL     1      -7.628  17.036  23.235  1.00  0.00     0.291 A
HETATM    9  O1  UNL     1      -8.045  16.486  24.287  1.00  0.00    -0.265 OA
HETATM   10  N6  UNL     1      -6.476  16.581  22.658  1.00  0.00    -0.154 N
ATOM     11  H6  UNL     1      -5.953  15.810  23.074  1.00  0.00     0.187 HD
HETATM   12  C16 UNL     1      -6.049  17.170  21.536  1.00  0.00     0.680 A
HETATM   13  N8  UNL     1      -6.742  18.180  20.996  1.00  0.00    -0.174 N
ATOM     14  H8  UNL     1      -6.401  18.615  20.139  1.00  0.00     0.186 HD
HETATM   15  C17 UNL     1      -7.886  18.640  21.558  1.00  0.00     0.172 A
ENDROOT
BRANCH   1  16
HETATM   16  C5  UNL     1      -8.583  20.429  20.033  1.00  0.00     0.179 C
BRANCH  16  17
HETATM   17  C4  UNL     1      -7.852  21.717  20.336  1.00  0.00     0.293 C
BRANCH  17  18
HETATM   18  N2  UNL     1      -6.503  21.741  19.816  1.00  0.00     0.093 N
HETATM   19  C3  UNL     1      -5.480  21.567  20.795  1.00  0.00     0.302 C
HETATM   20  C2  UNL     1      -4.820  22.898  21.108  1.00  0.00     0.302 C
HETATM   21  N1  UNL     1      -4.104  23.327  19.941  1.00  0.00     0.087 N
HETATM   22  C1  UNL     1      -2.934  22.488  19.784  1.00  0.00     0.310 C
HETATM   23  C19 UNL     1      -4.905  23.266  18.735  1.00  0.00     0.302 C
HETATM   24  C18 UNL     1      -6.350  22.942  19.024  1.00  0.00     0.302 C
ENDBRANCH  17  18
ENDBRANCH  16  17
ENDBRANCH   1  16
BRANCH   6  25
HETATM   25  C7  UNL     1     -10.362  18.401  24.195  1.00  0.00     0.186 C
BRANCH  25  26
HETATM   26  C8  UNL     1     -11.467  17.448  23.957  1.00  0.00    -0.039 A
HETATM   27  C9  UNL     1     -11.309  16.085  24.264  1.00  0.00     0.009 A
HETATM   28  C10 UNL     1     -12.292  15.147  24.065  1.00  0.00     0.001 A
HETATM   29  C11 UNL     1     -13.510  15.505  23.542  1.00  0.00     0.000 A
HETATM   30  C12 UNL     1     -13.710  16.824  23.229  1.00  0.00     0.001 A
HETATM   31  C13 UNL     1     -12.693  17.764  23.440  1.00  0.00     0.009 A
ENDBRANCH  25  26
ENDBRANCH   6  25
BRANCH  12  32
HETATM   32  N7  UNL     1      -4.959  16.769  20.964  1.00  0.00    -0.234 N
ATOM     33  H72 UNL     1      -4.999  16.002  20.292  1.00  0.00     0.174 HD
ATOM     34  H71 UNL     1      -4.069  17.217  21.182  1.00  0.00     0.174 HD
ENDBRANCH  12  32
TORSDOF 6
ENDMDL