MODEL 4
REMARK VINA RESULT: -6.090643164      7.200     10.795
REMARK  7 active torsions:
REMARK  status: ('A' for Active; 'I' for Inactive)
REMARK    1  A    between atoms: N1_1  and  C1_4
REMARK    2  A    between atoms: C4_11  and  N4_12
REMARK    3  A    between atoms: N4_12  and  C5_14
REMARK    4  A    between atoms: C5_14  and  C6_15
REMARK    5  A    between atoms: C6_15  and  N5_16
REMARK    6  A    between atoms: C9_19  and  C10_20
REMARK    7  A    between atoms: C13_27  and  N8_28
ROOT
HETATM    1  C1  UNL     1     -14.047  12.801  16.542  1.00  0.00     0.679 A
HETATM    2  N2  UNL     1     -14.032  12.032  17.641  1.00  0.00    -0.174 N
ATOM      3  H2  UNL     1     -13.656  11.085  17.588  1.00  0.00     0.186 HD
HETATM    4  C2  UNL     1     -14.505  12.492  18.809  1.00  0.00     0.151 A
HETATM    5  N3  UNL     1     -14.479  11.725  19.914  1.00  0.00    -0.346 N
ATOM      6  H3  UNL     1     -14.103  10.778  19.858  1.00  0.00     0.167 HD
HETATM    7  C3  UNL     1     -14.943  12.187  21.101  1.00  0.00     0.138 A
HETATM    8  C4  UNL     1     -15.450  13.462  21.181  1.00  0.00     0.117 A
HETATM    9  N7  UNL     1     -15.472  14.231  20.054  1.00  0.00    -0.336 N
ATOM     10  H7  UNL     1     -15.849  15.177  20.118  1.00  0.00     0.168 HD
HETATM   11  C12 UNL     1     -15.022  13.800  18.865  1.00  0.00     0.124 A
HETATM   12  C13 UNL     1     -15.029  14.572  17.724  1.00  0.00     0.150 A
HETATM   13  N9  UNL     1     -14.523  14.030  16.560  1.00  0.00    -0.175 N
ATOM     14  H9  UNL     1     -14.518  14.587  15.705  1.00  0.00     0.186 HD
ENDROOT
BRANCH   8  15
HETATM   15  N4  UNL     1     -15.892  13.910  22.302  1.00  0.00    -0.373 N
ATOM     16  H4  UNL     1     -16.851  14.257  22.338  1.00  0.00     0.161 HD
BRANCH  15  17
HETATM   17  C5  UNL     1     -15.105  13.952  23.513  1.00  0.00     0.151 C
BRANCH  17  18
HETATM   18  C6  UNL     1     -14.507  15.346  23.609  1.00  0.00     0.292 C
BRANCH  18  19
HETATM   19  N5  UNL     1     -13.357  15.377  24.470  1.00  0.00     0.090 N
HETATM   20  C7  UNL     1     -13.263  16.738  25.012  1.00  0.00     0.273 C
HETATM   21  C8  UNL     1     -11.938  16.634  25.762  1.00  0.00     0.045 C
HETATM   22  C9  UNL     1     -11.128  15.745  24.856  1.00  0.00     0.105 C
HETATM   23  C11 UNL     1     -12.102  15.285  23.764  1.00  0.00     0.286 C
BRANCH  22  24
HETATM   24  C10 UNL     1     -10.003  16.516  24.302  1.00  0.00     0.237 C
HETATM   25  N6  UNL     1     -10.174  17.484  23.258  1.00  0.00    -0.062 NA
HETATM   26  O1  UNL     1      -8.850  16.336  24.741  1.00  0.00    -0.276 OA
ENDBRANCH  22  24
ENDBRANCH  18  19
ENDBRANCH  17  18
ENDBRANCH  15  17
ENDBRANCH   8  15
BRANCH  12  27
HETATM   27  N8  UNL     1     -15.583  15.859  17.692  1.00  0.00    -0.365 N
HETATM   28  C14 UNL     1     -16.878  16.442  17.481  1.00  0.00     0.124 C
HETATM   29  C15 UNL     1     -16.626  17.750  16.746  1.00  0.00     0.021 C
HETATM   30  C16 UNL     1     -15.118  17.863  16.722  1.00  0.00     0.021 C
HETATM   31  C17 UNL     1     -14.725  17.055  17.937  1.00  0.00     0.124 C
ENDBRANCH  12  27
BRANCH   1  32
HETATM   32  N1  UNL     1     -13.577  12.308  15.443  1.00  0.00    -0.234 N
ATOM     33  H12 UNL     1     -14.192  12.184  14.639  1.00  0.00     0.174 HD
ATOM     34  H11 UNL     1     -12.590  12.052  15.411  1.00  0.00     0.174 HD
ENDBRANCH   1  32
TORSDOF 7
ENDMDL