MODEL 5
REMARK VINA RESULT: -6.415924398      1.955      2.692
REMARK  7 active torsions:
REMARK  status: ('A' for Active; 'I' for Inactive)
REMARK    1  A    between atoms: C1_2  and  C2_4
REMARK    2  A    between atoms: C2_4  and  O2_5
REMARK    3  A    between atoms: N2_9  and  C5_10
REMARK    4  A    between atoms: C9_20  and  N6_21
REMARK    5  A    between atoms: N6_21  and  C10_23
REMARK    6  A    between atoms: C10_23  and  C11_24
REMARK    7  A    between atoms: C11_24  and  N7_25
ROOT
HETATM    1  C5  UNL     1      -8.927  17.527  23.274  1.00  0.00     0.683 A
HETATM    2  N3  UNL     1      -9.077  17.723  24.593  1.00  0.00    -0.174 N
ATOM      3  H3  UNL     1      -8.246  17.954  25.139  1.00  0.00     0.186 HD
HETATM    4  C6  UNL     1     -10.258  17.634  25.245  1.00  0.00     0.152 A
HETATM    5  N4  UNL     1     -10.659  17.771  26.518  1.00  0.00    -0.336 N
ATOM      6  H4  UNL     1     -10.042  18.002  27.296  1.00  0.00     0.168 HD
HETATM    7  C7  UNL     1     -11.980  17.565  26.629  1.00  0.00     0.182 A
HETATM    8  N5  UNL     1     -12.438  17.288  25.396  1.00  0.00    -0.346 N
ATOM      9  H5  UNL     1     -13.409  17.085  25.158  1.00  0.00     0.167 HD
HETATM   10  C8  UNL     1     -11.399  17.322  24.516  1.00  0.00     0.123 A
HETATM   11  C9  UNL     1     -11.261  17.119  23.166  1.00  0.00     0.147 A
HETATM   12  N8  UNL     1     -10.038  17.224  22.573  1.00  0.00    -0.174 N
ATOM     13  H8  UNL     1      -9.962  17.068  21.568  1.00  0.00     0.186 HD
ENDROOT
BRANCH   1  14
HETATM   14  N2  UNL     1      -7.709  17.642  22.587  1.00  0.00    -0.217 N
HETATM   15  C4  UNL     1      -7.181  18.921  22.232  1.00  0.00     0.145 C
HETATM   16  C3  UNL     1      -5.757  18.806  21.723  1.00  0.00     0.068 C
HETATM   17  C2  UNL     1      -4.940  17.849  22.563  1.00  0.00     0.139 C
HETATM   18  C17 UNL     1      -5.616  16.584  22.939  1.00  0.00     0.068 C
HETATM   19  C16 UNL     1      -6.949  16.476  22.227  1.00  0.00     0.145 C
BRANCH  17  20
HETATM   20  C1  UNL     1      -4.428  18.512  23.786  1.00  0.00     0.265 C
HETATM   21  N1  UNL     1      -4.800  18.028  25.056  1.00  0.00    -0.059 NA
HETATM   22  O1  UNL     1      -3.665  19.498  23.671  1.00  0.00    -0.273 OA
ENDBRANCH  17  20
BRANCH  17  23
HETATM   23  O2  UNL     1      -3.814  17.522  21.765  1.00  0.00    -0.380 OA
ATOM     24  H2  UNL     1      -4.140  17.308  20.899  1.00  0.00     0.211 HD
ENDBRANCH  17  23
ENDBRANCH   1  14
BRANCH  11  25
HETATM   25  N6  UNL     1     -12.289  16.866  22.454  1.00  0.00    -0.372 N
ATOM     26  H6  UNL     1     -12.377  15.904  22.124  1.00  0.00     0.161 HD
BRANCH  25  27
HETATM   27  C10 UNL     1     -13.336  17.761  22.059  1.00  0.00     0.151 C
BRANCH  27  28
HETATM   28  C11 UNL     1     -14.636  17.168  22.565  1.00  0.00     0.292 C
BRANCH  28  29
HETATM   29  N7  UNL     1     -14.599  15.767  22.813  1.00  0.00     0.090 N
HETATM   30  C12 UNL     1     -15.380  15.003  21.867  1.00  0.00     0.272 C
HETATM   31  C13 UNL     1     -15.529  13.666  22.557  1.00  0.00     0.032 C
HETATM   32  C14 UNL     1     -15.893  14.142  23.975  1.00  0.00     0.032 C
HETATM   33  C15 UNL     1     -14.944  15.340  24.126  1.00  0.00     0.272 C
ENDBRANCH  28  29
ENDBRANCH  27  28
ENDBRANCH  25  27
ENDBRANCH  11  25
TORSDOF 7
ENDMDL