MODEL 3
REMARK VINA RESULT: -6.069004144      4.908     10.060
REMARK  6 active torsions:
REMARK  status: ('A' for Active; 'I' for Inactive)
REMARK       I    between atoms: C1_2  and  N1_3
REMARK       I    between atoms: C1_2  and  N6_24
REMARK    1  A    between atoms: N1_3  and  C2_5
REMARK    2  A    between atoms: C2_5  and  C3_6
REMARK    3  A    between atoms: C3_6  and  O2_7
REMARK    4  A    between atoms: C3_6  and  C4_9
REMARK    5  A    between atoms: C4_9  and  N2_10
REMARK    6  A    between atoms: N3_13  and  C7_14
ROOT
HETATM    1  C4  UNL     1     -12.491  15.342  24.469  1.00  0.00     0.091 C
ENDROOT
BRANCH   1   2
HETATM    2  C3  UNL     1     -13.452  16.021  25.411  1.00  0.00     0.174 C
BRANCH   2   3
HETATM    3  C2  UNL     1     -14.817  15.965  24.761  1.00  0.00     0.161 C
BRANCH   3   4
HETATM    4  N1  UNL     1     -14.917  15.044  23.670  1.00  0.00    -0.340 N
HETATM    5  C1  UNL     1     -15.514  15.303  22.418  1.00  0.00     0.328 C
HETATM    6  O1  UNL     1     -16.007  16.452  22.236  1.00  0.00    -0.246 OA
HETATM    7  N6  UNL     1     -15.553  14.303  21.413  1.00  0.00    -0.274 N
HETATM    8  C13 UNL     1     -16.171  14.618  20.162  1.00  0.00     0.141 C
HETATM    9  S1  UNL     1     -14.840  12.732  21.765  1.00  0.00    -0.049 SA
HETATM   10  C14 UNL     1     -15.602  13.862  18.991  1.00  0.00     0.022 C
HETATM   11  C15 UNL     1     -15.569  12.374  19.213  1.00  0.00     0.013 C
HETATM   12  C16 UNL     1     -14.431  11.991  20.137  1.00  0.00     0.098 C
ATOM     13  H1  UNL     1     -14.520  14.115  23.811  1.00  0.00     0.164 HD
ENDBRANCH   3   4
ENDBRANCH   2   3
BRANCH   2  14
HETATM   14  O2  UNL     1     -13.564  15.358  26.624  1.00  0.00    -0.389 OA
ATOM     15  H2  UNL     1     -13.258  14.471  26.477  1.00  0.00     0.210 HD
ENDBRANCH   2  14
ENDBRANCH   1   2
BRANCH   1  16
HETATM   16  N2  UNL     1     -11.457  16.157  23.969  1.00  0.00    -0.387 N
HETATM   17  C5  UNL     1     -10.610  16.766  24.952  1.00  0.00     0.152 C
HETATM   18  C6  UNL     1      -9.198  16.778  24.344  1.00  0.00     0.294 C
HETATM   19  N3  UNL     1      -9.330  17.197  22.998  1.00  0.00     0.114 N
HETATM   20  C11 UNL     1     -10.522  17.889  22.645  1.00  0.00     0.294 C
HETATM   21  C12 UNL     1     -11.750  16.990  22.856  1.00  0.00     0.152 C
BRANCH  19  22
HETATM   22  C7  UNL     1      -8.159  17.802  22.497  1.00  0.00     0.324 C
HETATM   23  C8  UNL     1      -8.360  18.897  21.477  1.00  0.00     0.077 C
HETATM   24  C9  UNL     1      -7.016  19.565  21.148  1.00  0.00     0.124 C
HETATM   25  N4  UNL     1      -5.907  18.695  21.542  1.00  0.00    -0.386 N
HETATM   26  C10 UNL     1      -6.088  17.287  21.529  1.00  0.00     0.172 C
ATOM     27  H4  UNL     1      -5.012  19.096  21.822  1.00  0.00     0.160 HD
HETATM   28  N5  UNL     1      -7.192  16.815  21.996  1.00  0.00    -0.357 N
ATOM     29  H5  UNL     1      -7.384  15.813  22.016  1.00  0.00     0.162 HD
ENDBRANCH  19  22
ENDBRANCH   1  16
TORSDOF 6
ENDMDL