MODEL 4
REMARK VINA RESULT: -6.772802897      2.086      8.199
REMARK  7 active torsions:
REMARK  status: ('A' for Active; 'I' for Inactive)
REMARK    1  A    between atoms: C2_2  and  N1_3
REMARK    2  A    between atoms: C5_8  and  N3_9
REMARK    3  A    between atoms: N3_9  and  C6_11
REMARK    4  A    between atoms: C6_11  and  C7_12
REMARK    5  A    between atoms: C7_12  and  N4_13
REMARK    6  A    between atoms: C12_25  and  N8_26
REMARK    7  A    between atoms: N8_26  and  C13_28
ROOT
HETATM    1  N1  UNL     1     -10.819  19.216  21.729  1.00  0.00    -0.276 N
HETATM    2  N2  UNL     1     -12.000  19.239  22.315  1.00  0.00    -0.307 N
ATOM      3  H2  UNL     1     -12.779  19.830  22.025  1.00  0.00     0.186 HD
HETATM    4  C3  UNL     1     -12.038  18.379  23.341  1.00  0.00     0.126 A
HETATM    5  C4  UNL     1     -10.811  17.780  23.406  1.00  0.00     0.071 A
HETATM    6  C5  UNL     1     -10.239  16.811  24.243  1.00  0.00     0.132 A
HETATM    7  N7  UNL     1      -8.982  16.461  24.002  1.00  0.00    -0.176 N
ATOM      8  H7  UNL     1      -8.561  15.757  24.609  1.00  0.00     0.186 HD
HETATM    9  C12 UNL     1      -8.213  16.975  23.000  1.00  0.00     0.686 A
HETATM   10  N10 UNL     1      -8.781  17.899  22.213  1.00  0.00    -0.174 N
ATOM     11  H10 UNL     1      -8.235  18.305  21.453  1.00  0.00     0.186 HD
HETATM   12  C18 UNL     1     -10.053  18.308  22.394  1.00  0.00     0.153 A
ENDROOT
BRANCH   6  13
HETATM   13  N3  UNL     1     -10.990  16.359  25.157  1.00  0.00    -0.373 N
ATOM     14  H3  UNL     1     -10.924  16.784  26.082  1.00  0.00     0.161 HD
BRANCH  13  15
HETATM   15  C6  UNL     1     -11.918  15.301  24.976  1.00  0.00     0.141 C
BRANCH  15  16
HETATM   16  C7  UNL     1     -13.239  15.555  25.714  1.00  0.00     0.142 C
BRANCH  16  17
HETATM   17  N4  UNL     1     -14.318  15.404  24.818  1.00  0.00    -0.383 N
HETATM   18  C8  UNL     1     -15.626  15.320  25.299  1.00  0.00     0.078 C
HETATM   19  C9  UNL     1     -16.559  14.439  24.511  1.00  0.00     0.165 C
HETATM   20  N5  UNL     1     -15.907  13.460  23.692  1.00  0.00    -0.374 N
HETATM   21  C10 UNL     1     -14.741  13.867  22.986  1.00  0.00     0.089 C
ATOM     22  H5  UNL     1     -16.265  12.508  23.618  1.00  0.00     0.161 HD
HETATM   23  N6  UNL     1     -14.321  13.215  21.957  1.00  0.00    -0.388 N
HETATM   24  C11 UNL     1     -14.036  15.061  23.478  1.00  0.00     0.197 C
ATOM     25  H62 UNL     1     -14.810  12.387  21.616  1.00  0.00     0.157 HD
ATOM     26  H61 UNL     1     -13.485  13.507  21.450  1.00  0.00     0.157 HD
ENDBRANCH  16  17
ENDBRANCH  15  16
ENDBRANCH  13  15
ENDBRANCH   6  13
BRANCH   9  27
HETATM   27  N8  UNL     1      -7.019  16.546  22.882  1.00  0.00    -0.190 N
ATOM     28  H8  UNL     1      -6.905  15.533  22.846  1.00  0.00     0.184 HD
BRANCH  27  29
HETATM   29  C13 UNL     1      -5.854  17.299  22.797  1.00  0.00     0.064 A
HETATM   30  C14 UNL     1      -5.635  18.346  23.656  1.00  0.00     0.033 A
HETATM   31  C15 UNL     1      -4.457  19.087  23.549  1.00  0.00     0.019 A
HETATM   32  C16 UNL     1      -3.520  18.772  22.589  1.00  0.00     0.088 A
HETATM   33  N9  UNL     1      -3.779  17.737  21.771  1.00  0.00    -0.373 N
HETATM   34  C17 UNL     1      -4.901  17.011  21.853  1.00  0.00     0.117 A
ATOM     35  H9  UNL     1      -3.092  17.495  21.058  1.00  0.00     0.164 HD
ENDBRANCH  27  29
ENDBRANCH   9  27
BRANCH   1  36
HETATM   36  C2  UNL     1     -10.350  19.985  20.586  1.00  0.00     0.146 C
HETATM   37  C1  UNL     1      -9.900  21.343  21.121  1.00  0.00     0.028 C
ENDBRANCH   1  36
TORSDOF 7
ENDMDL