MODEL 4
REMARK VINA RESULT: -6.833815354      1.596      6.799
REMARK  7 active torsions:
REMARK  status: ('A' for Active; 'I' for Inactive)
REMARK    1  A    between atoms: C3_3  and  C4_4
REMARK    2  A    between atoms: C4_4  and  N1_5
REMARK    3  A    between atoms: N1_5  and  C5_7
REMARK    4  A    between atoms: C6_10  and  N3_11
REMARK    5  A    between atoms: N3_11  and  C7_13
REMARK    6  A    between atoms: C7_13  and  C8_14
REMARK    7  A    between atoms: N7_24  and  C12_26
ROOT
HETATM    1  C5  UNL     1     -10.988  16.021  24.318  1.00  0.00     0.707 A
HETATM    2  N2  UNL     1     -11.889  15.565  23.430  1.00  0.00    -0.022 N
ATOM      3  H2  UNL     1     -11.561  15.192  22.538  1.00  0.00     0.203 HD
HETATM    4  C6  UNL     1     -13.212  15.584  23.681  1.00  0.00     0.707 A
HETATM    5  N6  UNL     1     -13.621  16.078  24.863  1.00  0.00    -0.021 N
ATOM      6  H6  UNL     1     -14.620  16.100  25.073  1.00  0.00     0.203 HD
HETATM    7  C11 UNL     1     -12.747  16.544  25.781  1.00  0.00     0.707 A
HETATM    8  N7  UNL     1     -13.176  17.003  26.885  1.00  0.00    -0.218 N
ATOM      9  H7  UNL     1     -12.479  17.346  27.546  1.00  0.00     0.178 HD
HETATM   10  N8  UNL     1     -11.436  16.505  25.485  1.00  0.00    -0.021 N
ATOM     11  H8  UNL     1     -10.763  16.853  26.169  1.00  0.00     0.203 HD
ENDROOT
BRANCH   1  12
HETATM   12  N1  UNL     1      -9.724  15.991  24.051  1.00  0.00    -0.219 N
ATOM     13  H1  UNL     1      -9.303  15.120  23.728  1.00  0.00     0.178 HD
BRANCH  12  14
HETATM   14  C4  UNL     1      -8.901  17.156  24.201  1.00  0.00     0.195 C
BRANCH  14  15
HETATM   15  C3  UNL     1      -7.872  17.171  23.111  1.00  0.00     0.029 A
HETATM   16  C2  UNL     1      -6.544  17.115  23.479  1.00  0.00     0.044 A
HETATM   17  C1  UNL     1      -5.590  17.129  22.472  1.00  0.00     0.091 A
HETATM   18  N10 UNL     1      -5.947  17.196  21.177  1.00  0.00    -0.362 N
HETATM   19  C16 UNL     1      -7.258  17.250  20.871  1.00  0.00     0.180 A
ATOM     20  H10 UNL     1      -5.240  17.207  20.442  1.00  0.00     0.165 HD
HETATM   21  N9  UNL     1      -8.221  17.238  21.823  1.00  0.00    -0.354 N
ATOM     22  H9  UNL     1      -9.205  17.281  21.560  1.00  0.00     0.166 HD
ENDBRANCH  14  15
ENDBRANCH  12  14
ENDBRANCH   1  12
BRANCH   4  23
HETATM   23  N3  UNL     1     -14.066  15.133  22.795  1.00  0.00    -0.218 N
ATOM     24  H3  UNL     1     -14.305  15.684  21.971  1.00  0.00     0.178 HD
BRANCH  23  25
HETATM   25  C7  UNL     1     -14.660  13.835  23.017  1.00  0.00     0.214 C
BRANCH  25  26
HETATM   26  C8  UNL     1     -14.725  13.152  21.689  1.00  0.00     0.099 A
HETATM   27  N4  UNL     1     -14.328  11.904  21.460  1.00  0.00    -0.353 N
HETATM   28  C9  UNL     1     -14.557  11.681  20.136  1.00  0.00     0.106 A
ATOM     29  H4  UNL     1     -13.933  11.249  22.135  1.00  0.00     0.166 HD
HETATM   30  C10 UNL     1     -15.097  12.808  19.570  1.00  0.00     0.106 A
HETATM   31  N5  UNL     1     -15.193  13.714  20.557  1.00  0.00    -0.353 N
ATOM     32  H5  UNL     1     -15.557  14.663  20.466  1.00  0.00     0.166 HD
ENDBRANCH  25  26
ENDBRANCH  23  25
ENDBRANCH   4  23
BRANCH   8  33
HETATM   33  C12 UNL     1     -14.543  17.084  27.285  1.00  0.00     0.125 C
HETATM   34  C13 UNL     1     -14.748  16.870  28.758  1.00  0.00     0.054 C
HETATM   35  C14 UNL     1     -15.016  18.248  29.274  1.00  0.00     0.169 C
HETATM   36  O1  UNL     1     -15.035  19.127  28.223  1.00  0.00    -0.389 OA
HETATM   37  C15 UNL     1     -15.170  18.434  27.044  1.00  0.00     0.193 C
ENDBRANCH   8  33
TORSDOF 7
ENDMDL