MODEL 2
REMARK VINA RESULT: -6.972159228      2.907      4.517
REMARK  8 active torsions:
REMARK  status: ('A' for Active; 'I' for Inactive)
REMARK    1  A    between atoms: O1_1  and  C1_3
REMARK    2  A    between atoms: C3_7  and  N2_8
REMARK    3  A    between atoms: N2_8  and  C4_10
REMARK    4  A    between atoms: C4_10  and  C5_11
REMARK    5  A    between atoms: C5_11  and  N3_12
REMARK    6  A    between atoms: N3_12  and  C6_14
REMARK    7  A    between atoms: C7_17  and  C8_18
REMARK    8  A    between atoms: C12_24  and  N6_25
ROOT
HETATM    1  C6  UNL     1     -11.320  17.330  22.805  1.00  0.00     0.678 A
HETATM    2  N4  UNL     1     -12.542  16.809  22.954  1.00  0.00    -0.191 N
ATOM      3  H4  UNL     1     -13.280  17.183  22.359  1.00  0.00     0.184 HD
HETATM    4  C7  UNL     1     -12.887  15.840  23.814  1.00  0.00     0.064 A
HETATM    5  C17 UNL     1     -11.820  15.382  24.591  1.00  0.00     0.048 A
HETATM    6  C18 UNL     1     -10.532  15.909  24.458  1.00  0.00     0.108 A
HETATM    7  N8  UNL     1     -10.318  16.865  23.571  1.00  0.00    -0.202 N
ATOM      8  H8  UNL     1      -9.381  17.254  23.466  1.00  0.00     0.183 HD
ENDROOT
BRANCH   1   9
HETATM    9  N3  UNL     1     -11.090  18.262  21.947  1.00  0.00    -0.221 N
ATOM     10  H3  UNL     1     -11.774  18.471  21.220  1.00  0.00     0.178 HD
BRANCH   9  11
HETATM   11  C5  UNL     1      -9.843  19.019  22.021  1.00  0.00     0.183 C
BRANCH  11  12
HETATM   12  C4  UNL     1      -8.993  18.800  20.816  1.00  0.00     0.099 C
BRANCH  12  13
HETATM   13  N2  UNL     1      -8.171  17.680  20.913  1.00  0.00    -0.204 N
ATOM     14  H2  UNL     1      -8.509  16.937  20.302  1.00  0.00     0.183 HD
BRANCH  13  15
HETATM   15  C3  UNL     1      -7.148  17.311  21.521  1.00  0.00     0.683 A
HETATM   16  N1  UNL     1      -6.917  16.579  22.614  1.00  0.00    -0.198 N
HETATM   17  C2  UNL     1      -5.586  16.478  22.850  1.00  0.00     0.162 A
ATOM     18  H1  UNL     1      -7.642  16.155  23.192  1.00  0.00     0.183 HD
HETATM   19  C1  UNL     1      -4.966  17.182  21.853  1.00  0.00     0.171 A
HETATM   20  N9  UNL     1      -5.902  17.678  21.063  1.00  0.00    -0.169 N
ATOM     21  H9  UNL     1      -5.728  18.248  20.235  1.00  0.00     0.186 HD
BRANCH  19  22
HETATM   22  O1  UNL     1      -3.583  17.323  21.736  1.00  0.00    -0.345 OA
ATOM     23  H1  UNL     1      -3.069  17.963  22.215  1.00  0.00     0.219 HD
ENDBRANCH  19  22
ENDBRANCH  13  15
ENDBRANCH  12  13
ENDBRANCH  11  12
ENDBRANCH   9  11
ENDBRANCH   1   9
BRANCH   4  24
HETATM   24  C8  UNL     1     -14.218  15.278  23.950  1.00  0.00     0.035 A
HETATM   25  C9  UNL     1     -14.590  14.236  23.117  1.00  0.00     0.019 A
HETATM   26  C10 UNL     1     -15.857  13.670  23.245  1.00  0.00     0.018 A
HETATM   27  C11 UNL     1     -16.730  14.138  24.184  1.00  0.00     0.089 A
HETATM   28  N5  UNL     1     -16.367  15.131  24.973  1.00  0.00    -0.352 N
HETATM   29  C12 UNL     1     -15.111  15.725  24.877  1.00  0.00     0.115 A
ATOM     30  H5  UNL     1     -17.026  15.473  25.673  1.00  0.00     0.166 HD
BRANCH  29  31
HETATM   31  N6  UNL     1     -14.851  16.821  25.717  1.00  0.00    -0.363 N
HETATM   32  C13 UNL     1     -15.097  18.189  25.329  1.00  0.00     0.143 C
HETATM   33  C14 UNL     1     -16.225  18.691  26.242  1.00  0.00     0.133 C
HETATM   34  N7  UNL     1     -15.901  18.463  27.628  1.00  0.00    -0.418 N
HETATM   35  C15 UNL     1     -15.455  17.157  27.968  1.00  0.00     0.133 C
ATOM     36  H7  UNL     1     -15.987  19.200  28.327  1.00  0.00     0.153 HD
HETATM   37  C16 UNL     1     -14.353  16.615  27.052  1.00  0.00     0.143 C
ENDBRANCH  29  31
ENDBRANCH   4  24
TORSDOF 8
ENDMDL