MODEL 3
REMARK VINA RESULT: -7.166792836      4.349      9.317
REMARK  8 active torsions:
REMARK  status: ('A' for Active; 'I' for Inactive)
REMARK    1  A    between atoms: N1_1  and  C1_4
REMARK    2  A    between atoms: C2_7  and  N3_8
REMARK    3  A    between atoms: N3_8  and  C3_10
REMARK    4  A    between atoms: C3_10  and  C4_11
REMARK    5  A    between atoms: C4_11  and  N4_12
REMARK    6  A    between atoms: C12_23  and  N6_24
REMARK    7  A    between atoms: N6_24  and  N7_26
REMARK    8  A    between atoms: C13_28  and  C14_29
ROOT
HETATM    1  C1  UNL     1      -3.422  19.405  23.616  1.00  0.00     0.705 A
HETATM    2  N2  UNL     1      -4.306  18.467  23.204  1.00  0.00    -0.022 N
ATOM      3  H2  UNL     1      -5.138  18.289  23.767  1.00  0.00     0.203 HD
HETATM    4  C2  UNL     1      -4.120  17.766  22.076  1.00  0.00     0.707 A
HETATM    5  N5  UNL     1      -3.017  18.018  21.349  1.00  0.00    -0.020 N
ATOM      6  H5  UNL     1      -2.862  17.491  20.490  1.00  0.00     0.203 HD
HETATM    7  C12 UNL     1      -2.110  18.939  21.717  1.00  0.00     0.725 A
HETATM    8  N9  UNL     1      -2.336  19.618  22.853  1.00  0.00    -0.020 N
ATOM      9  H9  UNL     1      -1.659  20.321  23.148  1.00  0.00     0.203 HD
ENDROOT
BRANCH   4  10
HETATM   10  N3  UNL     1      -4.998  16.892  21.745  1.00  0.00    -0.224 N
ATOM     11  H3  UNL     1      -4.738  16.122  21.129  1.00  0.00     0.177 HD
BRANCH  10  12
HETATM   12  C3  UNL     1      -6.332  16.988  22.229  1.00  0.00     0.158 C
BRANCH  12  13
HETATM   13  C4  UNL     1      -7.333  17.392  21.179  1.00  0.00     0.153 C
BRANCH  13  14
HETATM   14  N4  UNL     1      -7.617  18.834  21.296  1.00  0.00    -0.311 N
HETATM   15  C5  UNL     1      -8.033  19.834  20.390  1.00  0.00     0.260 A
HETATM   16  O1  UNL     1      -8.329  19.929  19.163  1.00  0.00    -0.267 OA
HETATM   17  C6  UNL     1      -7.997  20.793  21.479  1.00  0.00     0.059 A
HETATM   18  C7  UNL     1      -8.180  22.105  21.919  1.00  0.00     0.019 A
HETATM   19  C11 UNL     1      -7.594  19.801  22.324  1.00  0.00     0.053 A
HETATM   20  C8  UNL     1      -7.962  22.449  23.225  1.00  0.00     0.001 A
HETATM   21  C9  UNL     1      -7.549  21.435  24.093  1.00  0.00     0.002 A
HETATM   22  C10 UNL     1      -7.370  20.139  23.656  1.00  0.00     0.031 A
ENDBRANCH  13  14
ENDBRANCH  12  13
ENDBRANCH  10  12
ENDBRANCH   4  10
BRANCH   1  23
HETATM   23  N1  UNL     1      -3.649  20.058  24.718  1.00  0.00    -0.234 N
ATOM     24  H12 UNL     1      -3.048  19.986  25.538  1.00  0.00     0.174 HD
ATOM     25  H11 UNL     1      -4.462  20.672  24.777  1.00  0.00     0.174 HD
ENDBRANCH   1  23
BRANCH   7  26
HETATM   26  N6  UNL     1      -1.053  19.155  20.986  1.00  0.00    -0.131 N
ATOM     27  H6  UNL     1      -0.240  19.618  21.392  1.00  0.00     0.205 HD
BRANCH  26  28
HETATM   28  N7  UNL     1      -1.028  18.759  19.662  1.00  0.00    -0.297 N
HETATM   29  C13 UNL     1      -0.654  19.550  18.700  1.00  0.00     0.120 C
ATOM     30  H7  UNL     1      -1.314  17.808  19.430  1.00  0.00     0.186 HD
BRANCH  29  31
HETATM   31  C14 UNL     1      -0.641  19.098  17.318  1.00  0.00    -0.004 A
HETATM   32  C15 UNL     1       0.428  18.456  16.741  1.00  0.00     0.015 A
HETATM   33  C16 UNL     1       0.392  18.047  15.425  1.00  0.00     0.018 A
HETATM   34  C17 UNL     1      -0.752  18.289  14.665  1.00  0.00     0.087 A
HETATM   35  N8  UNL     1      -1.792  18.915  15.233  1.00  0.00    -0.374 N
HETATM   36  C18 UNL     1      -1.755  19.321  16.537  1.00  0.00     0.100 A
ATOM     37  H8  UNL     1      -2.630  19.093  14.679  1.00  0.00     0.164 HD
ENDBRANCH  29  31
ENDBRANCH  26  28
ENDBRANCH   7  26
TORSDOF 8
ENDMDL