MODEL 3
REMARK VINA RESULT: -7.763725221      2.315      5.990
REMARK  6 active torsions:
REMARK  status: ('A' for Active; 'I' for Inactive)
REMARK    1  A    between atoms: C3_7  and  C4_8
REMARK    2  A    between atoms: C4_8  and  N3_9
REMARK    3  A    between atoms: N3_9  and  C5_11
REMARK    4  A    between atoms: N4_13  and  C7_14
REMARK    5  A    between atoms: C10_19  and  C11_20
REMARK       I    between atoms: C11_20  and  N6_22
REMARK    6  A    between atoms: C15_26  and  N7_27
ROOT
HETATM    1  C5  UNL     1     -19.597   7.727  -4.163  1.00  0.00     0.079 A
HETATM    2  C6  UNL     1     -19.909   6.399  -4.489  1.00  0.00     0.142 A
HETATM    3  N4  UNL     1     -20.141   5.773  -3.334  1.00  0.00    -0.296 N
HETATM    4  N5  UNL     1     -19.992   6.623  -2.351  1.00  0.00    -0.291 N
ATOM      5  H5  UNL     1     -20.114   6.387  -1.366  1.00  0.00     0.187 HD
HETATM    6  C10 UNL     1     -19.651   7.863  -2.802  1.00  0.00     0.144 A
ENDROOT
BRANCH   6   7
HETATM    7  C11 UNL     1     -19.399   9.007  -1.961  1.00  0.00     0.274 C
HETATM    8  O1  UNL     1     -20.087  10.063  -2.273  1.00  0.00    -0.266 OA
HETATM    9  N6  UNL     1     -18.518   9.090  -0.884  1.00  0.00    -0.345 N
HETATM   10  C12 UNL     1     -17.702   8.043  -0.380  1.00  0.00     0.126 C
HETATM   11  C20 UNL     1     -18.362  10.396  -0.189  1.00  0.00     0.161 C
HETATM   12  C13 UNL     1     -16.250   8.287  -0.842  1.00  0.00     0.022 C
HETATM   13  C14 UNL     1     -16.128   9.798  -1.000  1.00  0.00     0.039 C
HETATM   14  C15 UNL     1     -16.888  10.471   0.128  1.00  0.00     0.241 C
BRANCH  14  15
HETATM   15  N7  UNL     1     -16.370  11.779   0.282  1.00  0.00     0.094 N
HETATM   16  C16 UNL     1     -15.843  12.422  -0.861  1.00  0.00     0.273 C
HETATM   17  C17 UNL     1     -16.206  13.895  -0.750  1.00  0.00     0.032 C
HETATM   18  C18 UNL     1     -17.543  13.825  -0.050  1.00  0.00     0.032 C
HETATM   19  C19 UNL     1     -17.385  12.635   0.856  1.00  0.00     0.273 C
ENDBRANCH  14  15
ENDBRANCH   6   7
BRANCH   1  20
HETATM   20  N3  UNL     1     -19.305   8.715  -5.118  1.00  0.00    -0.381 N
ATOM     21  H3  UNL     1     -18.361   9.097  -5.170  1.00  0.00     0.160 HD
BRANCH  20  22
HETATM   22  C4  UNL     1     -20.336   9.208  -6.046  1.00  0.00     0.179 C
BRANCH  22  23
HETATM   23  C3  UNL     1     -20.695  10.612  -5.731  1.00  0.00     0.051 A
HETATM   24  N2  UNL     1     -20.226  11.442  -4.787  1.00  0.00    -0.302 N
HETATM   25  N1  UNL     1     -20.809  12.611  -4.822  1.00  0.00    -0.304 N
ATOM     26  H2  UNL     1     -19.498  11.189  -4.119  1.00  0.00     0.186 HD
HETATM   27  C2  UNL     1     -21.716  12.594  -5.825  1.00  0.00     0.029 A
ATOM     28  H1  UNL     1     -20.615  13.398  -4.201  1.00  0.00     0.186 HD
HETATM   29  C1  UNL     1     -22.602  13.696  -6.226  1.00  0.00     0.070 C
HETATM   30  C21 UNL     1     -21.660  11.348  -6.409  1.00  0.00    -0.013 A
HETATM   31  C22 UNL     1     -22.451  10.808  -7.557  1.00  0.00     0.052 C
ENDBRANCH  22  23
ENDBRANCH  20  22
ENDBRANCH   1  20
BRANCH   3  32
HETATM   32  C7  UNL     1     -20.504   4.352  -3.246  1.00  0.00     0.099 C
HETATM   33  C8  UNL     1     -19.294   3.482  -3.480  1.00  0.00     0.034 C
HETATM   34  C9  UNL     1     -21.519   4.051  -4.351  1.00  0.00     0.034 C
ENDBRANCH   3  32
TORSDOF 6
ENDMDL