MODEL 5
REMARK VINA RESULT: -7.913282347      1.675      3.227
REMARK  8 active torsions:
REMARK  status: ('A' for Active; 'I' for Inactive)
REMARK    1  A    between atoms: C4_5  and  O2_6
REMARK    2  A    between atoms: O2_6  and  C5_7
REMARK    3  A    between atoms: C5_7  and  C6_8
REMARK    4  A    between atoms: C6_8  and  C7_9
REMARK    5  A    between atoms: C7_9  and  C8_10
REMARK    6  A    between atoms: C8_10  and  C9_11
REMARK    7  A    between atoms: C9_11  and  O3_12
REMARK    8  A    between atoms: N1_14  and  O4_16
ROOT
HETATM    1  O1  UNL     1     -17.481  11.343   1.017  1.00  0.00    -0.296 OA
HETATM    2  C1  UNL     1     -17.499  10.806  -0.031  1.00  0.00     0.145 C
HETATM    3  C2  UNL     1     -16.721   9.514  -0.098  1.00  0.00     0.137 C
HETATM    4  C3  UNL     1     -16.261   9.104  -1.487  1.00  0.00     0.047 C
HETATM    5  C4  UNL     1     -17.157   8.434  -2.442  1.00  0.00     0.307 C
HETATM    6  O5  UNL     1     -17.661   9.057  -3.562  1.00  0.00    -0.347 OA
HETATM    7  C10 UNL     1     -18.907   9.584  -3.619  1.00  0.00     0.148 C
HETATM    8  C11 UNL     1     -19.480   9.289  -2.259  1.00  0.00     0.002 C
HETATM    9  C12 UNL     1     -19.091  10.079  -1.325  1.00  0.00    -0.011 C
HETATM   10  C13 UNL     1     -18.180  11.278  -1.192  1.00  0.00     0.044 C
HETATM   11  C14 UNL     1     -19.291  12.140  -1.501  1.00  0.00     0.026 C
HETATM   12  C15 UNL     1     -19.338  12.133  -3.043  1.00  0.00    -0.010 C
HETATM   13  C16 UNL     1     -18.342  13.302  -3.340  1.00  0.00     0.005 C
HETATM   14  C17 UNL     1     -17.245  13.245  -2.254  1.00  0.00     0.009 C
HETATM   15  C18 UNL     1     -17.103  11.712  -2.013  1.00  0.00     0.028 C
HETATM   16  C19 UNL     1     -15.656  11.446  -1.500  1.00  0.00     0.089 C
HETATM   17  C20 UNL     1     -14.652  12.193  -2.375  1.00  0.00     0.027 C
HETATM   18  C21 UNL     1     -13.526  11.154  -2.569  1.00  0.00     0.022 C
HETATM   19  C22 UNL     1     -14.455   9.969  -2.893  1.00  0.00     0.123 C
HETATM   20  N2  UNL     1     -15.399  10.104  -1.899  1.00  0.00    -0.378 N
HETATM   21  C23 UNL     1     -19.223  11.000  -3.897  1.00  0.00     0.040 C
ENDROOT
BRANCH   5  22
HETATM   22  O2  UNL     1     -16.373   7.463  -3.109  1.00  0.00    -0.356 OA
BRANCH  22  23
HETATM   23  C5  UNL     1     -16.678   6.170  -2.851  1.00  0.00     0.171 C
BRANCH  23  24
HETATM   24  C6  UNL     1     -18.143   5.820  -2.780  1.00  0.00     0.027 C
BRANCH  24  25
HETATM   25  C7  UNL     1     -18.206   4.313  -3.088  1.00  0.00     0.010 C
BRANCH  25  26
HETATM   26  C8  UNL     1     -19.374   4.033  -3.994  1.00  0.00     0.086 C
BRANCH  26  27
HETATM   27  C9  UNL     1     -18.962   3.078  -5.056  1.00  0.00     0.135 C
HETATM   28  N1  UNL     1     -18.607   3.532  -6.193  1.00  0.00    -0.251 N
ATOM     29  H1  UNL     1     -18.325   2.871  -6.917  1.00  0.00     0.196 HD
BRANCH  27  30
HETATM   30  O3  UNL     1     -18.954   1.712  -4.838  1.00  0.00    -0.348 OA
ATOM     31  H3  UNL     1     -18.294   1.150  -5.227  1.00  0.00     0.219 HD
ENDBRANCH  27  30
BRANCH  28  32
HETATM   32  O4  UNL     1     -18.591   4.863  -6.480  1.00  0.00    -0.288 OA
ATOM     33  H4  UNL     1     -19.339   5.429  -6.330  1.00  0.00     0.244 HD
ENDBRANCH  28  32
ENDBRANCH  26  27
ENDBRANCH  25  26
ENDBRANCH  24  25
ENDBRANCH  23  24
ENDBRANCH  22  23
ENDBRANCH   5  22
TORSDOF 8
ENDMDL