MODEL 2
REMARK VINA RESULT: -7.134649869      2.014      3.960
REMARK  10 active torsions:
REMARK  status: ('A' for Active; 'I' for Inactive)
REMARK    1  A    between atoms: C2_2  and  C3_3
REMARK    2  A    between atoms: C3_3  and  C4_4
REMARK    3  A    between atoms: C4_4  and  C5_5
REMARK    4  A    between atoms: C5_5  and  O2_7
REMARK    5  A    between atoms: O2_7  and  C6_8
REMARK    6  A    between atoms: C7_9  and  O3_10
REMARK    7  A    between atoms: C15_19  and  O4_20
REMARK    8  A    between atoms: C19_25  and  O5_27
REMARK    9  A    between atoms: O5_27  and  C21_28
REMARK   10  A    between atoms: C21_28  and  C22_30
ROOT
HETATM    1  C6  UNL     1     -19.660   7.812  -3.930  1.00  0.00     0.195 C
HETATM    2  C7  UNL     1     -18.464   8.578  -3.789  1.00  0.00     0.151 C
HETATM    3  C8  UNL     1     -17.366   9.353  -3.385  1.00  0.00     0.044 C
HETATM    4  C9  UNL     1     -17.074   8.959  -1.901  1.00  0.00    -0.027 C
HETATM    5  C10 UNL     1     -15.824   8.192  -1.826  1.00  0.00     0.019 C
HETATM    6  C11 UNL     1     -15.115   9.467  -1.363  1.00  0.00    -0.040 C
HETATM    7  C12 UNL     1     -14.420  10.220  -2.469  1.00  0.00     0.015 C
HETATM    8  C13 UNL     1     -14.183   9.221  -0.230  1.00  0.00     0.015 C
HETATM    9  C14 UNL     1     -16.484  10.009  -1.052  1.00  0.00     0.031 C
HETATM   10  C15 UNL     1     -17.045   9.690   0.306  1.00  0.00     0.124 C
HETATM   11  C16 UNL     1     -17.728   8.348   0.229  1.00  0.00     0.037 C
HETATM   12  C17 UNL     1     -18.307   8.470  -1.207  1.00  0.00    -0.000 C
HETATM   13  C18 UNL     1     -18.962   7.243  -1.498  1.00  0.00     0.046 C
HETATM   14  C19 UNL     1     -19.881   6.973  -2.659  1.00  0.00     0.096 C
HETATM   15  C20 UNL     1     -21.306   7.264  -2.167  1.00  0.00     0.049 C
ENDROOT
BRANCH   1  16
HETATM   16  O2  UNL     1     -20.807   8.622  -4.187  1.00  0.00    -0.310 OA
BRANCH  16  17
HETATM   17  C5  UNL     1     -20.850   9.785  -4.901  1.00  0.00     0.259 C
HETATM   18  O1  UNL     1     -20.903  10.867  -4.245  1.00  0.00    -0.265 OA
BRANCH  17  19
HETATM   19  C4  UNL     1     -20.834   9.804  -6.378  1.00  0.00     0.111 C
BRANCH  19  20
HETATM   20  C3  UNL     1     -22.034  10.535  -6.896  1.00  0.00     0.009 C
BRANCH  20  21
HETATM   21  C2  UNL     1     -22.236  10.273  -8.352  1.00  0.00    -0.004 C
HETATM   22  C1  UNL     1     -23.670  10.719  -8.674  1.00  0.00     0.005 C
ENDBRANCH  20  21
ENDBRANCH  19  20
ENDBRANCH  17  19
ENDBRANCH  16  17
ENDBRANCH   1  16
BRANCH   2  23
HETATM   23  O3  UNL     1     -17.731   7.381  -3.605  1.00  0.00    -0.393 OA
ATOM     24  H3  UNL     1     -18.063   7.058  -4.435  1.00  0.00     0.210 HD
ENDBRANCH   2  23
BRANCH  14  25
HETATM   25  O5  UNL     1     -19.717   5.592  -2.878  1.00  0.00    -0.308 OA
BRANCH  25  26
HETATM   26  C21 UNL     1     -19.804   4.863  -4.004  1.00  0.00     0.259 C
HETATM   27  O6  UNL     1     -18.724   4.553  -4.553  1.00  0.00    -0.265 OA
BRANCH  26  28
HETATM   28  C22 UNL     1     -21.086   4.408  -4.621  1.00  0.00     0.106 C
HETATM   29  C23 UNL     1     -22.054   3.982  -3.529  1.00  0.00     0.015 C
ENDBRANCH  26  28
ENDBRANCH  25  26
ENDBRANCH  14  25
BRANCH  10  30
HETATM   30  O4  UNL     1     -16.186   9.821   1.349  1.00  0.00    -0.395 OA
ATOM     31  H4  UNL     1     -15.553   9.121   1.456  1.00  0.00     0.210 HD
ENDBRANCH  10  30
TORSDOF 10
ENDMDL