MODEL 2
REMARK VINA RESULT: -7.318640640      3.472      5.366
REMARK  8 active torsions:
REMARK  status: ('A' for Active; 'I' for Inactive)
REMARK    1  A    between atoms: C8_8  and  C9_9
REMARK    2  A    between atoms: C10_10  and  C11_11
REMARK    3  A    between atoms: C11_11  and  C12_12
REMARK    4  A    between atoms: C18_21  and  C19_22
REMARK    5  A    between atoms: C19_22  and  N1_23
REMARK    6  A    between atoms: N1_23  and  O4_24
REMARK    7  A    between atoms: N1_23  and  C20_26
REMARK    8  A    between atoms: C22_29  and  O6_30
ROOT
HETATM    1  C1  UNL     1     -16.478   7.985  -0.527  1.00  0.00     0.017 C
HETATM    2  C2  UNL     1     -17.353   8.946  -0.260  1.00  0.00    -0.060 C
HETATM    3  C3  UNL     1     -16.988  10.048   0.641  1.00  0.00     0.036 C
HETATM    4  C4  UNL     1     -17.474  11.409   0.267  1.00  0.00     0.007 C
HETATM    5  C5  UNL     1     -16.477  12.141  -0.617  1.00  0.00     0.040 C
HETATM    6  C6  UNL     1     -17.170  12.713  -1.850  1.00  0.00     0.078 A
HETATM    7  C7  UNL     1     -18.480  13.366  -1.745  1.00  0.00     0.051 A
HETATM    8  C8  UNL     1     -17.241  14.186  -1.974  1.00  0.00     0.046 A
HETATM    9  O1  UNL     1     -16.911  11.966  -2.996  1.00  0.00    -0.307 OA
HETATM   10  C14 UNL     1     -17.200  10.659  -3.248  1.00  0.00     0.289 C
HETATM   11  O2  UNL     1     -16.267   9.868  -3.627  1.00  0.00    -0.262 OA
HETATM   12  C15 UNL     1     -18.555  10.033  -3.122  1.00  0.00     0.229 C
HETATM   13  O3  UNL     1     -18.963   9.737  -4.438  1.00  0.00    -0.370 OA
HETATM   14  C16 UNL     1     -18.898   8.342  -4.539  1.00  0.00     0.128 C
HETATM   15  C17 UNL     1     -19.296   7.709  -5.762  1.00  0.00     0.040 C
HETATM   16  C18 UNL     1     -19.431   7.879  -3.210  1.00  0.00     0.065 C
HETATM   17  C21 UNL     1     -18.512   8.731  -2.364  1.00  0.00     0.069 C
HETATM   18  C22 UNL     1     -18.704   8.795  -0.926  1.00  0.00     0.154 C
ENDROOT
BRANCH   8  19
HETATM   19  C9  UNL     1     -17.149  14.840  -3.312  1.00  0.00    -0.023 C
HETATM   20  C10 UNL     1     -16.261  15.801  -3.507  1.00  0.00    -0.030 C
BRANCH  20  21
HETATM   21  C11 UNL     1     -16.150  16.463  -4.820  1.00  0.00     0.026 C
BRANCH  21  22
HETATM   22  C12 UNL     1     -17.434  16.315  -5.597  1.00  0.00    -0.001 C
HETATM   23  C13 UNL     1     -17.922  17.711  -6.012  1.00  0.00     0.005 C
ENDBRANCH  21  22
ENDBRANCH  20  21
ENDBRANCH   8  19
BRANCH  18  24
HETATM   24  O6  UNL     1     -19.173   7.569  -0.418  1.00  0.00    -0.391 OA
ATOM     25  H6  UNL     1     -18.545   6.942  -0.760  1.00  0.00     0.210 HD
ENDBRANCH  18  24
BRANCH  16  26
HETATM   26  C19 UNL     1     -20.848   7.898  -2.944  1.00  0.00     0.106 C
BRANCH  26  27
HETATM   27  N1  UNL     1     -21.587   6.816  -2.448  1.00  0.00    -0.214 N
BRANCH  27  28
HETATM   28  O4  UNL     1     -22.109   6.939  -1.163  1.00  0.00    -0.281 OA
ATOM     29  H4  UNL     1     -22.587   7.736  -0.963  1.00  0.00     0.245 HD
ENDBRANCH  27  28
BRANCH  27  30
HETATM   30  C20 UNL     1     -21.880   5.574  -3.040  1.00  0.00     0.380 C
HETATM   31  O5  UNL     1     -21.002   4.692  -3.119  1.00  0.00    -0.281 OA
ENDBRANCH  27  30
ENDBRANCH  26  27
ENDBRANCH  16  26
TORSDOF 8
ENDMDL