MODEL 1
REMARK VINA RESULT: -7.866569804      0.000      0.000
REMARK  7 active torsions:
REMARK  status: ('A' for Active; 'I' for Inactive)
REMARK    1  A    between atoms: C10_11  and  C11_12
REMARK    2  A    between atoms: C11_12  and  C12_13
REMARK    3  A    between atoms: C12_13  and  O2_14
REMARK    4  A    between atoms: C12_13  and  C13_16
REMARK    5  A    between atoms: C15_18  and  C16_19
REMARK    6  A    between atoms: C17_20  and  O3_21
REMARK    7  A    between atoms: C19_24  and  O4_25
ROOT
HETATM    1  C1  UNL     1     -28.210  10.247 -10.140  1.00  0.00     0.015 C
HETATM    2  C2  UNL     1     -27.108  10.651 -10.676  1.00  0.00    -0.082 C
HETATM    3  C3  UNL     1     -27.131  11.864 -11.488  1.00  0.00     0.036 C
HETATM    4  C4  UNL     1     -26.038  12.857 -11.134  1.00  0.00     0.036 C
HETATM    5  C5  UNL     1     -25.806  12.990  -9.670  1.00  0.00     0.126 C
HETATM    6  O1  UNL     1     -25.842  11.753  -9.010  1.00  0.00    -0.380 OA
HETATM    7  C6  UNL     1     -25.001  10.881  -9.701  1.00  0.00     0.130 C
HETATM    8  C7  UNL     1     -24.036  10.410  -8.687  1.00  0.00     0.033 C
HETATM    9  C8  UNL     1     -23.068  11.619  -8.560  1.00  0.00     0.003 C
HETATM   10  C9  UNL     1     -23.821  12.808  -8.117  1.00  0.00     0.007 C
HETATM   11  C10 UNL     1     -24.507  13.610  -9.256  1.00  0.00     0.017 C
HETATM   12  C15 UNL     1     -25.871   9.860 -10.386  1.00  0.00     0.052 C
ENDROOT
BRANCH  12  13
HETATM   13  C16 UNL     1     -25.330   9.415 -11.697  1.00  0.00     0.062 C
HETATM   14  C17 UNL     1     -25.392   7.970 -11.967  1.00  0.00     0.131 C
HETATM   15  C18 UNL     1     -24.223   7.205 -11.325  1.00  0.00     0.106 C
HETATM   16  C19 UNL     1     -22.959   7.851 -11.876  1.00  0.00     0.198 C
HETATM   17  O5  UNL     1     -22.971   9.167 -11.304  1.00  0.00    -0.337 OA
HETATM   18  C23 UNL     1     -23.118   8.116 -13.293  1.00  0.00     0.043 C
HETATM   19  C21 UNL     1     -23.922   9.881 -11.978  1.00  0.00     0.207 C
HETATM   20  C22 UNL     1     -23.604   9.517 -13.382  1.00  0.00     0.189 C
HETATM   21  O6  UNL     1     -23.721  10.228 -14.400  1.00  0.00    -0.290 OA
HETATM   22  C24 UNL     1     -22.942   7.372 -14.362  1.00  0.00     0.028 C
BRANCH  14  23
HETATM   23  O3  UNL     1     -26.531   7.280 -11.690  1.00  0.00    -0.395 OA
ATOM     24  H3  UNL     1     -27.257   7.306 -12.301  1.00  0.00     0.210 HD
ENDBRANCH  14  23
BRANCH  16  25
HETATM   25  O4  UNL     1     -21.822   7.308 -11.409  1.00  0.00    -0.356 OA
HETATM   26  C20 UNL     1     -21.274   7.625 -10.234  1.00  0.00     0.206 C
ENDBRANCH  16  25
ENDBRANCH  12  13
BRANCH  11  27
HETATM   27  C11 UNL     1     -24.718  14.946  -8.609  1.00  0.00     0.038 C
BRANCH  27  28
HETATM   28  C12 UNL     1     -24.230  15.213  -7.256  1.00  0.00     0.118 C
BRANCH  28  29
HETATM   29  O2  UNL     1     -23.256  16.178  -7.104  1.00  0.00    -0.396 OA
ATOM     30  H2  UNL     1     -22.394  15.895  -6.823  1.00  0.00     0.210 HD
ENDBRANCH  28  29
BRANCH  28  31
HETATM   31  C13 UNL     1     -25.433  15.761  -6.452  1.00  0.00     0.027 C
HETATM   32  C14 UNL     1     -26.723  15.505  -7.163  1.00  0.00     0.007 C
ENDBRANCH  28  31
ENDBRANCH  27  28
ENDBRANCH  11  27
TORSDOF 7
ENDMDL