MODEL 1
REMARK VINA RESULT: -6.955695670      0.000      0.000
REMARK  9 active torsions:
REMARK  status: ('A' for Active; 'I' for Inactive)
REMARK    1  A    between atoms: C2_2  and  O1_3
REMARK    2  A    between atoms: O1_3  and  C3_4
REMARK    3  A    between atoms: C3_4  and  C4_6
REMARK    4  A    between atoms: C4_6  and  C5_7
REMARK    5  A    between atoms: C9_14  and  O3_15
REMARK    6  A    between atoms: O3_15  and  C10_16
REMARK    7  A    between atoms: C10_16  and  C11_18
REMARK    8  A    between atoms: C19_26  and  C20_27
REMARK    9  A    between atoms: C23_30  and  O5_31
ROOT
HETATM    1  C5  UNL     1     -18.171   4.696  -3.264  1.00  0.00     0.140 C
HETATM    2  C6  UNL     1     -16.701   4.640  -3.208  1.00  0.00     0.085 C
HETATM    3  C7  UNL     1     -16.067   5.620  -2.287  1.00  0.00    -0.006 C
HETATM    4  N1  UNL     1     -14.871   5.493  -1.875  1.00  0.00    -0.405 N
ATOM      5  H11 UNL     1     -14.436   6.166  -1.244  1.00  0.00     0.155 HD
ATOM      6  H12 UNL     1     -14.314   4.696  -2.180  1.00  0.00     0.155 HD
HETATM    7  C8  UNL     1     -16.868   6.766  -1.849  1.00  0.00     0.124 C
HETATM    8  C9  UNL     1     -16.229   8.098  -1.910  1.00  0.00     0.151 C
HETATM    9  C14 UNL     1     -17.310   9.087  -2.295  1.00  0.00     0.031 C
HETATM   10  C15 UNL     1     -17.676   9.956  -1.145  1.00  0.00     0.009 C
HETATM   11  C16 UNL     1     -19.149   9.791  -0.891  1.00  0.00     0.005 C
HETATM   12  C17 UNL     1     -19.377   8.399  -1.474  1.00  0.00    -0.004 C
HETATM   13  C18 UNL     1     -20.809   8.034  -1.550  1.00  0.00     0.011 C
HETATM   14  C19 UNL     1     -18.545   8.260  -2.677  1.00  0.00     0.029 C
HETATM   15  C23 UNL     1     -17.955   6.925  -2.925  1.00  0.00     0.182 C
HETATM   16  O6  UNL     1     -18.766   5.850  -2.808  1.00  0.00    -0.347 OA
ENDROOT
BRANCH   1  17
HETATM   17  C4  UNL     1     -18.691   4.374  -4.649  1.00  0.00     0.143 C
BRANCH  17  18
HETATM   18  C3  UNL     1     -19.540   3.159  -4.666  1.00  0.00     0.261 C
HETATM   19  O2  UNL     1     -18.972   2.057  -4.879  1.00  0.00    -0.265 OA
BRANCH  18  20
HETATM   20  O1  UNL     1     -20.897   3.142  -4.468  1.00  0.00    -0.322 OA
BRANCH  20  21
HETATM   21  C2  UNL     1     -21.747   4.261  -4.579  1.00  0.00     0.174 C
HETATM   22  C1  UNL     1     -22.094   4.877  -3.255  1.00  0.00     0.034 C
ENDBRANCH  20  21
ENDBRANCH  18  20
ENDBRANCH  17  18
ENDBRANCH   1  17
BRANCH  15  23
HETATM   23  O5  UNL     1     -17.307   6.953  -4.168  1.00  0.00    -0.364 OA
ATOM     24  H5  UNL     1     -17.633   7.712  -4.638  1.00  0.00     0.213 HD
ENDBRANCH  15  23
BRANCH  14  25
HETATM   25  C20 UNL     1     -19.059   8.816  -3.953  1.00  0.00    -0.008 C
HETATM   26  C21 UNL     1     -20.361   8.281  -4.443  1.00  0.00     0.010 C
HETATM   27  C22 UNL     1     -19.152  10.322  -4.014  1.00  0.00     0.010 C
ENDBRANCH  14  25
BRANCH   8  28
HETATM   28  O3  UNL     1     -15.690   8.392  -0.632  1.00  0.00    -0.314 OA
BRANCH  28  29
HETATM   29  C10 UNL     1     -14.389   8.731  -0.394  1.00  0.00     0.262 C
HETATM   30  O4  UNL     1     -13.495   8.191  -1.122  1.00  0.00    -0.265 OA
BRANCH  29  31
HETATM   31  C11 UNL     1     -14.035   9.702   0.680  1.00  0.00     0.077 C
HETATM   32  C12 UNL     1     -14.356  11.124   0.304  1.00  0.00     0.020 C
HETATM   33  C13 UNL     1     -12.580   9.509   1.011  1.00  0.00     0.020 C
ENDBRANCH  29  31
ENDBRANCH  28  29
ENDBRANCH   8  28
TORSDOF 9
ENDMDL