MODEL 4
REMARK VINA RESULT: -8.226903717      1.892      2.937
REMARK  7 active torsions:
REMARK  status: ('A' for Active; 'I' for Inactive)
REMARK    1  A    between atoms: C4_4  and  C5_5
REMARK    2  A    between atoms: C5_5  and  C6_7
REMARK    3  A    between atoms: C6_7  and  C7_8
REMARK    4  A    between atoms: C7_8  and  C8_9
REMARK    5  A    between atoms: C11_14  and  C12_15
REMARK    6  A    between atoms: C12_15  and  C13_16
REMARK    7  A    between atoms: C15_18  and  O4_19
ROOT
HETATM    1  C13 UNL     1     -18.106  11.715  -2.022  1.00  0.00     0.132 A
HETATM    2  C14 UNL     1     -19.537  12.003  -2.134  1.00  0.00     0.087 A
HETATM    3  C15 UNL     1     -18.805  12.213  -0.824  1.00  0.00     0.116 A
HETATM    4  C16 UNL     1     -18.589  13.622  -0.448  1.00  0.00     0.212 C
HETATM    5  O5  UNL     1     -17.533  14.276  -1.009  1.00  0.00    -0.349 OA
HETATM    6  C17 UNL     1     -16.309  13.670  -0.858  1.00  0.00     0.197 C
HETATM    7  C18 UNL     1     -16.120  13.231   0.574  1.00  0.00     0.071 C
HETATM    8  C19 UNL     1     -14.649  13.396   0.978  1.00  0.00     0.006 C
HETATM    9  C20 UNL     1     -13.822  12.835  -0.150  1.00  0.00     0.000 C
HETATM   10  C21 UNL     1     -13.922  13.830  -1.304  1.00  0.00     0.006 C
HETATM   11  C22 UNL     1     -15.207  14.656  -1.183  1.00  0.00     0.071 C
HETATM   12  O6  UNL     1     -16.159  12.613  -1.752  1.00  0.00    -0.200 OA
HETATM   13  O7  UNL     1     -17.195  12.639  -2.563  1.00  0.00    -0.223 OA
ENDROOT
BRANCH   1  14
HETATM   14  C12 UNL     1     -17.567  10.302  -2.028  1.00  0.00     0.049 C
BRANCH  14  15
HETATM   15  C11 UNL     1     -18.553   9.279  -2.465  1.00  0.00    -0.008 C
HETATM   16  C2  UNL     1     -18.701   8.244  -1.379  1.00  0.00    -0.014 C
HETATM   17  C1  UNL     1     -17.369   7.887  -0.754  1.00  0.00     0.010 C
HETATM   18  C3  UNL     1     -19.251   6.986  -2.017  1.00  0.00     0.016 C
HETATM   19  C4  UNL     1     -20.244   7.317  -3.121  1.00  0.00     0.056 C
HETATM   20  C9  UNL     1     -19.587   8.029  -4.268  1.00  0.00     0.013 C
HETATM   21  C10 UNL     1     -18.254   8.592  -3.754  1.00  0.00     0.006 C
BRANCH  19  22
HETATM   22  C5  UNL     1     -20.852   6.022  -3.540  1.00  0.00     0.131 C
HETATM   23  O1  UNL     1     -21.842   5.623  -2.949  1.00  0.00    -0.298 OA
BRANCH  22  24
HETATM   24  C6  UNL     1     -20.300   5.207  -4.643  1.00  0.00     0.089 C
BRANCH  24  25
HETATM   25  C7  UNL     1     -19.483   4.039  -4.178  1.00  0.00     0.120 C
BRANCH  25  26
HETATM   26  C8  UNL     1     -19.111   3.088  -5.221  1.00  0.00     0.172 C
HETATM   27  O2  UNL     1     -18.956   3.430  -6.397  1.00  0.00    -0.648 OA
HETATM   28  O3  UNL     1     -18.932   1.752  -4.850  1.00  0.00    -0.648 OA
ENDBRANCH  25  26
ENDBRANCH  24  25
ENDBRANCH  22  24
ENDBRANCH  19  22
ENDBRANCH  14  15
ENDBRANCH   1  14
BRANCH   3  29
HETATM   29  O4  UNL     1     -19.113  11.315   0.216  1.00  0.00    -0.384 OA
ATOM     30  H4  UNL     1     -19.331  10.416   0.004  1.00  0.00     0.210 HD
ENDBRANCH   3  29
TORSDOF 7
ENDMDL