MODEL 1
REMARK VINA RESULT: -7.692269043      0.000      0.000
REMARK  8 active torsions:
REMARK  status: ('A' for Active; 'I' for Inactive)
REMARK    1  A    between atoms: C2_2  and  C3_3
REMARK    2  A    between atoms: C3_3  and  N1_4
REMARK       I    between atoms: N1_4  and  C4_6
REMARK    3  A    between atoms: C4_6  and  C5_8
REMARK    4  A    between atoms: C5_8  and  C6_9
REMARK    5  A    between atoms: C8_12  and  O3_13
REMARK    6  A    between atoms: O3_13  and  C9_14
REMARK    7  A    between atoms: C9_14  and  C10_16
REMARK    8  A    between atoms: C11_17  and  O5_18
ROOT
HETATM    1  C10 UNL     1     -18.499   5.175  -5.719  1.00  0.00     0.130 C
HETATM    2  C11 UNL     1     -19.444   4.367  -5.348  1.00  0.00     0.152 C
HETATM    3  C12 UNL     1     -19.137   2.997  -5.058  1.00  0.00     0.124 C
HETATM    4  N2  UNL     1     -18.874   1.886  -4.816  1.00  0.00    -0.189 NA
ENDROOT
BRANCH   2   5
HETATM    5  O5  UNL     1     -20.741   4.875  -5.246  1.00  0.00    -0.351 OA
ATOM      6  H5  UNL     1     -21.085   5.050  -4.378  1.00  0.00     0.218 HD
ENDBRANCH   2   5
BRANCH   1   7
HETATM    7  C9  UNL     1     -18.726   6.594  -6.036  1.00  0.00     0.286 C
HETATM    8  O4  UNL     1     -19.446   6.915  -7.013  1.00  0.00    -0.260 OA
BRANCH   7   9
HETATM    9  O3  UNL     1     -18.191   7.619  -5.317  1.00  0.00    -0.310 OA
BRANCH   9  10
HETATM   10  C8  UNL     1     -18.677   8.078  -4.066  1.00  0.00     0.162 C
HETATM   11  C7  UNL     1     -18.003   9.453  -3.910  1.00  0.00     0.156 C
HETATM   12  O2  UNL     1     -16.875   9.253  -3.190  1.00  0.00    -0.376 OA
HETATM   13  C21 UNL     1     -18.874  10.424  -3.210  1.00  0.00     0.024 C
HETATM   14  C6  UNL     1     -16.642  10.405  -2.372  1.00  0.00     0.139 C
HETATM   15  C19 UNL     1     -17.996  10.868  -2.062  1.00  0.00    -0.012 C
HETATM   16  C18 UNL     1     -18.580  10.283  -0.796  1.00  0.00     0.012 C
HETATM   17  C20 UNL     1     -18.223  12.355  -1.915  1.00  0.00     0.018 C
HETATM   18  C17 UNL     1     -18.241   8.853  -0.519  1.00  0.00     0.001 C
HETATM   19  C16 UNL     1     -19.378   7.925  -0.792  1.00  0.00     0.004 C
HETATM   20  C14 UNL     1     -19.249   6.951  -1.871  1.00  0.00    -0.016 C
HETATM   21  C13 UNL     1     -18.257   7.143  -2.945  1.00  0.00     0.039 C
HETATM   22  C15 UNL     1     -20.652   6.746  -2.471  1.00  0.00     0.010 C
HETATM   23  C22 UNL     1     -19.347  11.527  -4.104  1.00  0.00     0.013 C
BRANCH  14  24
HETATM   24  C5  UNL     1     -15.724  11.222  -3.173  1.00  0.00     0.135 C
BRANCH  24  25
HETATM   25  C4  UNL     1     -14.480  10.667  -3.662  1.00  0.00     0.220 C
HETATM   26  N1  UNL     1     -13.745   9.785  -2.804  1.00  0.00    -0.361 N
ATOM     27  H1  UNL     1     -14.139   9.584  -1.885  1.00  0.00     0.162 HD
HETATM   28  O1  UNL     1     -14.011  10.911  -4.787  1.00  0.00    -0.274 OA
BRANCH  26  29
HETATM   29  C3  UNL     1     -12.498   9.163  -3.138  1.00  0.00     0.122 C
BRANCH  29  30
HETATM   30  C2  UNL     1     -12.452   7.783  -2.534  1.00  0.00     0.015 C
HETATM   31  C1  UNL     1     -13.809   7.397  -1.957  1.00  0.00     0.006 C
ENDBRANCH  29  30
ENDBRANCH  26  29
ENDBRANCH  24  25
ENDBRANCH  14  24
ENDBRANCH   9  10
ENDBRANCH   7   9
ENDBRANCH   1   7
TORSDOF 8
ENDMDL