MODEL 3
REMARK VINA RESULT: -7.756944487      2.625      5.309
REMARK  7 active torsions:
REMARK  status: ('A' for Active; 'I' for Inactive)
REMARK    1  A    between atoms: C2_3  and  C3_4
REMARK    2  A    between atoms: C3_4  and  C4_5
REMARK    3  A    between atoms: C4_5  and  C5_6
REMARK       I    between atoms: C5_6  and  N2_8
REMARK    4  A    between atoms: C8_11  and  C9_12
REMARK    5  A    between atoms: C9_12  and  N3_13
REMARK    6  A    between atoms: C15_19  and  N4_20
REMARK    7  A    between atoms: C16_21  and  O2_22
ROOT
HETATM    1  N1  UNL     1     -20.828   8.777  -3.863  1.00  0.00    -0.197 NA
HETATM    2  C1  UNL     1     -21.130   7.884  -3.177  1.00  0.00     0.059 C
HETATM    3  C2  UNL     1     -21.514   6.756  -2.327  1.00  0.00     0.124 C
ENDROOT
BRANCH   3   4
HETATM    4  C3  UNL     1     -21.814   5.524  -3.133  1.00  0.00     0.023 C
BRANCH   4   5
HETATM    5  C4  UNL     1     -20.719   5.073  -4.022  1.00  0.00     0.104 C
BRANCH   5   6
HETATM    6  C5  UNL     1     -19.656   4.292  -3.372  1.00  0.00     0.219 C
HETATM    7  O1  UNL     1     -19.986   3.143  -2.902  1.00  0.00    -0.273 OA
HETATM    8  N2  UNL     1     -18.339   4.771  -3.261  1.00  0.00    -0.352 N
HETATM    9  C6  UNL     1     -17.967   6.053  -3.780  1.00  0.00     0.126 C
HETATM   10  C21 UNL     1     -17.301   4.003  -2.624  1.00  0.00     0.126 C
HETATM   11  C7  UNL     1     -17.638   6.936  -2.610  1.00  0.00     0.030 C
HETATM   12  C8  UNL     1     -16.584   6.233  -1.752  1.00  0.00     0.027 C
HETATM   13  C20 UNL     1     -16.133   4.928  -2.252  1.00  0.00     0.030 C
BRANCH  12  14
HETATM   14  C9  UNL     1     -15.491   7.242  -1.514  1.00  0.00     0.064 C
BRANCH  14  15
HETATM   15  N3  UNL     1     -15.790   8.484  -0.978  1.00  0.00    -0.384 N
HETATM   16  C10 UNL     1     -15.672   8.841   0.365  1.00  0.00     0.086 C
HETATM   17  C11 UNL     1     -14.244   9.447   0.472  1.00  0.00     0.027 C
HETATM   18  C19 UNL     1     -16.678   9.962   0.651  1.00  0.00     0.051 C
HETATM   19  C12 UNL     1     -13.993   9.889  -0.929  1.00  0.00     0.027 C
HETATM   20  C13 UNL     1     -15.242   9.574  -1.733  1.00  0.00     0.086 C
HETATM   21  C14 UNL     1     -16.244  10.722  -1.635  1.00  0.00     0.051 C
HETATM   22  C15 UNL     1     -16.278  11.149  -0.174  1.00  0.00     0.098 C
BRANCH  22  23
HETATM   23  N4  UNL     1     -17.162  12.282   0.029  1.00  0.00    -0.298 N
HETATM   24  C16 UNL     1     -18.519  12.261   0.033  1.00  0.00     0.160 A
HETATM   25  C17 UNL     1     -19.006  13.532   0.263  1.00  0.00     0.146 A
HETATM   26  N5  UNL     1     -17.930  14.325   0.399  1.00  0.00    -0.339 N
HETATM   27  C18 UNL     1     -16.843  13.575   0.259  1.00  0.00     0.180 A
ATOM     28  H5  UNL     1     -17.945  15.328   0.579  1.00  0.00     0.167 HD
HETATM   29  S1  UNL     1     -15.307  14.127   0.351  1.00  0.00    -0.040 SA
BRANCH  24  30
HETATM   30  O2  UNL     1     -19.331  11.158  -0.160  1.00  0.00    -0.345 OA
ATOM     31  H2  UNL     1     -20.103  10.926   0.342  1.00  0.00     0.219 HD
ENDBRANCH  24  30
ENDBRANCH  22  23
ENDBRANCH  14  15
ENDBRANCH  12  14
ENDBRANCH   5   6
ENDBRANCH   4   5
ENDBRANCH   3   4
TORSDOF 7
ENDMDL