MODEL 3
REMARK VINA RESULT: -6.866916891      3.098      8.059
REMARK  9 active torsions:
REMARK  status: ('A' for Active; 'I' for Inactive)
REMARK    1  A    between atoms: C2_2  and  O2_4
REMARK    2  A    between atoms: O2_4  and  C3_5
REMARK    3  A    between atoms: C10_12  and  N1_13
REMARK    4  A    between atoms: N1_13  and  C11_16
REMARK    5  A    between atoms: C11_16  and  C12_17
REMARK    6  A    between atoms: C12_17  and  C13_18
REMARK    7  A    between atoms: C13_18  and  O3_19
REMARK    8  A    between atoms: C21_28  and  O4_29
REMARK    9  A    between atoms: O4_29  and  C22_30
ROOT
HETATM    1  C3  UNL     1     -18.090   4.933  -2.742  1.00  0.00     0.161 C
HETATM    2  C4  UNL     1     -17.427   5.638  -3.889  1.00  0.00     0.040 C
HETATM    3  C5  UNL     1     -17.003   7.032  -3.437  1.00  0.00    -0.003 C
HETATM    4  C6  UNL     1     -15.808   6.948  -2.557  1.00  0.00     0.010 C
HETATM    5  C7  UNL     1     -15.965   7.474  -1.184  1.00  0.00     0.035 C
HETATM    6  C8  UNL     1     -16.862   8.645  -1.074  1.00  0.00    -0.073 C
HETATM    7  C9  UNL     1     -16.861   9.313   0.067  1.00  0.00     0.009 C
HETATM    8  C10 UNL     1     -17.697  10.507   0.346  1.00  0.00     0.209 C
HETATM    9  C14 UNL     1     -18.316  11.014  -0.917  1.00  0.00     0.038 C
HETATM   10  C15 UNL     1     -18.909   9.792  -1.633  1.00  0.00     0.017 C
HETATM   11  C16 UNL     1     -17.715   9.044  -2.186  1.00  0.00    -0.013 C
HETATM   12  C17 UNL     1     -17.001  10.007  -3.123  1.00  0.00     0.021 C
HETATM   13  C18 UNL     1     -18.157   7.787  -2.909  1.00  0.00    -0.027 C
HETATM   14  C19 UNL     1     -18.996   8.263  -4.095  1.00  0.00     0.016 C
HETATM   15  C20 UNL     1     -19.069   7.026  -1.993  1.00  0.00     0.045 C
HETATM   16  C21 UNL     1     -19.428   5.651  -2.515  1.00  0.00     0.162 C
ENDROOT
BRANCH   8  17
HETATM   17  N1  UNL     1     -16.839  11.487   0.984  1.00  0.00    -0.068 N
ATOM     18  H12 UNL     1     -16.658  11.244   1.957  1.00  0.00     0.277 HD
ATOM     19  H11 UNL     1     -15.886  11.434   0.625  1.00  0.00     0.277 HD
BRANCH  17  20
HETATM   20  C11 UNL     1     -17.371  12.829   0.867  1.00  0.00     0.235 C
BRANCH  20  21
HETATM   21  C12 UNL     1     -16.251  13.721   0.375  1.00  0.00     0.053 C
BRANCH  21  22
HETATM   22  C13 UNL     1     -14.899  13.131   0.732  1.00  0.00     0.165 C
BRANCH  22  23
HETATM   23  O3  UNL     1     -14.631  13.354   2.075  1.00  0.00    -0.401 OA
ATOM     24  H3  UNL     1     -15.042  14.163   2.354  1.00  0.00     0.209 HD
ENDBRANCH  22  23
ENDBRANCH  21  22
ENDBRANCH  20  21
ENDBRANCH  17  20
ENDBRANCH   8  17
BRANCH  16  25
HETATM   25  O4  UNL     1     -20.024   5.770  -3.791  1.00  0.00    -0.314 OA
BRANCH  25  26
HETATM   26  C22 UNL     1     -20.896   4.874  -4.338  1.00  0.00     0.255 C
HETATM   27  C23 UNL     1     -22.205   4.528  -3.720  1.00  0.00     0.126 C
HETATM   28  O5  UNL     1     -20.588   4.309  -5.415  1.00  0.00    -0.266 OA
ENDBRANCH  25  26
ENDBRANCH  16  25
BRANCH   1  29
HETATM   29  O2  UNL     1     -18.355   3.590  -2.997  1.00  0.00    -0.314 OA
BRANCH  29  30
HETATM   30  C2  UNL     1     -17.746   2.532  -2.336  1.00  0.00     0.255 C
HETATM   31  C1  UNL     1     -16.497   2.703  -1.547  1.00  0.00     0.126 C
HETATM   32  O1  UNL     1     -18.299   1.406  -2.434  1.00  0.00    -0.266 OA
ENDBRANCH  29  30
ENDBRANCH   1  29
TORSDOF 9
ENDMDL