MODEL 4
REMARK VINA RESULT: -6.770154103      2.531      4.797
REMARK  7 active torsions:
REMARK  status: ('A' for Active; 'I' for Inactive)
REMARK    1  A    between atoms: O1_2  and  C2_3
REMARK    2  A    between atoms: C5_7  and  N1_8
REMARK    3  A    between atoms: N1_8  and  C6_10
REMARK    4  A    between atoms: C7_11  and  C8_12
REMARK    5  A    between atoms: C8_12  and  N2_14
REMARK    6  A    between atoms: N2_14  and  C10_16
REMARK    7  A    between atoms: C16_27  and  C17_28
ROOT
HETATM    1  C6  UNL     1      20.527  21.245 -18.713  1.00  0.00     0.061 A
HETATM    2  C7  UNL     1      21.780  21.253 -18.082  1.00  0.00     0.059 A
HETATM    3  C13 UNL     1      22.392  20.054 -17.884  1.00  0.00     0.257 A
HETATM    4  O2  UNL     1      23.511  19.974 -17.329  1.00  0.00    -0.267 OA
HETATM    5  N3  UNL     1      21.797  18.893 -18.291  1.00  0.00    -0.308 N
ATOM      6  H3  UNL     1      22.277  18.006 -18.133  1.00  0.00     0.170 HD
HETATM    7  C14 UNL     1      20.599  18.887 -18.894  1.00  0.00     0.121 A
HETATM    8  N4  UNL     1      19.815  17.902 -19.373  1.00  0.00    -0.351 N
ATOM      9  H4  UNL     1      20.056  16.911 -19.346  1.00  0.00     0.166 HD
HETATM   10  C15 UNL     1      18.693  18.383 -19.881  1.00  0.00     0.105 A
HETATM   11  C16 UNL     1      18.710  19.766 -19.745  1.00  0.00     0.033 A
HETATM   12  C18 UNL     1      19.899  20.074 -19.134  1.00  0.00     0.050 A
ENDROOT
BRANCH   1  13
HETATM   13  N1  UNL     1      19.933  22.485 -18.911  1.00  0.00    -0.352 N
ATOM     14  H1  UNL     1      19.901  22.854 -19.861  1.00  0.00     0.166 HD
BRANCH  13  15
HETATM   15  C5  UNL     1      19.367  23.268 -17.874  1.00  0.00     0.074 A
HETATM   16  C4  UNL     1      19.561  24.668 -17.895  1.00  0.00     0.145 A
HETATM   17  C3  UNL     1      19.076  25.465 -16.895  1.00  0.00     0.084 A
HETATM   18  F1  UNL     1      20.226  25.220 -18.922  1.00  0.00    -0.204 F
HETATM   19  C2  UNL     1      18.377  24.960 -15.819  1.00  0.00     0.109 A
HETATM   20  C20 UNL     1      18.185  23.597 -15.795  1.00  0.00     0.151 A
HETATM   21  C19 UNL     1      18.669  22.801 -16.792  1.00  0.00     0.077 A
HETATM   22  F2  UNL     1      17.487  23.075 -14.734  1.00  0.00    -0.203 F
BRANCH  19  23
HETATM   23  O1  UNL     1      17.887  25.782 -14.807  1.00  0.00    -0.353 OA
HETATM   24  C1  UNL     1      18.721  26.058 -13.710  1.00  0.00     0.210 C
ENDBRANCH  19  23
ENDBRANCH  13  15
ENDBRANCH   1  13
BRANCH   2  25
HETATM   25  C8  UNL     1      22.434  22.525 -17.693  1.00  0.00     0.114 C
HETATM   26  C9  UNL     1      22.715  22.635 -16.211  1.00  0.00     0.037 C
BRANCH  25  27
HETATM   27  N2  UNL     1      23.756  22.495 -18.311  1.00  0.00    -0.409 N
ATOM     28  H2  UNL     1      24.572  22.203 -17.772  1.00  0.00     0.154 HD
BRANCH  27  29
HETATM   29  C10 UNL     1      23.889  22.871 -19.654  1.00  0.00     0.077 A
HETATM   30  C11 UNL     1      24.291  24.152 -20.242  1.00  0.00     0.027 A
HETATM   31  C12 UNL     1      25.321  23.085 -20.112  1.00  0.00     0.027 A
ENDBRANCH  27  29
ENDBRANCH  25  27
ENDBRANCH   2  25
BRANCH  11  32
HETATM   32  C17 UNL     1      17.656  20.680 -20.090  1.00  0.00     0.272 C
HETATM   33  O3  UNL     1      16.908  21.236 -19.228  1.00  0.00    -0.301 OA
ENDBRANCH  11  32
TORSDOF 7
ENDMDL