MODEL 5
REMARK VINA RESULT: -6.030949249      3.174      3.714
REMARK  8 active torsions:
REMARK  status: ('A' for Active; 'I' for Inactive)
REMARK    1  A    between atoms: C2_2  and  C3_3
REMARK    2  A    between atoms: C3_3  and  N1_6
REMARK    3  A    between atoms: N1_6  and  C6_8
REMARK    4  A    between atoms: C7_9  and  O1_10
REMARK    5  A    between atoms: C8_12  and  C9_13
REMARK    6  A    between atoms: N2_14  and  N3_16
REMARK    7  A    between atoms: N3_16  and  C10_18
REMARK    8  A    between atoms: C13_24  and  O2_25
ROOT
HETATM    1  C6  UNL     1      19.319  22.085 -15.815  1.00  0.00     0.098 A
HETATM    2  C7  UNL     1      20.055  20.934 -16.203  1.00  0.00     0.106 A
HETATM    3  C8  UNL     1      20.575  20.741 -17.435  1.00  0.00     0.018 A
HETATM    4  C11 UNL     1      20.387  21.728 -18.409  1.00  0.00     0.038 A
HETATM    5  C12 UNL     1      19.684  22.849 -18.070  1.00  0.00     0.047 A
HETATM    6 BR1  UNL     1      19.439  24.183 -19.409  1.00  0.00    -0.048 Br
HETATM    7  C13 UNL     1      19.149  23.027 -16.770  1.00  0.00     0.114 A
ENDROOT
BRANCH   3   8
HETATM    8  C9  UNL     1      21.331  19.530 -17.792  1.00  0.00     0.121 C
HETATM    9  N2  UNL     1      22.503  19.357 -17.328  1.00  0.00    -0.309 N
ATOM     10  H2  UNL     1      22.921  20.054 -16.710  1.00  0.00     0.186 HD
BRANCH   9  11
HETATM   11  N3  UNL     1      23.211  18.202 -17.673  1.00  0.00    -0.279 N
ATOM     12  H3  UNL     1      22.809  17.527 -18.323  1.00  0.00     0.189 HD
BRANCH  11  13
HETATM   13  C10 UNL     1      24.495  17.978 -17.113  1.00  0.00     0.199 C
HETATM   14  N4  UNL     1      25.672  17.950 -17.937  1.00  0.00    -0.068 NA
HETATM   15  S1  UNL     1      24.609  17.751 -15.505  1.00  0.00    -0.043 SA
ENDBRANCH  11  13
ENDBRANCH   9  11
ENDBRANCH   3   8
BRANCH   2  16
HETATM   16  O1  UNL     1      20.235  19.977 -15.238  1.00  0.00    -0.357 OA
ATOM     17  H1  UNL     1      20.618  20.274 -14.420  1.00  0.00     0.217 HD
ENDBRANCH   2  16
BRANCH   1  18
HETATM   18  N1  UNL     1      18.903  22.151 -14.467  1.00  0.00    -0.377 N
ATOM     19  H1  UNL     1      18.025  21.670 -14.271  1.00  0.00     0.160 HD
BRANCH  18  20
HETATM   20  C3  UNL     1      19.497  22.766 -13.341  1.00  0.00     0.023 C
HETATM   21  C4  UNL     1      20.827  23.412 -13.546  1.00  0.00     0.038 C
HETATM   22  C5  UNL     1      19.652  21.776 -12.193  1.00  0.00     0.038 C
BRANCH  20  23
HETATM   23  C2  UNL     1      18.469  23.793 -12.812  1.00  0.00     0.025 C
HETATM   24  C1  UNL     1      19.136  25.033 -12.336  1.00  0.00     0.007 C
ENDBRANCH  20  23
ENDBRANCH  18  20
ENDBRANCH   1  18
BRANCH   7  25
HETATM   25  O2  UNL     1      18.472  24.196 -16.581  1.00  0.00    -0.352 OA
HETATM   26  C14 UNL     1      18.899  25.403 -16.059  1.00  0.00     0.210 C
ENDBRANCH   7  25
TORSDOF 8
ENDMDL