MODEL 1
REMARK VINA RESULT: -7.577070596      0.000      0.000
REMARK  9 active torsions:
REMARK  status: ('A' for Active; 'I' for Inactive)
REMARK    1  A    between atoms: C6_8  and  C7_9
REMARK    2  A    between atoms: C7_9  and  N2_10
REMARK    3  A    between atoms: C7_9  and  O3_23
REMARK    4  A    between atoms: N2_10  and  C8_12
REMARK    5  A    between atoms: C8_12  and  C9_13
REMARK    6  A    between atoms: C8_12  and  C10_20
REMARK    7  A    between atoms: C9_13  and  O1_14
REMARK    8  A    between atoms: N3_16  and  O2_18
REMARK    9  A    between atoms: O3_23  and  C13_24
ROOT
HETATM    1  C7  UNL     1      19.299  22.677 -17.894  1.00  0.00     0.254 C
ENDROOT
BRANCH   1   2
HETATM    2  C6  UNL     1      18.121  23.399 -18.406  1.00  0.00     0.018 A
HETATM    3  C5  UNL     1      17.035  22.830 -19.028  1.00  0.00     0.101 A
HETATM    4  N1  UNL     1      16.152  23.764 -19.374  1.00  0.00    -0.364 N
HETATM    5  C4  UNL     1      16.657  24.943 -18.978  1.00  0.00     0.043 A
ATOM      6  H1  UNL     1      15.262  23.613 -19.848  1.00  0.00     0.165 HD
HETATM    7  C3  UNL     1      16.122  26.205 -19.103  1.00  0.00     0.040 A
HETATM    8  C18 UNL     1      17.875  24.746 -18.376  1.00  0.00     0.005 A
HETATM    9  C2  UNL     1      16.794  27.309 -18.626  1.00  0.00    -0.021 A
HETATM   10  C1  UNL     1      16.199  28.684 -18.767  1.00  0.00     0.051 C
HETATM   11  C20 UNL     1      18.024  27.128 -18.016  1.00  0.00     0.123 A
HETATM   12  C19 UNL     1      18.544  25.856 -17.900  1.00  0.00     0.057 A
HETATM   13  F2  UNL     1      18.674  28.223 -17.553  1.00  0.00    -0.206 F
ENDBRANCH   1   2
BRANCH   1  14
HETATM   14  N2  UNL     1      19.593  22.885 -16.532  1.00  0.00    -0.381 N
ATOM     15  H2  UNL     1      19.076  23.598 -16.017  1.00  0.00     0.157 HD
BRANCH  14  16
HETATM   16  C8  UNL     1      20.566  22.146 -15.869  1.00  0.00     0.159 C
BRANCH  16  17
HETATM   17  C9  UNL     1      20.172  21.322 -14.713  1.00  0.00     0.158 C
HETATM   18  N3  UNL     1      19.925  21.737 -13.527  1.00  0.00    -0.249 N
ATOM     19  H3  UNL     1      19.998  22.735 -13.329  1.00  0.00     0.196 HD
BRANCH  17  20
HETATM   20  O1  UNL     1      20.062  19.955 -14.935  1.00  0.00    -0.347 OA
ATOM     21  H1  UNL     1      19.181  19.605 -14.995  1.00  0.00     0.219 HD
ENDBRANCH  17  20
BRANCH  18  22
HETATM   22  O2  UNL     1      19.565  20.886 -12.517  1.00  0.00    -0.288 OA
ATOM     23  H2  UNL     1      19.438  21.185 -11.625  1.00  0.00     0.244 HD
ENDBRANCH  18  22
ENDBRANCH  16  17
BRANCH  16  24
HETATM   24  C10 UNL     1      21.603  23.141 -15.310  1.00  0.00     0.008 C
HETATM   25  C11 UNL     1      22.851  23.084 -16.153  1.00  0.00     0.012 C
HETATM   26  C12 UNL     1      21.069  24.551 -15.368  1.00  0.00     0.012 C
ENDBRANCH  16  24
ENDBRANCH  14  16
ENDBRANCH   1  14
BRANCH   1  27
HETATM   27  O3  UNL     1      19.191  21.294 -18.058  1.00  0.00    -0.354 OA
BRANCH  27  28
HETATM   28  C13 UNL     1      19.672  20.815 -19.237  1.00  0.00     0.162 C
HETATM   29  C14 UNL     1      18.952  19.517 -19.549  1.00  0.00     0.061 C
HETATM   30  C15 UNL     1      19.877  18.362 -19.769  1.00  0.00     0.170 C
HETATM   31  O4  UNL     1      20.848  18.191 -18.819  1.00  0.00    -0.388 OA
HETATM   32  C16 UNL     1      21.289  19.331 -18.197  1.00  0.00     0.207 C
HETATM   33  C17 UNL     1      21.145  20.472 -19.212  1.00  0.00     0.222 C
HETATM   34  F1  UNL     1      21.941  21.487 -18.806  1.00  0.00    -0.244 F
ENDBRANCH  27  28
ENDBRANCH   1  27
TORSDOF 9
ENDMDL