MODEL 4
REMARK VINA RESULT: -7.945836153      5.504      7.763
REMARK  6 active torsions:
REMARK  status: ('A' for Active; 'I' for Inactive)
REMARK    1  A    between atoms: C2_2  and  C3_3
REMARK    2  A    between atoms: C5_12  and  C6_13
REMARK    3  A    between atoms: C10_20  and  C11_21
REMARK    4  A    between atoms: C14_28  and  O1_29
REMARK    5  A    between atoms: O1_29  and  C15_30
REMARK    6  A    between atoms: C15_30  and  C16_31
ROOT
HETATM    1  C6  UNL     1      17.651  25.071 -12.662  1.00  0.00     0.078 A
HETATM    2  N4  UNL     1      17.490  26.132 -13.469  1.00  0.00    -0.329 N
ATOM      3  H4  UNL     1      17.051  27.018 -13.219  1.00  0.00     0.168 HD
HETATM    4  C7  UNL     1      18.019  25.809 -14.681  1.00  0.00     0.201 A
HETATM    5  F1  UNL     1      18.038  26.637 -15.750  1.00  0.00    -0.185 F
HETATM    6  C8  UNL     1      18.526  24.543 -14.673  1.00  0.00     0.050 A
HETATM    7  C9  UNL     1      19.170  23.753 -15.632  1.00  0.00     0.032 A
HETATM    8  C10 UNL     1      19.598  22.485 -15.343  1.00  0.00    -0.005 A
HETATM    9  C19 UNL     1      19.356  22.041 -14.060  1.00  0.00     0.101 A
HETATM   10  N7  UNL     1      18.734  22.819 -13.161  1.00  0.00    -0.362 N
ATOM     11  H7  UNL     1      18.584  22.431 -12.230  1.00  0.00     0.165 HD
HETATM   12  C20 UNL     1      18.294  24.065 -13.386  1.00  0.00     0.075 A
ENDROOT
BRANCH   8  13
HETATM   13  C11 UNL     1      20.277  21.585 -16.264  1.00  0.00     0.029 A
HETATM   14  C12 UNL     1      21.598  21.272 -16.042  1.00  0.00     0.035 A
HETATM   15  C13 UNL     1      22.254  20.424 -16.902  1.00  0.00     0.108 A
HETATM   16  N5  UNL     1      21.598  19.906 -17.955  1.00  0.00    -0.310 N
HETATM   17  N6  UNL     1      20.331  20.212 -18.158  1.00  0.00    -0.280 N
ATOM     18  H5  UNL     1      22.080  19.277 -18.597  1.00  0.00     0.186 HD
HETATM   19  C14 UNL     1      19.643  21.031 -17.355  1.00  0.00     0.168 A
ATOM     20  H6  UNL     1      19.854  19.805 -18.963  1.00  0.00     0.189 HD
BRANCH  19  21
HETATM   21  O1  UNL     1      18.313  21.367 -17.549  1.00  0.00    -0.334 OA
BRANCH  21  22
HETATM   22  C15 UNL     1      17.831  22.097 -18.654  1.00  0.00     0.185 C
BRANCH  22  23
HETATM   23  C16 UNL     1      16.789  23.103 -18.297  1.00  0.00     0.047 A
HETATM   24  C17 UNL     1      16.806  24.417 -19.055  1.00  0.00     0.047 A
HETATM   25  C18 UNL     1      15.757  23.394 -19.362  1.00  0.00     0.176 A
HETATM   26  F2  UNL     1      14.463  23.683 -18.986  1.00  0.00    -0.249 F
ENDBRANCH  22  23
ENDBRANCH  21  22
ENDBRANCH  19  21
ENDBRANCH   8  13
BRANCH   1  27
HETATM   27  C5  UNL     1      17.292  24.977 -11.222  1.00  0.00     0.062 A
HETATM   28  C3  UNL     1      17.861  25.723 -10.189  1.00  0.00     0.042 A
HETATM   29  N1  UNL     1      17.187  25.333  -9.070  1.00  0.00    -0.302 N
HETATM   30  N2  UNL     1      16.288  24.448  -9.311  1.00  0.00    -0.285 N
ATOM     31  H1  UNL     1      17.376  25.705  -8.139  1.00  0.00     0.186 HD
HETATM   32  C4  UNL     1      16.317  24.195 -10.641  1.00  0.00     0.128 A
ATOM     33  H2  UNL     1      15.667  24.016  -8.628  1.00  0.00     0.188 HD
HETATM   34  N3  UNL     1      15.510  23.363 -11.186  1.00  0.00    -0.384 N
ATOM     35  H32 UNL     1      14.788  22.784 -10.755  1.00  0.00     0.157 HD
ATOM     36  H31 UNL     1      15.531  23.172 -12.188  1.00  0.00     0.157 HD
BRANCH  28  37
HETATM   37  C2  UNL     1      18.943  26.714 -10.209  1.00  0.00     0.055 C
HETATM   38  C1  UNL     1      18.472  28.122 -10.548  1.00  0.00     0.011 C
ENDBRANCH  28  37
ENDBRANCH   1  27
TORSDOF 6
ENDMDL