MODEL 4
REMARK VINA RESULT: -6.995330467      5.144      6.577
REMARK  8 active torsions:
REMARK  status: ('A' for Active; 'I' for Inactive)
REMARK    1  A    between atoms: O1_2  and  C2_3
REMARK    2  A    between atoms: C4_5  and  C5_6
REMARK    3  A    between atoms: N1_7  and  N2_9
REMARK    4  A    between atoms: N2_9  and  C6_11
REMARK    5  A    between atoms: C6_11  and  C8_21
REMARK    6  A    between atoms: N3_12  and  N4_14
REMARK       I    between atoms: N4_14  and  C7_16
REMARK    7  A    between atoms: C13_28  and  O2_29
REMARK    8  A    between atoms: O2_29  and  C14_30
ROOT
HETATM    1  C5  UNL     1      20.363  22.130 -16.008  1.00  0.00     0.119 C
HETATM    2  N1  UNL     1      19.505  21.344 -16.497  1.00  0.00    -0.310 N
ATOM      3  H1  UNL     1      18.782  21.005 -15.861  1.00  0.00     0.186 HD
ENDROOT
BRANCH   2   4
HETATM    4  N2  UNL     1      19.441  20.899 -17.794  1.00  0.00    -0.286 N
ATOM      5  H2  UNL     1      20.140  20.223 -18.104  1.00  0.00     0.188 HD
BRANCH   4   6
HETATM    6  C6  UNL     1      18.460  21.323 -18.731  1.00  0.00     0.150 C
HETATM    7  N3  UNL     1      17.575  20.566 -19.253  1.00  0.00    -0.283 N
ATOM      8  H3  UNL     1      16.911  20.966 -19.917  1.00  0.00     0.188 HD
BRANCH   7   9
HETATM    9  N4  UNL     1      17.487  19.208 -18.943  1.00  0.00    -0.272 N
HETATM   10  C7  UNL     1      17.842  18.155 -19.801  1.00  0.00     0.200 C
HETATM   11  N5  UNL     1      18.432  17.109 -19.363  1.00  0.00    -0.372 N
HETATM   12  N6  UNL     1      17.550  18.240 -21.178  1.00  0.00    -0.062 NA
ATOM     13  H52 UNL     1      18.644  17.048 -18.367  1.00  0.00     0.158 HD
ATOM     14  H51 UNL     1      18.690  16.344 -19.987  1.00  0.00     0.158 HD
ATOM     15  H4  UNL     1      17.136  18.961 -18.018  1.00  0.00     0.189 HD
ENDBRANCH   7   9
BRANCH   6  16
HETATM   16  C8  UNL     1      18.480  22.766 -19.122  1.00  0.00     0.170 C
HETATM   17  C9  UNL     1      17.701  22.892 -20.408  1.00  0.00     0.059 C
HETATM   18 CL1  UNL     1      17.616  23.718 -17.881  1.00  0.00    -0.093 Cl
HETATM   19 CL2  UNL     1      20.136  23.362 -19.305  1.00  0.00    -0.093 Cl
ENDBRANCH   6  16
ENDBRANCH   4   6
ENDBRANCH   2   4
BRANCH   1  20
HETATM   20  C4  UNL     1      20.337  22.538 -14.617  1.00  0.00    -0.011 A
HETATM   21  C3  UNL     1      19.114  22.962 -14.057  1.00  0.00     0.053 A
HETATM   22  C2  UNL     1      18.997  23.366 -12.749  1.00  0.00     0.102 A
HETATM   23  C13 UNL     1      20.064  23.386 -11.891  1.00  0.00     0.103 A
HETATM   24  C12 UNL     1      21.275  22.961 -12.465  1.00  0.00     0.047 A
HETATM   25  C10 UNL     1      21.408  22.556 -13.763  1.00  0.00    -0.048 A
HETATM   26  C11 UNL     1      22.746  22.116 -14.296  1.00  0.00     0.049 C
BRANCH  22  27
HETATM   27  O1  UNL     1      17.741  23.754 -12.339  1.00  0.00    -0.353 OA
HETATM   28  C1  UNL     1      17.087  24.915 -12.752  1.00  0.00     0.210 C
ENDBRANCH  22  27
BRANCH  23  29
HETATM   29  O2  UNL     1      20.014  23.771 -10.601  1.00  0.00    -0.344 OA
BRANCH  29  30
HETATM   30  C14 UNL     1      19.947  23.218  -9.378  1.00  0.00     0.121 C
HETATM   31  C15 UNL     1      20.799  23.925  -8.321  1.00  0.00     0.040 C
HETATM   32  C16 UNL     1      18.486  23.197  -8.869  1.00  0.00     0.040 C
ENDBRANCH  29  30
ENDBRANCH  23  29
ENDBRANCH   1  20
TORSDOF 8
ENDMDL