MODEL 3
REMARK VINA RESULT: -7.391953309      1.829      2.146
REMARK  7 active torsions:
REMARK  status: ('A' for Active; 'I' for Inactive)
REMARK    1  A    between atoms: C2_2  and  C3_3
REMARK    2  A    between atoms: C3_3  and  C4_4
REMARK    3  A    between atoms: C4_4  and  N1_5
REMARK    4  A    between atoms: N1_5  and  C5_7
REMARK    5  A    between atoms: C7_11  and  C8_12
REMARK    6  A    between atoms: C11_15  and  C12_16
REMARK    7  A    between atoms: C16_30  and  C17_31
ROOT
HETATM    1  C5  UNL     1      18.682  27.061 -12.671  1.00  0.00     0.130 A
HETATM    2  N2  UNL     1      19.513  27.241 -13.715  1.00  0.00    -0.350 N
ATOM      3  H2  UNL     1      19.917  28.157 -13.914  1.00  0.00     0.166 HD
HETATM    4  C6  UNL     1      19.790  26.181 -14.483  1.00  0.00     0.104 A
HETATM    5  C7  UNL     1      19.293  24.915 -14.293  1.00  0.00     0.022 A
HETATM    6  C15 UNL     1      18.430  24.723 -13.208  1.00  0.00     0.077 A
HETATM    7  N7  UNL     1      17.783  23.640 -12.740  1.00  0.00    -0.343 N
ATOM      8  H7  UNL     1      17.816  22.699 -13.132  1.00  0.00     0.167 HD
HETATM    9  C16 UNL     1      17.085  24.030 -11.655  1.00  0.00     0.085 A
HETATM   10  N8  UNL     1      17.306  25.351 -11.460  1.00  0.00    -0.341 N
ATOM     11  H8  UNL     1      16.903  25.912 -10.709  1.00  0.00     0.167 HD
HETATM   12  C20 UNL     1      18.139  25.810 -12.410  1.00  0.00     0.105 A
ENDROOT
BRANCH   5  13
HETATM   13  C8  UNL     1      19.617  23.795 -15.168  1.00  0.00     0.020 A
HETATM   14  C9  UNL     1      18.818  23.433 -16.235  1.00  0.00     0.017 A
HETATM   15  C10 UNL     1      19.126  22.380 -17.069  1.00  0.00     0.019 A
HETATM   16  C11 UNL     1      20.280  21.623 -16.862  1.00  0.00     0.052 A
HETATM   17  C13 UNL     1      21.075  21.978 -15.806  1.00  0.00     0.169 A
HETATM   18  F1  UNL     1      22.204  21.283 -15.556  1.00  0.00    -0.202 F
HETATM   19  C14 UNL     1      20.757  23.046 -14.965  1.00  0.00     0.167 A
HETATM   20  F2  UNL     1      21.577  23.365 -13.920  1.00  0.00    -0.202 F
BRANCH  16  21
HETATM   21  C12 UNL     1      20.584  20.512 -17.755  1.00  0.00     0.144 A
HETATM   22  N3  UNL     1      20.414  20.475 -19.086  1.00  0.00    -0.270 N
HETATM   23  N4  UNL     1      20.803  19.292 -19.549  1.00  0.00    -0.007 NA
ATOM     24  H3  UNL     1      20.043  21.237 -19.653  1.00  0.00     0.185 HD
HETATM   25  N5  UNL     1      21.223  18.570 -18.518  1.00  0.00    -0.007 NA
HETATM   26  N6  UNL     1      21.089  19.320 -17.414  1.00  0.00    -0.270 N
ATOM     27  H6  UNL     1      21.332  19.029 -16.467  1.00  0.00     0.185 HD
ENDBRANCH  16  21
ENDBRANCH   5  13
BRANCH   1  28
HETATM   28  N1  UNL     1      18.366  28.009 -11.891  1.00  0.00    -0.374 N
ATOM     29  H1  UNL     1      17.493  28.490 -12.106  1.00  0.00     0.161 HD
BRANCH  28  30
HETATM   30  C4  UNL     1      19.076  28.492 -10.749  1.00  0.00     0.121 C
BRANCH  30  31
HETATM   31  C3  UNL     1      18.198  28.627  -9.525  1.00  0.00     0.019 C
BRANCH  31  32
HETATM   32  C2  UNL     1      18.415  27.409  -8.666  1.00  0.00    -0.003 C
HETATM   33  C1  UNL     1      17.134  26.914  -8.071  1.00  0.00     0.005 C
ENDBRANCH  31  32
ENDBRANCH  30  31
ENDBRANCH  28  30
ENDBRANCH   1  28
BRANCH   9  34
HETATM   34  C17 UNL     1      16.235  23.150 -10.835  1.00  0.00     0.045 C
HETATM   35  C18 UNL     1      16.852  22.738  -9.536  1.00  0.00     0.017 C
HETATM   36  C19 UNL     1      14.913  23.869 -10.622  1.00  0.00     0.017 C
ENDBRANCH   9  34
TORSDOF 7
ENDMDL