MODEL 1
REMARK VINA RESULT: -7.933161771      0.000      0.000
REMARK  8 active torsions:
REMARK  status: ('A' for Active; 'I' for Inactive)
REMARK    1  A    between atoms: C3_3  and  C4_4
REMARK    2  A    between atoms: C4_4  and  C5_5
REMARK    3  A    between atoms: C5_5  and  C6_6
REMARK    4  A    between atoms: C6_6  and  C7_7
REMARK    5  A    between atoms: C10_13  and  C11_14
REMARK    6  A    between atoms: C16_19  and  C17_20
REMARK    7  A    between atoms: C19_24  and  N3_25
REMARK    8  A    between atoms: C20_28  and  O1_29
ROOT
HETATM    1  C1  UNL     1      15.200  20.530  -8.087  1.00  0.00     0.012 C
HETATM    2  C2  UNL     1      15.744  21.361  -8.767  1.00  0.00    -0.117 C
HETATM    3  C3  UNL     1      16.379  22.376  -9.576  1.00  0.00     0.093 C
ENDROOT
BRANCH   3   4
HETATM    4  C4  UNL     1      15.252  23.191 -10.290  1.00  0.00     0.012 C
BRANCH   4   5
HETATM    5  C5  UNL     1      15.919  24.258 -11.074  1.00  0.00     0.002 C
BRANCH   5   6
HETATM    6  C6  UNL     1      16.715  23.900 -12.274  1.00  0.00     0.017 C
BRANCH   6   7
HETATM    7  C7  UNL     1      17.861  24.814 -12.563  1.00  0.00     0.015 C
HETATM    8  C8  UNL     1      17.475  26.233 -12.885  1.00  0.00     0.023 C
HETATM    9  C9  UNL     1      18.483  25.030 -11.083  1.00  0.00     0.150 C
HETATM   10  N1  UNL     1      19.660  25.697 -11.572  1.00  0.00    -0.140 NA
HETATM   11  N2  UNL     1      20.091  24.899 -12.607  1.00  0.00    -0.306 N
HETATM   12  C10 UNL     1      19.034  24.335 -13.250  1.00  0.00     0.048 C
ATOM     13  H2  UNL     1      21.068  24.750 -12.857  1.00  0.00     0.182 HD
BRANCH  12  14
HETATM   14  C11 UNL     1      19.436  23.425 -14.342  1.00  0.00     0.063 A
HETATM   15  C12 UNL     1      18.994  23.470 -15.624  1.00  0.00    -0.032 A
HETATM   16  C13 UNL     1      18.329  24.635 -16.224  1.00  0.00     0.050 C
HETATM   17  C14 UNL     1      19.304  22.442 -16.535  1.00  0.00     0.001 A
HETATM   18  C15 UNL     1      18.730  22.651 -17.767  1.00  0.00     0.027 C
HETATM   19  C21 UNL     1      20.075  21.357 -16.153  1.00  0.00     0.081 A
HETATM   20  C16 UNL     1      19.209  22.169 -18.987  1.00  0.00     0.009 C
HETATM   21  C18 UNL     1      19.936  21.011 -19.166  1.00  0.00     0.044 C
HETATM   22  C19 UNL     1      20.294  20.044 -18.216  1.00  0.00     0.062 C
HETATM   23  C20 UNL     1      20.504  20.253 -16.884  1.00  0.00     0.119 C
HETATM   24  N4  UNL     1      20.517  21.311 -14.896  1.00  0.00    -0.320 N
HETATM   25  C22 UNL     1      20.212  22.286 -14.049  1.00  0.00     0.258 A
ATOM     26  H4  UNL     1      21.088  20.525 -14.585  1.00  0.00     0.169 HD
HETATM   27  O2  UNL     1      20.668  22.166 -12.882  1.00  0.00    -0.267 OA
BRANCH  20  28
HETATM   28  C17 UNL     1      18.889  22.986 -20.160  1.00  0.00     0.386 C
HETATM   29  F1  UNL     1      17.813  22.392 -20.836  1.00  0.00    -0.209 F
HETATM   30  F2  UNL     1      18.435  24.256 -19.810  1.00  0.00    -0.209 F
ENDBRANCH  20  28
BRANCH  22  31
HETATM   31  N3  UNL     1      20.425  18.882 -18.668  1.00  0.00    -0.397 N
ATOM     32  H32 UNL     1      20.396  18.746 -19.679  1.00  0.00     0.156 HD
ATOM     33  H31 UNL     1      20.553  18.157 -17.962  1.00  0.00     0.156 HD
ENDBRANCH  22  31
BRANCH  23  34
HETATM   34  O1  UNL     1      21.196  19.320 -16.156  1.00  0.00    -0.356 OA
ATOM     35  H1  UNL     1      20.719  18.662 -15.666  1.00  0.00     0.218 HD
ENDBRANCH  23  34
ENDBRANCH  12  14
ENDBRANCH   6   7
ENDBRANCH   5   6
ENDBRANCH   4   5
ENDBRANCH   3   4
TORSDOF 8
ENDMDL