MODEL 5
REMARK VINA RESULT: -7.341837600      0.964      1.300
REMARK  10 active torsions:
REMARK  status: ('A' for Active; 'I' for Inactive)
REMARK    1  A    between atoms: C2_2  and  C3_6
REMARK    2  A    between atoms: C3_6  and  C4_8
REMARK    3  A    between atoms: C5_9  and  C6_10
REMARK    4  A    between atoms: C10_14  and  N2_15
REMARK    5  A    between atoms: N2_15  and  C11_17
REMARK    6  A    between atoms: C12_18  and  N3_19
REMARK    7  A    between atoms: N3_19  and  C13_21
REMARK    8  A    between atoms: C13_21  and  C14_22
REMARK    9  A    between atoms: C13_21  and  C17_25
REMARK   10  A    between atoms: C17_25  and  O1_27
ROOT
HETATM    1  N2  UNL     1      21.795  22.299 -16.639  1.00  0.00    -0.351 N
ATOM      2  H2  UNL     1      22.571  22.896 -16.926  1.00  0.00     0.166 HD
ENDROOT
BRANCH   1   3
HETATM    3  C10 UNL     1      21.018  22.632 -15.502  1.00  0.00     0.036 A
HETATM    4  C9  UNL     1      20.559  23.908 -15.343  1.00  0.00     0.038 A
HETATM    5  C7  UNL     1      19.807  24.213 -14.234  1.00  0.00    -0.038 A
HETATM    6  C6  UNL     1      19.510  23.268 -13.287  1.00  0.00     0.062 A
HETATM    7  C8  UNL     1      19.295  25.611 -14.045  1.00  0.00     0.050 C
HETATM    8  C22 UNL     1      19.978  21.979 -13.453  1.00  0.00     0.137 A
HETATM    9  C21 UNL     1      20.722  21.684 -14.554  1.00  0.00     0.073 A
HETATM   10  F2  UNL     1      19.688  21.047 -12.522  1.00  0.00    -0.204 F
BRANCH   6  11
HETATM   11  C5  UNL     1      18.721  23.601 -12.127  1.00  0.00    -0.060 C
HETATM   12  C4  UNL     1      18.060  23.859 -11.159  1.00  0.00    -0.058 C
BRANCH  12  13
HETATM   13  C3  UNL     1      17.245  24.148  -9.967  1.00  0.00     0.293 C
HETATM   14  F1  UNL     1      16.903  25.493 -10.011  1.00  0.00    -0.230 F
BRANCH  13  15
HETATM   15  C2  UNL     1      16.053  23.288  -9.909  1.00  0.00     0.022 C
HETATM   16  C1  UNL     1      14.847  23.664 -10.683  1.00  0.00     0.066 C
HETATM   17  N1  UNL     1      16.053  22.233  -9.203  1.00  0.00    -0.403 N
ATOM     18  H12 UNL     1      15.226  21.638  -9.163  1.00  0.00     0.155 HD
ATOM     19  H11 UNL     1      16.883  21.975  -8.670  1.00  0.00     0.155 HD
ENDBRANCH  13  15
ENDBRANCH  12  13
ENDBRANCH   6  11
ENDBRANCH   1   3
BRANCH   1  20
HETATM   20  C11 UNL     1      21.478  21.108 -17.385  1.00  0.00     0.118 A
HETATM   21  C12 UNL     1      20.443  20.566 -18.100  1.00  0.00     0.114 A
HETATM   22  C19 UNL     1      21.189  19.444 -18.344  1.00  0.00     0.252 A
HETATM   23  O2  UNL     1      21.122  18.324 -18.936  1.00  0.00    -0.281 OA
HETATM   24  C20 UNL     1      22.226  19.989 -17.628  1.00  0.00     0.253 A
HETATM   25  O3  UNL     1      23.408  19.621 -17.309  1.00  0.00    -0.281 OA
BRANCH  21  26
HETATM   26  N3  UNL     1      19.147  20.971 -18.435  1.00  0.00    -0.377 N
ATOM     27  H3  UNL     1      18.434  20.242 -18.431  1.00  0.00     0.160 HD
BRANCH  26  28
HETATM   28  C13 UNL     1      18.699  22.298 -18.784  1.00  0.00     0.113 C
BRANCH  28  29
HETATM   29  C14 UNL     1      19.736  23.188 -19.333  1.00  0.00     0.003 C
HETATM   30  C15 UNL     1      19.664  24.630 -18.785  1.00  0.00     0.011 C
HETATM   31  C16 UNL     1      19.737  23.349 -20.844  1.00  0.00     0.011 C
ENDBRANCH  28  29
BRANCH  28  32
HETATM   32  C17 UNL     1      17.472  22.067 -19.637  1.00  0.00     0.137 C
HETATM   33  C18 UNL     1      16.261  22.861 -19.321  1.00  0.00     0.041 C
BRANCH  32  34
HETATM   34  O1  UNL     1      17.100  20.722 -19.293  1.00  0.00    -0.394 OA
ATOM     35  H1  UNL     1      16.169  20.802 -19.124  1.00  0.00     0.210 HD
ENDBRANCH  32  34
ENDBRANCH  28  32
ENDBRANCH  26  28
ENDBRANCH  21  26
ENDBRANCH   1  20
TORSDOF 10
ENDMDL