MODEL 3
REMARK VINA RESULT: -7.480918127      1.362      2.484
REMARK  8 active torsions:
REMARK  status: ('A' for Active; 'I' for Inactive)
REMARK    1  A    between atoms: C2_2  and  C3_3
REMARK    2  A    between atoms: C5_5  and  C6_6
REMARK    3  A    between atoms: C6_6  and  N1_7
REMARK    4  A    between atoms: C14_15  and  O1_16
REMARK    5  A    between atoms: N2_18  and  C15_19
REMARK    6  A    between atoms: C15_19  and  C16_20
REMARK    7  A    between atoms: C16_20  and  O2_21
REMARK    8  A    between atoms: C17_23  and  O3_24
ROOT
HETATM    1  N1  UNL     1      19.697  23.601 -14.346  1.00  0.00    -0.375 N
HETATM    2  C7  UNL     1      20.221  23.792 -15.652  1.00  0.00     0.122 C
HETATM    3  C8  UNL     1      21.604  24.415 -15.559  1.00  0.00     0.030 C
HETATM    4  C9  UNL     1      22.517  23.773 -14.584  1.00  0.00     0.003 C
HETATM    5  C10 UNL     1      22.510  22.302 -14.476  1.00  0.00     0.011 C
HETATM    6  C11 UNL     1      21.143  21.647 -14.341  1.00  0.00     0.046 C
HETATM    7  C12 UNL     1      20.728  21.434 -15.761  1.00  0.00     0.012 A
HETATM    8  C13 UNL     1      20.277  22.537 -16.436  1.00  0.00     0.027 A
HETATM    9  C14 UNL     1      20.075  22.169 -17.720  1.00  0.00     0.153 A
HETATM   10  N2  UNL     1      20.399  20.852 -17.850  1.00  0.00    -0.305 N
HETATM   11  C17 UNL     1      20.788  20.397 -16.659  1.00  0.00     0.151 A
HETATM   12  C18 UNL     1      20.133  22.499 -13.619  1.00  0.00     0.089 C
HETATM   13  C19 UNL     1      20.660  22.836 -12.222  1.00  0.00     0.033 C
ENDROOT
BRANCH   1  14
HETATM   14  C6  UNL     1      18.428  24.179 -14.173  1.00  0.00     0.101 C
BRANCH  14  15
HETATM   15  C5  UNL     1      17.962  24.402 -12.812  1.00  0.00     0.018 A
HETATM   16  C4  UNL     1      16.936  23.758 -12.207  1.00  0.00     0.026 A
HETATM   17  C3  UNL     1      16.444  24.170 -10.976  1.00  0.00    -0.019 A
HETATM   18  C22 UNL     1      16.981  25.257 -10.322  1.00  0.00     0.125 A
HETATM   19  C21 UNL     1      18.027  25.927 -10.907  1.00  0.00     0.086 A
HETATM   20  F2  UNL     1      16.448  25.642  -9.138  1.00  0.00    -0.205 F
HETATM   21  C20 UNL     1      18.487  25.505 -12.105  1.00  0.00     0.131 A
HETATM   22  F1  UNL     1      19.538  26.120 -12.689  1.00  0.00    -0.205 F
BRANCH  17  23
HETATM   23  C2  UNL     1      15.363  23.372 -10.318  1.00  0.00     0.037 C
HETATM   24  C1  UNL     1      16.060  22.251  -9.541  1.00  0.00     0.010 C
ENDBRANCH  17  23
ENDBRANCH  14  15
ENDBRANCH   1  14
BRANCH   9  25
HETATM   25  O1  UNL     1      19.618  22.994 -18.709  1.00  0.00    -0.345 OA
ATOM     26  H1  UNL     1      19.945  23.007 -19.600  1.00  0.00     0.219 HD
ENDBRANCH   9  25
BRANCH  11  27
HETATM   27  O3  UNL     1      21.194  19.101 -16.312  1.00  0.00    -0.345 OA
ATOM     28  H3  UNL     1      20.668  18.328 -16.479  1.00  0.00     0.219 HD
ENDBRANCH  11  27
BRANCH  10  29
HETATM   29  C15 UNL     1      20.562  20.229 -19.133  1.00  0.00     0.159 C
BRANCH  29  30
HETATM   30  C16 UNL     1      19.873  18.962 -19.418  1.00  0.00     0.184 C
BRANCH  30  31
HETATM   31  O2  UNL     1      20.415  17.797 -18.930  1.00  0.00    -0.399 OA
ATOM     32  H2  UNL     1      20.539  17.070 -19.528  1.00  0.00     0.209 HD
ENDBRANCH  30  31
ENDBRANCH  29  30
ENDBRANCH  10  29
TORSDOF 8
ENDMDL