MODEL 3
REMARK VINA RESULT: -7.270897143      2.364      5.296
REMARK  14 active torsions:
REMARK  status: ('A' for Active; 'I' for Inactive)
REMARK    1  A    between atoms: C2_2  and  C3_7
REMARK    2  A    between atoms: N1_3  and  O1_5
REMARK    3  A    between atoms: C3_7  and  O2_8
REMARK    4  A    between atoms: C3_7  and  C4_10
REMARK    5  A    between atoms: C4_10  and  N2_13
REMARK    6  A    between atoms: N2_13  and  C5_16
REMARK    7  A    between atoms: C10_21  and  C11_22
REMARK    8  A    between atoms: N3_24  and  C13_25
REMARK    9  A    between atoms: C13_25  and  C14_26
REMARK   10  A    between atoms: C15_27  and  C16_28
REMARK   11  A    between atoms: C16_28  and  O3_29
REMARK   12  A    between atoms: C17_33  and  O4_34
REMARK   13  A    between atoms: O4_34  and  C18_35
REMARK   14  A    between atoms: C18_35  and  C19_37
ROOT
HETATM    1  C5  UNL     1      41.411  21.071  24.614  1.00  0.00     0.194 C
HETATM    2  C6  UNL     1      41.920  21.246  26.027  1.00  0.00     0.039 C
HETATM    3  C7  UNL     1      40.956  22.198  26.724  1.00  0.00     0.001 C
HETATM    4  C8  UNL     1      39.974  21.369  27.546  1.00  0.00     0.007 C
HETATM    5  C9  UNL     1      38.869  22.104  26.854  1.00  0.00     0.015 C
HETATM    6  C10 UNL     1      39.859  22.488  25.774  1.00  0.00    -0.002 C
HETATM    7  C23 UNL     1      39.945  21.417  24.739  1.00  0.00     0.048 C
ENDROOT
BRANCH   6   8
HETATM    8  C11 UNL     1      39.701  23.862  25.261  1.00  0.00     0.021 A
HETATM    9  C12 UNL     1      39.324  24.210  23.976  1.00  0.00     0.122 A
HETATM   10  N3  UNL     1      39.287  25.551  23.862  1.00  0.00    -0.297 N
HETATM   11  N4  UNL     1      39.627  26.048  25.033  1.00  0.00    -0.277 N
HETATM   12  C17 UNL     1      39.890  25.047  25.923  1.00  0.00     0.174 A
ATOM     13  H4  UNL     1      39.686  27.044  25.246  1.00  0.00     0.189 HD
BRANCH  10  14
HETATM   14  C13 UNL     1      38.930  26.309  22.650  1.00  0.00     0.175 C
BRANCH  14  15
HETATM   15  C14 UNL     1      38.311  27.599  22.966  1.00  0.00    -0.007 C
HETATM   16  C15 UNL     1      37.858  28.373  22.008  1.00  0.00    -0.004 C
BRANCH  16  17
HETATM   17  C16 UNL     1      37.236  29.676  22.366  1.00  0.00     0.191 C
BRANCH  17  18
HETATM   18  O3  UNL     1      35.865  29.510  22.554  1.00  0.00    -0.397 OA
ATOM     19  H3  UNL     1      35.409  30.309  22.319  1.00  0.00     0.209 HD
ENDBRANCH  17  18
ENDBRANCH  16  17
ENDBRANCH  14  15
ENDBRANCH  10  14
BRANCH  12  20
HETATM   20  O4  UNL     1      40.268  25.278  27.223  1.00  0.00    -0.259 OA
BRANCH  20  21
HETATM   21  C18 UNL     1      39.502  25.780  28.235  1.00  0.00     0.273 C
HETATM   22  O5  UNL     1      38.869  26.831  28.030  1.00  0.00    -0.264 OA
BRANCH  21  23
HETATM   23  C19 UNL     1      39.405  25.122  29.548  1.00  0.00     0.037 C
HETATM   24  C20 UNL     1      38.110  24.355  29.687  1.00  0.00     0.025 C
HETATM   25  C21 UNL     1      39.460  26.149  30.677  1.00  0.00     0.025 C
HETATM   26  C22 UNL     1      40.539  24.154  29.795  1.00  0.00     0.025 C
ENDBRANCH  21  23
ENDBRANCH  20  21
ENDBRANCH  12  20
ENDBRANCH   6   8
BRANCH   1  27
HETATM   27  N2  UNL     1      41.679  19.745  24.169  1.00  0.00    -0.002 N
ATOM     28  H22 UNL     1      40.939  19.113  24.473  1.00  0.00     0.284 HD
ATOM     29  H21 UNL     1      42.468  19.352  24.682  1.00  0.00     0.284 HD
BRANCH  27  30
HETATM   30  C4  UNL     1      41.890  19.621  22.765  1.00  0.00     0.435 C
HETATM   31  F1  UNL     1      42.923  20.421  22.362  1.00  0.00    -0.172 F
HETATM   32  F2  UNL     1      40.787  19.939  21.994  1.00  0.00    -0.172 F
BRANCH  30  33
HETATM   33  C3  UNL     1      42.246  18.193  22.411  1.00  0.00     0.267 C
BRANCH  33  34
HETATM   34  C2  UNL     1      41.072  17.382  22.042  1.00  0.00     0.042 C
HETATM   35  C1  UNL     1      41.042  16.752  20.715  1.00  0.00     0.068 C
HETATM   36  N1  UNL     1      40.091  17.218  22.846  1.00  0.00    -0.275 N
ATOM     37  H1  UNL     1      40.108  17.653  23.768  1.00  0.00     0.193 HD
BRANCH  36  38
HETATM   38  O1  UNL     1      39.019  16.457  22.465  1.00  0.00    -0.290 OA
ATOM     39  H1  UNL     1      38.164  16.861  22.370  1.00  0.00     0.244 HD
ENDBRANCH  36  38
ENDBRANCH  33  34
BRANCH  33  40
HETATM   40  O2  UNL     1      43.002  17.623  23.433  1.00  0.00    -0.382 OA
ATOM     41  H2  UNL     1      43.506  18.262  23.922  1.00  0.00     0.210 HD
ENDBRANCH  33  40
ENDBRANCH  30  33
ENDBRANCH  27  30
ENDBRANCH   1  27
TORSDOF 14
ENDMDL