MODEL 1
REMARK VINA RESULT: -7.505916269      0.000      0.000
REMARK  10 active torsions:
REMARK  status: ('A' for Active; 'I' for Inactive)
REMARK    1  A    between atoms: C2_2  and  C3_3
REMARK    2  A    between atoms: C8_11  and  N2_12
REMARK    3  A    between atoms: C10_14  and  C11_15
REMARK    4  A    between atoms: C11_15  and  S1_16
REMARK    5  A    between atoms: S1_16  and  C12_17
REMARK    6  A    between atoms: C12_17  and  C13_18
REMARK    7  A    between atoms: C13_18  and  N3_19
REMARK    8  A    between atoms: C14_27  and  C15_28
REMARK    9  A    between atoms: C15_28  and  O1_29
REMARK   10  A    between atoms: C16_32  and  C17_33
ROOT
HETATM    1  C3  UNL     1      40.778  26.525  27.614  1.00  0.00     0.017 A
HETATM    2  N1  UNL     1      40.397  27.119  28.737  1.00  0.00    -0.349 N
ATOM      3  H1  UNL     1      40.641  28.076  28.995  1.00  0.00     0.166 HD
HETATM    4  C4  UNL     1      39.649  26.299  29.490  1.00  0.00     0.113 A
HETATM    5 CL1  UNL     1      38.950  26.730  31.017  1.00  0.00    -0.064 Cl
HETATM    6  C5  UNL     1      39.518  25.069  28.827  1.00  0.00     0.022 A
HETATM    7  C6  UNL     1      40.231  25.234  27.657  1.00  0.00    -0.021 A
HETATM    8  C7  UNL     1      40.507  24.361  26.475  1.00  0.00     0.071 C
HETATM    9  C8  UNL     1      39.710  23.087  26.557  1.00  0.00     0.144 C
HETATM   10  C14 UNL     1      40.014  22.496  27.918  1.00  0.00     0.171 C
HETATM   11  O2  UNL     1      38.997  22.694  28.778  1.00  0.00    -0.367 OA
HETATM   12  C16 UNL     1      38.765  23.921  29.331  1.00  0.00     0.196 C
ENDROOT
BRANCH   9  13
HETATM   13  N2  UNL     1      39.906  22.210  25.457  1.00  0.00    -0.280 N
HETATM   14  C9  UNL     1      41.005  21.995  24.701  1.00  0.00     0.139 A
HETATM   15  C10 UNL     1      40.704  21.050  23.750  1.00  0.00     0.053 A
HETATM   16  N4  UNL     1      39.429  20.705  23.941  1.00  0.00    -0.288 N
HETATM   17  N5  UNL     1      38.982  21.402  24.952  1.00  0.00    -0.240 N
ATOM     18  H4  UNL     1      38.900  20.023  23.398  1.00  0.00     0.188 HD
ATOM     19  H5  UNL     1      38.031  21.332  25.312  1.00  0.00     0.208 HD
BRANCH  15  20
HETATM   20  C11 UNL     1      41.544  20.455  22.679  1.00  0.00     0.134 C
BRANCH  20  21
HETATM   21  S1  UNL     1      41.901  18.722  23.159  1.00  0.00    -0.161 SA
BRANCH  21  22
HETATM   22  C12 UNL     1      41.300  17.596  21.855  1.00  0.00     0.101 C
BRANCH  22  23
HETATM   23  C13 UNL     1      39.807  17.775  21.769  1.00  0.00     0.239 C
BRANCH  23  24
HETATM   24  N3  UNL     1      39.107  16.688  22.433  1.00  0.00    -0.079 N
ATOM     25  H33 UNL     1      38.742  16.012  21.762  1.00  0.00     0.274 HD
ATOM     26  H32 UNL     1      39.754  16.077  22.933  1.00  0.00     0.274 HD
ATOM     27  H31 UNL     1      38.374  17.042  23.048  1.00  0.00     0.274 HD
ENDBRANCH  23  24
ENDBRANCH  22  23
ENDBRANCH  21  22
ENDBRANCH  20  21
ENDBRANCH  15  20
ENDBRANCH   9  13
BRANCH  10  28
HETATM   28  C15 UNL     1      40.363  21.005  27.764  1.00  0.00     0.198 C
BRANCH  28  29
HETATM   29  O1  UNL     1      40.705  20.451  28.981  1.00  0.00    -0.398 OA
ATOM     30  H1  UNL     1      40.309  19.594  29.086  1.00  0.00     0.209 HD
ENDBRANCH  28  29
ENDBRANCH  10  28
BRANCH   1  31
HETATM   31  C2  UNL     1      41.615  27.108  26.528  1.00  0.00     0.053 C
HETATM   32  C1  UNL     1      40.850  28.031  25.632  1.00  0.00     0.011 C
ENDBRANCH   1  31
BRANCH  12  33
HETATM   33  C17 UNL     1      38.689  23.794  30.815  1.00  0.00     0.022 A
HETATM   34  C18 UNL     1      39.747  23.597  31.684  1.00  0.00     0.033 A
HETATM   35  C19 UNL     1      41.208  23.524  31.377  1.00  0.00     0.070 C
HETATM   36  N6  UNL     1      39.173  23.486  32.912  1.00  0.00    -0.304 N
HETATM   37  N7  UNL     1      37.863  23.603  32.825  1.00  0.00    -0.304 N
ATOM     38  H6  UNL     1      39.686  23.333  33.780  1.00  0.00     0.186 HD
HETATM   39  C20 UNL     1      37.532  23.796  31.534  1.00  0.00     0.033 A
ATOM     40  H7  UNL     1      37.208  23.556  33.605  1.00  0.00     0.186 HD
HETATM   41  C21 UNL     1      36.112  23.970  31.066  1.00  0.00     0.070 C
ENDBRANCH  12  33
TORSDOF 10
ENDMDL