MODEL 1
REMARK VINA RESULT: -7.186239328      0.000      0.000
REMARK  9 active torsions:
REMARK  status: ('A' for Active; 'I' for Inactive)
REMARK    1  A    between atoms: C2_2  and  C3_3
REMARK    2  A    between atoms: C3_3  and  N1_4
REMARK    3  A    between atoms: N1_4  and  C4_6
REMARK    4  A    between atoms: C4_6  and  O1_7
REMARK    5  A    between atoms: C4_6  and  C5_9
REMARK    6  A    between atoms: C6_12  and  S1_13
REMARK    7  A    between atoms: S1_13  and  C7_14
REMARK    8  A    between atoms: C8_17  and  N4_18
REMARK    9  A    between atoms: N6_29  and  C15_30
ROOT
HETATM    1  C7  UNL     1      43.395  22.152  22.198  1.00  0.00     0.161 A
HETATM    2  N3  UNL     1      42.676  21.088  21.821  1.00  0.00    -0.320 N
ATOM      3  H3  UNL     1      42.629  20.832  20.834  1.00  0.00     0.169 HD
HETATM    4  C8  UNL     1      42.011  20.352  22.738  1.00  0.00     0.150 A
HETATM    5  C13 UNL     1      42.073  20.694  24.066  1.00  0.00     0.228 A
HETATM    6  F1  UNL     1      41.447  20.022  25.058  1.00  0.00    -0.196 F
HETATM    7  C14 UNL     1      42.823  21.794  24.427  1.00  0.00     0.296 A
HETATM    8  O2  UNL     1      42.906  22.141  25.642  1.00  0.00    -0.264 OA
HETATM    9  N6  UNL     1      43.466  22.506  23.519  1.00  0.00    -0.263 N
ENDROOT
BRANCH   1  10
HETATM   10  S1  UNL     1      44.240  23.028  20.907  1.00  0.00    -0.035 SA
BRANCH  10  11
HETATM   11  C6  UNL     1      45.907  22.451  20.684  1.00  0.00     0.080 A
HETATM   12  N2  UNL     1      46.276  21.676  19.651  1.00  0.00    -0.348 N
HETATM   13  C5  UNL     1      47.578  21.372  19.696  1.00  0.00     0.097 A
ATOM     14  H2  UNL     1      45.640  21.358  18.920  1.00  0.00     0.166 HD
HETATM   15  C22 UNL     1      48.084  21.980  20.823  1.00  0.00     0.146 A
HETATM   16  C21 UNL     1      47.037  22.646  21.425  1.00  0.00     0.081 A
HETATM   17  F2  UNL     1      49.370  21.908  21.214  1.00  0.00    -0.204 F
BRANCH  13  18
HETATM   18  C4  UNL     1      48.346  20.528  18.704  1.00  0.00     0.268 C
BRANCH  18  19
HETATM   19  N1  UNL     1      48.143  20.943  17.376  1.00  0.00    -0.392 N
ATOM     20  H1  UNL     1      48.150  21.929  17.114  1.00  0.00     0.156 HD
BRANCH  19  21
HETATM   21  C3  UNL     1      47.926  19.912  16.412  1.00  0.00     0.116 C
BRANCH  21  22
HETATM   22  C2  UNL     1      49.133  19.677  15.558  1.00  0.00     0.015 C
HETATM   23  C1  UNL     1      49.797  18.376  15.960  1.00  0.00     0.006 C
ENDBRANCH  21  22
ENDBRANCH  19  21
ENDBRANCH  18  19
BRANCH  18  24
HETATM   24  O1  UNL     1      48.184  19.207  19.009  1.00  0.00    -0.371 OA
ATOM     25  H1  UNL     1      48.956  18.686  19.200  1.00  0.00     0.212 HD
ENDBRANCH  18  24
ENDBRANCH  13  18
ENDBRANCH  10  11
ENDBRANCH   1  10
BRANCH   9  26
HETATM   26  C15 UNL     1      44.267  23.676  23.765  1.00  0.00    -0.000 C
HETATM   27  C16 UNL     1      45.469  23.600  24.575  1.00  0.00     0.053 C
HETATM   28  C17 UNL     1      45.451  24.045  25.999  1.00  0.00     0.006 C
HETATM   29  C18 UNL     1      45.070  25.544  25.941  1.00  0.00     0.001 C
HETATM   30  C19 UNL     1      43.603  25.443  25.495  1.00  0.00     0.006 C
HETATM   31  C20 UNL     1      43.455  24.878  24.129  1.00  0.00     0.053 C
ENDBRANCH   9  26
BRANCH   4  32
HETATM   32  N4  UNL     1      41.240  19.223  22.352  1.00  0.00    -0.361 N
HETATM   33  C9  UNL     1      41.732  17.865  22.363  1.00  0.00     0.143 C
HETATM   34  C10 UNL     1      41.069  17.010  21.312  1.00  0.00     0.133 C
HETATM   35  N5  UNL     1      39.650  17.136  21.262  1.00  0.00    -0.418 N
HETATM   36  C11 UNL     1      39.089  18.177  22.064  1.00  0.00     0.133 C
ATOM     37  H5  UNL     1      39.071  16.521  20.690  1.00  0.00     0.153 HD
HETATM   38  C12 UNL     1      39.879  19.457  21.920  1.00  0.00     0.143 C
ENDBRANCH   4  32
TORSDOF 9
ENDMDL