MODEL 5
REMARK VINA RESULT: -6.715711409      1.880      2.345
REMARK  11 active torsions:
REMARK  status: ('A' for Active; 'I' for Inactive)
REMARK    1  A    between atoms: C2_2  and  C3_3
REMARK    2  A    between atoms: C5_8  and  C6_9
REMARK    3  A    between atoms: N2_11  and  N3_13
REMARK       I    between atoms: N3_13  and  C8_15
REMARK    4  A    between atoms: C8_15  and  C9_17
REMARK    5  A    between atoms: C9_17  and  N4_18
REMARK    6  A    between atoms: N4_18  and  C10_19
REMARK    7  A    between atoms: N4_18  and  C12_21
REMARK    8  A    between atoms: C14_23  and  O2_24
REMARK    9  A    between atoms: C15_26  and  N5_27
REMARK   10  A    between atoms: N5_27  and  C16_29
REMARK   11  A    between atoms: C16_29  and  C17_33
ROOT
HETATM    1  C3  UNL     1      45.742  23.392  23.866  1.00  0.00    -0.006 A
HETATM    2  S1  UNL     1      44.953  23.689  25.344  1.00  0.00    -0.075 SA
HETATM    3  C4  UNL     1      43.448  22.892  25.489  1.00  0.00     0.091 A
HETATM    4  N1  UNL     1      42.678  22.987  26.585  1.00  0.00    -0.346 N
ATOM      5  H1  UNL     1      43.009  23.571  27.353  1.00  0.00     0.167 HD
HETATM    6  C5  UNL     1      41.487  22.353  26.733  1.00  0.00     0.092 A
HETATM    7  C14 UNL     1      41.066  21.583  25.700  1.00  0.00     0.122 A
HETATM    8  C15 UNL     1      41.828  21.459  24.553  1.00  0.00     0.086 A
HETATM    9  C18 UNL     1      43.034  22.108  24.423  1.00  0.00     0.078 A
HETATM   10  C19 UNL     1      43.822  21.988  23.299  1.00  0.00     0.194 A
HETATM   11  O3  UNL     1      43.361  21.241  22.369  1.00  0.00    -0.287 OA
HETATM   12  C20 UNL     1      45.022  22.550  23.036  1.00  0.00     0.002 A
HETATM   13  C21 UNL     1      45.717  22.278  21.715  1.00  0.00     0.054 C
ENDROOT
BRANCH   6  14
HETATM   14  C6  UNL     1      40.726  22.535  27.977  1.00  0.00     0.051 C
HETATM   15  C7  UNL     1      41.068  21.764  29.177  1.00  0.00     0.072 C
HETATM   16  N2  UNL     1      39.750  23.377  27.993  1.00  0.00    -0.300 N
ATOM     17  H2  UNL     1      39.572  23.869  27.117  1.00  0.00     0.186 HD
BRANCH  16  18
HETATM   18  N3  UNL     1      38.919  23.694  29.041  1.00  0.00    -0.268 N
HETATM   19  C8  UNL     1      39.294  24.721  29.984  1.00  0.00     0.264 C
HETATM   20  O1  UNL     1      40.387  25.287  29.800  1.00  0.00    -0.270 OA
ATOM     21  H3  UNL     1      38.033  23.202  29.154  1.00  0.00     0.190 HD
BRANCH  19  22
HETATM   22  C9  UNL     1      38.397  25.048  31.088  1.00  0.00     0.376 C
BRANCH  22  23
HETATM   23  N4  UNL     1      38.423  24.217  32.245  1.00  0.00     0.096 N
BRANCH  23  24
HETATM   24  C10 UNL     1      37.524  23.057  32.056  1.00  0.00     0.268 C
HETATM   25  C11 UNL     1      36.200  23.471  31.520  1.00  0.00     0.037 C
ENDBRANCH  23  24
BRANCH  23  26
HETATM   26  C12 UNL     1      39.716  23.566  32.466  1.00  0.00     0.268 C
HETATM   27  C13 UNL     1      40.225  23.692  33.863  1.00  0.00     0.037 C
ENDBRANCH  23  26
ENDBRANCH  22  23
ENDBRANCH  19  22
ENDBRANCH  16  18
ENDBRANCH   6  14
BRANCH   7  28
HETATM   28  O2  UNL     1      39.835  20.889  25.787  1.00  0.00    -0.356 OA
ATOM     29  H2  UNL     1      39.100  21.152  25.245  1.00  0.00     0.218 HD
ENDBRANCH   7  28
BRANCH   8  30
HETATM   30  N5  UNL     1      41.304  20.636  23.510  1.00  0.00    -0.336 N
ATOM     31  H5  UNL     1      41.836  19.795  23.288  1.00  0.00     0.167 HD
BRANCH  30  32
HETATM   32  C16 UNL     1      40.146  20.849  22.757  1.00  0.00     0.184 C
HETATM   33  N6  UNL     1      39.216  19.922  22.874  1.00  0.00    -0.382 N
ATOM     34  H62 UNL     1      39.446  19.151  23.500  1.00  0.00     0.157 HD
ATOM     35  H61 UNL     1      38.370  20.078  22.324  1.00  0.00     0.157 HD
BRANCH  32  36
HETATM   36  C17 UNL     1      39.814  21.958  21.857  1.00  0.00     0.448 C
HETATM   37  F1  UNL     1      39.171  21.438  20.714  1.00  0.00    -0.163 F
HETATM   38  F2  UNL     1      40.882  22.655  21.354  1.00  0.00    -0.163 F
HETATM   39  F3  UNL     1      38.848  22.825  22.378  1.00  0.00    -0.163 F
ENDBRANCH  32  36
ENDBRANCH  30  32
ENDBRANCH   8  30
BRANCH   1  40
HETATM   40  C2  UNL     1      47.056  23.968  23.503  1.00  0.00     0.042 C
HETATM   41  C1  UNL     1      47.018  25.454  23.720  1.00  0.00     0.010 C
ENDBRANCH   1  40
TORSDOF 11
ENDMDL