MODEL 3
REMARK VINA RESULT: -7.499224909      2.924      5.487
REMARK  10 active torsions:
REMARK  status: ('A' for Active; 'I' for Inactive)
REMARK    1  A    between atoms: O1_2  and  C2_3
REMARK    2  A    between atoms: C4_5  and  O2_6
REMARK    3  A    between atoms: C7_10  and  C8_11
REMARK    4  A    between atoms: C9_12  and  C10_13
REMARK    5  A    between atoms: C10_13  and  O3_14
REMARK    6  A    between atoms: C10_13  and  N1_16
REMARK    7  A    between atoms: N1_16  and  C11_18
REMARK    8  A    between atoms: C11_18  and  C12_19
REMARK    9  A    between atoms: C12_19  and  O4_21
REMARK   10  A    between atoms: C18_32  and  C19_33
ROOT
HETATM    1  C8  UNL     1      40.707  22.523  24.722  1.00  0.00     0.018 A
HETATM    2  C9  UNL     1      39.812  22.466  25.808  1.00  0.00     0.070 A
HETATM    3  N2  UNL     1      39.329  23.612  26.319  1.00  0.00    -0.363 N
ATOM      4  H2  UNL     1      38.685  23.547  27.107  1.00  0.00     0.165 HD
HETATM    5  C14 UNL     1      39.629  24.796  25.876  1.00  0.00     0.118 A
HETATM    6  C15 UNL     1      40.499  24.925  24.819  1.00  0.00     0.059 A
HETATM    7  N3  UNL     1      40.735  26.170  24.340  1.00  0.00    -0.361 N
ATOM      8  H3  UNL     1      40.303  26.969  24.803  1.00  0.00     0.165 HD
HETATM    9  C16 UNL     1      41.512  26.378  23.288  1.00  0.00     0.131 A
HETATM   10  C17 UNL     1      42.080  25.274  22.706  1.00  0.00     0.139 A
HETATM   11  F2  UNL     1      42.845  25.483  21.641  1.00  0.00    -0.204 F
HETATM   12  C18 UNL     1      41.885  23.960  23.152  1.00  0.00    -0.000 A
HETATM   13  C24 UNL     1      41.058  23.752  24.233  1.00  0.00     0.015 A
ENDROOT
BRANCH   1  14
HETATM   14  C7  UNL     1      40.932  21.285  24.034  1.00  0.00     0.021 A
HETATM   15  C6  UNL     1      42.134  20.653  24.334  1.00  0.00     0.161 A
HETATM   16  C4  UNL     1      42.601  19.498  23.681  1.00  0.00     0.110 A
HETATM   17  F1  UNL     1      42.996  21.142  25.286  1.00  0.00    -0.202 F
HETATM   18  C3  UNL     1      41.791  18.989  22.686  1.00  0.00     0.076 A
HETATM   19  C2  UNL     1      40.604  19.580  22.356  1.00  0.00     0.071 A
HETATM   20  C25 UNL     1      40.209  20.709  23.038  1.00  0.00     0.052 A
BRANCH  16  21
HETATM   21  O2  UNL     1      43.766  18.938  24.020  1.00  0.00    -0.353 OA
HETATM   22  C5  UNL     1      44.379  18.162  24.912  1.00  0.00     0.210 C
ENDBRANCH  16  21
BRANCH  19  23
HETATM   23  O1  UNL     1      39.801  19.062  21.355  1.00  0.00    -0.356 OA
HETATM   24  C1  UNL     1      39.525  17.713  21.115  1.00  0.00     0.210 C
ENDBRANCH  19  23
ENDBRANCH   1  14
BRANCH   2  25
HETATM   25  C10 UNL     1      39.364  21.210  26.387  1.00  0.00     0.269 C
BRANCH  25  26
HETATM   26  O3  UNL     1      38.024  21.207  26.864  1.00  0.00    -0.371 OA
ATOM     27  H3  UNL     1      37.736  20.391  27.255  1.00  0.00     0.212 HD
ENDBRANCH  25  26
BRANCH  25  28
HETATM   28  N1  UNL     1      40.116  20.825  27.507  1.00  0.00    -0.369 N
ATOM     29  H1  UNL     1      39.876  19.928  27.932  1.00  0.00     0.161 HD
BRANCH  28  30
HETATM   30  C11 UNL     1      41.141  21.527  28.094  1.00  0.00     0.089 C
BRANCH  30  31
HETATM   31  C12 UNL     1      40.813  22.022  29.482  1.00  0.00     0.152 C
HETATM   32  C13 UNL     1      40.520  23.500  29.452  1.00  0.00     0.045 C
BRANCH  31  33
HETATM   33  O4  UNL     1      41.868  21.798  30.339  1.00  0.00    -0.391 OA
ATOM     34  H4  UNL     1      41.555  21.662  31.226  1.00  0.00     0.210 HD
ENDBRANCH  31  33
ENDBRANCH  30  31
ENDBRANCH  28  30
ENDBRANCH  25  28
ENDBRANCH   2  25
BRANCH  12  35
HETATM   35  C19 UNL     1      42.690  22.925  22.568  1.00  0.00     0.026 C
HETATM   36  C20 UNL     1      44.080  23.430  23.273  1.00  0.00     0.028 C
HETATM   37  C21 UNL     1      45.177  22.475  22.939  1.00  0.00     0.114 C
HETATM   38  N4  UNL     1      45.272  22.045  21.587  1.00  0.00    -0.421 N
HETATM   39  C22 UNL     1      44.003  21.719  20.957  1.00  0.00     0.114 C
ATOM     40  H4  UNL     1      46.163  21.970  21.096  1.00  0.00     0.153 HD
HETATM   41  C23 UNL     1      43.151  23.029  21.139  1.00  0.00     0.028 C
ENDBRANCH  12  35
TORSDOF 10
ENDMDL