MODEL 2
REMARK VINA RESULT: -7.441080163      2.219      6.796
REMARK  12 active torsions:
REMARK  status: ('A' for Active; 'I' for Inactive)
REMARK    1  A    between atoms: C2_2  and  N1_4
REMARK       I    between atoms: N1_4  and  C4_6
REMARK    2  A    between atoms: C4_6  and  C5_8
REMARK    3  A    between atoms: C5_8  and  C6_9
REMARK    4  A    between atoms: C6_9  and  N2_10
REMARK    5  A    between atoms: C7_11  and  O2_12
REMARK    6  A    between atoms: C10_16  and  O3_17
REMARK    7  A    between atoms: C11_19  and  C13_21
REMARK    8  A    between atoms: C13_21  and  O5_23
REMARK    9  A    between atoms: O5_23  and  C14_24
REMARK   10  A    between atoms: C14_24  and  C15_25
REMARK   11  A    between atoms: C15_25  and  C16_26
REMARK   12  A    between atoms: N3_36  and  O6_37
ROOT
HETATM    1  N2  UNL     1      40.985  21.553  27.633  1.00  0.00    -0.306 N
HETATM    2  C7  UNL     1      40.090  21.337  26.664  1.00  0.00     0.174 A
HETATM    3  C8  UNL     1      40.713  21.295  25.412  1.00  0.00     0.120 A
HETATM    4  C9  UNL     1      42.050  21.499  25.673  1.00  0.00     0.047 A
HETATM    5  C10 UNL     1      42.186  21.653  27.027  1.00  0.00     0.154 A
HETATM    6  C11 UNL     1      42.747  21.449  24.335  1.00  0.00     0.105 C
HETATM    7  C12 UNL     1      43.959  22.328  24.318  1.00  0.00     0.034 C
HETATM    8  C18 UNL     1      41.647  21.905  23.426  1.00  0.00     0.081 C
HETATM    9  C19 UNL     1      41.838  21.655  21.985  1.00  0.00     0.035 C
HETATM   10  C20 UNL     1      41.074  22.540  21.077  1.00  0.00     0.002 C
HETATM   11  C21 UNL     1      40.970  23.963  21.504  1.00  0.00     0.000 C
HETATM   12  C22 UNL     1      40.296  23.926  22.889  1.00  0.00     0.002 C
HETATM   13  C23 UNL     1      41.360  23.352  23.795  1.00  0.00     0.035 C
HETATM   14  N3  UNL     1      40.528  21.136  23.999  1.00  0.00    -0.244 N
ENDROOT
BRANCH   6  15
HETATM   15  C13 UNL     1      43.193  20.066  24.182  1.00  0.00     0.274 C
HETATM   16  O4  UNL     1      44.374  19.773  23.972  1.00  0.00    -0.264 OA
BRANCH  15  17
HETATM   17  O5  UNL     1      42.243  19.062  24.280  1.00  0.00    -0.320 OA
BRANCH  17  18
HETATM   18  C14 UNL     1      42.143  17.970  23.427  1.00  0.00     0.184 C
BRANCH  18  19
HETATM   19  C15 UNL     1      41.798  18.295  22.010  1.00  0.00     0.105 C
BRANCH  19  20
HETATM   20  C16 UNL     1      40.617  17.483  21.529  1.00  0.00     0.242 C
HETATM   21  C17 UNL     1      41.005  16.514  20.439  1.00  0.00     0.090 C
HETATM   22  F1  UNL     1      40.086  16.755  22.577  1.00  0.00    -0.207 F
HETATM   23  F2  UNL     1      39.649  18.330  21.037  1.00  0.00    -0.207 F
ENDBRANCH  19  20
ENDBRANCH  18  19
ENDBRANCH  17  18
ENDBRANCH  15  17
ENDBRANCH   6  15
BRANCH   5  24
HETATM   24  O3  UNL     1      43.387  21.878  27.682  1.00  0.00    -0.345 OA
ATOM     25  H3  UNL     1      43.846  21.236  28.210  1.00  0.00     0.219 HD
ENDBRANCH   5  24
BRANCH  14  26
HETATM   26  O6  UNL     1      39.557  20.444  23.425  1.00  0.00    -0.286 OA
ATOM     27  H6  UNL     1      39.042  20.731  22.681  1.00  0.00     0.244 HD
ENDBRANCH  14  26
BRANCH   2  28
HETATM   28  O2  UNL     1      38.718  21.172  26.847  1.00  0.00    -0.344 OA
ATOM     29  H2  UNL     1      38.046  21.795  26.594  1.00  0.00     0.219 HD
ENDBRANCH   2  28
BRANCH   1  30
HETATM   30  C6  UNL     1      40.728  21.660  29.051  1.00  0.00     0.142 C
BRANCH  30  31
HETATM   31  C5  UNL     1      40.627  23.093  29.450  1.00  0.00     0.123 C
BRANCH  31  32
HETATM   32  C4  UNL     1      39.873  23.167  30.728  1.00  0.00     0.219 C
HETATM   33  N1  UNL     1      38.472  23.349  30.730  1.00  0.00    -0.357 N
ATOM     34  H1  UNL     1      37.980  23.429  29.840  1.00  0.00     0.162 HD
HETATM   35  O1  UNL     1      40.457  23.071  31.835  1.00  0.00    -0.274 OA
BRANCH  33  36
HETATM   36  C2  UNL     1      37.729  23.423  31.941  1.00  0.00     0.076 C
HETATM   37  C1  UNL     1      36.274  23.028  31.744  1.00  0.00     0.032 C
HETATM   38  C3  UNL     1      37.796  24.823  32.492  1.00  0.00     0.032 C
ENDBRANCH  33  36
ENDBRANCH  31  32
ENDBRANCH  30  31
ENDBRANCH   1  30
TORSDOF 12
ENDMDL