MODEL 3
REMARK VINA RESULT: -6.674151564      1.701      2.102
REMARK  11 active torsions:
REMARK  status: ('A' for Active; 'I' for Inactive)
REMARK    1  A    between atoms: C2_2  and  C3_3
REMARK    2  A    between atoms: C3_3  and  N1_4
REMARK    3  A    between atoms: C3_3  and  C14_32
REMARK    4  A    between atoms: N1_4  and  C4_6
REMARK    5  A    between atoms: C5_9  and  S1_10
REMARK    6  A    between atoms: S1_10  and  C6_11
REMARK    7  A    between atoms: C7_15  and  N4_16
REMARK    8  A    between atoms: C8_19  and  C9_20
REMARK    9  A    between atoms: C9_20  and  N5_23
REMARK   10  A    between atoms: N5_23  and  S2_25
REMARK   11  A    between atoms: S2_25  and  C10_28
ROOT
HETATM    1  C4  UNL     1      41.050  20.794  23.746  1.00  0.00     0.121 A
HETATM    2  N2  UNL     1      40.839  19.651  23.021  1.00  0.00    -0.322 N
ATOM      3  H2  UNL     1      41.565  18.935  23.025  1.00  0.00     0.169 HD
HETATM    4  C5  UNL     1      39.737  19.427  22.311  1.00  0.00     0.148 A
HETATM    5  N3  UNL     1      38.799  20.378  22.322  1.00  0.00    -0.323 N
ATOM      6  H3  UNL     1      37.944  20.228  21.786  1.00  0.00     0.169 HD
HETATM    7  C7  UNL     1      38.938  21.548  23.025  1.00  0.00     0.118 A
HETATM    8  C8  UNL     1      40.074  21.783  23.756  1.00  0.00     0.123 A
ENDROOT
BRANCH   1   9
HETATM    9  N1  UNL     1      42.250  20.972  24.455  1.00  0.00    -0.365 N
ATOM     10  H1  UNL     1      42.249  21.520  25.315  1.00  0.00     0.162 HD
BRANCH   9  11
HETATM   11  C3  UNL     1      43.482  20.390  23.985  1.00  0.00     0.140 C
BRANCH  11  12
HETATM   12  C2  UNL     1      44.096  19.523  25.051  1.00  0.00     0.027 C
HETATM   13  C1  UNL     1      44.435  18.143  24.533  1.00  0.00     0.007 C
ENDBRANCH  11  12
BRANCH  11  14
HETATM   14  C14 UNL     1      44.459  21.466  23.560  1.00  0.00     0.074 A
HETATM   15  N6  UNL     1      45.319  21.453  22.561  1.00  0.00    -0.355 N
HETATM   16  C15 UNL     1      46.083  22.473  22.347  1.00  0.00     0.012 A
ATOM     17  H6  UNL     1      45.381  20.635  21.955  1.00  0.00     0.166 HD
HETATM   18  C16 UNL     1      47.095  22.524  21.214  1.00  0.00     0.068 C
HETATM   19  C17 UNL     1      45.960  23.549  23.191  1.00  0.00     0.076 A
HETATM   20  S3  UNL     1      44.731  23.005  24.252  1.00  0.00    -0.085 SA
ENDBRANCH  11  14
ENDBRANCH   9  11
ENDBRANCH   1   9
BRANCH   8  21
HETATM   21  C9  UNL     1      40.244  23.011  24.548  1.00  0.00     0.367 C
HETATM   22  F1  UNL     1      40.292  24.101  23.699  1.00  0.00    -0.177 F
HETATM   23  F2  UNL     1      41.409  23.016  25.289  1.00  0.00    -0.177 F
BRANCH  21  24
HETATM   24  N5  UNL     1      39.089  23.257  25.405  1.00  0.00    -0.250 N
ATOM     25  H5  UNL     1      38.342  23.917  25.189  1.00  0.00     0.178 HD
BRANCH  24  26
HETATM   26  S2  UNL     1      39.148  22.284  26.835  1.00  0.00     0.238 S
HETATM   27  O1  UNL     1      40.135  21.188  26.787  1.00  0.00    -0.205 OA
HETATM   28  O2  UNL     1      37.775  21.704  27.022  1.00  0.00    -0.205 OA
BRANCH  26  29
HETATM   29  C10 UNL     1      39.528  23.300  28.236  1.00  0.00     0.072 C
HETATM   30  C11 UNL     1      38.267  23.507  29.085  1.00  0.00     0.033 C
HETATM   31  C12 UNL     1      40.586  22.624  29.119  1.00  0.00     0.033 C
HETATM   32  C13 UNL     1      40.066  24.647  27.887  1.00  0.00     0.033 C
ENDBRANCH  26  29
ENDBRANCH  24  26
ENDBRANCH  21  24
ENDBRANCH   8  21
BRANCH   4  33
HETATM   33  S1  UNL     1      39.505  17.904  21.370  1.00  0.00    -0.079 SA
BRANCH  33  34
HETATM   34  C6  UNL     1      41.064  16.985  21.429  1.00  0.00     0.197 C
HETATM   35 CL1  UNL     1      41.294  16.198  19.858  1.00  0.00    -0.119 Cl
ENDBRANCH  33  34
ENDBRANCH   4  33
BRANCH   7  36
HETATM   36  N4  UNL     1      37.979  22.404  23.008  1.00  0.00    -0.385 N
ATOM     37  H42 UNL     1      37.661  22.812  22.128  1.00  0.00     0.157 HD
ATOM     38  H41 UNL     1      37.552  22.687  23.890  1.00  0.00     0.157 HD
ENDBRANCH   7  36
TORSDOF 11
ENDMDL