MODEL 2
REMARK VINA RESULT: -7.039705526      2.005      2.661
REMARK  11 active torsions:
REMARK  status: ('A' for Active; 'I' for Inactive)
REMARK    1  A    between atoms: O1_2  and  C2_3
REMARK    2  A    between atoms: C2_3  and  C3_5
REMARK    3  A    between atoms: C3_5  and  C6_8
REMARK    4  A    between atoms: C6_8  and  S1_9
REMARK    5  A    between atoms: S1_9  and  N1_12
REMARK    6  A    between atoms: N1_12  and  C7_14
REMARK    7  A    between atoms: C11_18  and  N2_19
REMARK    8  A    between atoms: N2_19  and  C12_21
REMARK    9  A    between atoms: C16_27  and  C17_28
REMARK   10  A    between atoms: C17_28  and  O6_33
REMARK   11  A    between atoms: N4_29  and  O5_31
ROOT
HETATM    1  C7  UNL     1      41.607  23.489  24.514  1.00  0.00     0.115 C
HETATM    2  C8  UNL     1      42.773  24.151  23.722  1.00  0.00     0.028 C
HETATM    3  C9  UNL     1      42.432  25.626  23.670  1.00  0.00     0.004 C
HETATM    4  C10 UNL     1      41.050  25.726  24.280  1.00  0.00     0.027 C
HETATM    5  C11 UNL     1      41.203  24.646  25.382  1.00  0.00     0.105 C
ENDROOT
BRANCH   5   6
HETATM    6  N2  UNL     1      40.002  24.490  26.114  1.00  0.00    -0.381 N
ATOM      7  H2  UNL     1      39.221  24.005  25.673  1.00  0.00     0.160 HD
BRANCH   6   8
HETATM    8  C12 UNL     1      39.843  24.971  27.412  1.00  0.00     0.067 A
HETATM    9  C13 UNL     1      39.754  26.308  27.716  1.00  0.00     0.119 A
HETATM   10  N3  UNL     1      39.607  26.734  28.996  1.00  0.00    -0.366 N
HETATM   11  C14 UNL     1      39.542  25.854  30.041  1.00  0.00     0.021 A
ATOM     12  H3  UNL     1      39.543  27.735  29.183  1.00  0.00     0.165 HD
HETATM   13  C15 UNL     1      39.377  26.365  31.430  1.00  0.00     0.069 C
HETATM   14  C16 UNL     1      39.627  24.508  29.797  1.00  0.00     0.064 A
HETATM   15  C18 UNL     1      39.775  24.099  28.500  1.00  0.00     0.078 A
HETATM   16 CL2  UNL     1      39.891  22.375  28.155  1.00  0.00    -0.081 Cl
BRANCH  14  17
HETATM   17  C17 UNL     1      39.563  23.549  30.899  1.00  0.00     0.196 C
HETATM   18  N4  UNL     1      38.373  23.172  31.299  1.00  0.00    -0.245 N
ATOM     19  H4  UNL     1      37.546  23.552  30.838  1.00  0.00     0.196 HD
BRANCH  18  20
HETATM   20  O5  UNL     1      38.219  22.275  32.326  1.00  0.00    -0.288 OA
ATOM     21  H5  UNL     1      37.945  21.380  32.161  1.00  0.00     0.244 HD
ENDBRANCH  18  20
BRANCH  17  22
HETATM   22  O6  UNL     1      40.643  23.013  31.546  1.00  0.00    -0.220 OA
HETATM   23 CL1  UNL     1      41.343  23.744  32.945  1.00  0.00     0.069 Cl
ENDBRANCH  17  22
ENDBRANCH  14  17
ENDBRANCH   6   8
ENDBRANCH   5   6
BRANCH   1  24
HETATM   24  N1  UNL     1      40.657  23.058  23.552  1.00  0.00    -0.313 N
ATOM     25  H1  UNL     1      40.288  23.620  22.785  1.00  0.00     0.172 HD
BRANCH  24  26
HETATM   26  S1  UNL     1      40.228  21.396  23.904  1.00  0.00     0.228 S
HETATM   27  O3  UNL     1      39.664  20.754  22.655  1.00  0.00    -0.206 OA
HETATM   28  O4  UNL     1      39.158  21.511  24.970  1.00  0.00    -0.206 OA
BRANCH  26  29
HETATM   29  C6  UNL     1      41.635  20.532  24.410  1.00  0.00     0.182 C
BRANCH  29  30
HETATM   30  C3  UNL     1      42.609  20.080  23.398  1.00  0.00     0.055 C
HETATM   31  C4  UNL     1      43.998  20.269  24.058  1.00  0.00     0.026 C
HETATM   32  C5  UNL     1      42.661  20.914  22.147  1.00  0.00     0.026 C
BRANCH  30  33
HETATM   33  C2  UNL     1      42.464  18.678  22.991  1.00  0.00     0.267 C
HETATM   34  O2  UNL     1      42.900  17.770  23.780  1.00  0.00    -0.264 OA
BRANCH  33  35
HETATM   35  O1  UNL     1      41.899  18.210  21.826  1.00  0.00    -0.326 OA
HETATM   36  C1  UNL     1      40.765  17.347  21.808  1.00  0.00     0.213 C
ENDBRANCH  33  35
ENDBRANCH  30  33
ENDBRANCH  29  30
ENDBRANCH  26  29
ENDBRANCH  24  26
ENDBRANCH   1  24
TORSDOF 11
ENDMDL