MODEL 4
REMARK VINA RESULT: -7.660166111      2.481      3.900
REMARK  10 active torsions:
REMARK  status: ('A' for Active; 'I' for Inactive)
REMARK    1  A    between atoms: N1_4  and  C4_5
REMARK    2  A    between atoms: C6_7  and  S1_8
REMARK    3  A    between atoms: S1_8  and  S2_9
REMARK    4  A    between atoms: S2_9  and  C7_10
REMARK    5  A    between atoms: C7_10  and  N3_14
REMARK    6  A    between atoms: N3_14  and  C8_16
REMARK    7  A    between atoms: C11_20  and  C12_21
REMARK    8  A    between atoms: C15_26  and  C16_27
REMARK    9  A    between atoms: C16_27  and  C17_28
REMARK   10  A    between atoms: C17_28  and  O2_29
ROOT
HETATM    1  C4  UNL     1      39.689  22.072  24.268  1.00  0.00     0.233 C
HETATM    2  C5  UNL     1      40.567  23.293  24.163  1.00  0.00     0.073 C
HETATM    3  C6  UNL     1      40.638  23.711  25.638  1.00  0.00     0.092 C
HETATM    4  C15 UNL     1      40.542  22.378  26.305  1.00  0.00     0.141 C
HETATM    5  O3  UNL     1      39.485  21.799  25.612  1.00  0.00    -0.360 OA
ENDROOT
BRANCH   3   6
HETATM    6  S1  UNL     1      42.127  24.613  26.033  1.00  0.00    -0.082 SA
BRANCH   6   7
HETATM    7  S2  UNL     1      41.769  26.673  26.243  1.00  0.00    -0.021 SA
BRANCH   7   8
HETATM    8  C7  UNL     1      40.631  27.014  27.598  1.00  0.00     0.146 C
HETATM    9  N2  UNL     1      40.432  28.249  27.894  1.00  0.00    -0.379 N
ATOM     10  H22 UNL     1      40.904  28.992  27.377  1.00  0.00     0.158 HD
ATOM     11  H21 UNL     1      39.788  28.442  28.661  1.00  0.00     0.158 HD
BRANCH   8  12
HETATM   12  N3  UNL     1      39.985  25.995  28.307  1.00  0.00    -0.344 N
ATOM     13  H3  UNL     1      39.535  25.228  27.808  1.00  0.00     0.164 HD
BRANCH  12  14
HETATM   14  C8  UNL     1      39.959  26.036  29.749  1.00  0.00     0.229 C
HETATM   15  O1  UNL     1      40.769  25.106  30.400  1.00  0.00    -0.360 OA
HETATM   16  C9  UNL     1      39.765  24.875  31.349  1.00  0.00     0.133 C
HETATM   17  C10 UNL     1      39.447  23.419  31.446  1.00  0.00     0.042 C
HETATM   18  C14 UNL     1      38.739  25.505  30.425  1.00  0.00     0.064 C
HETATM   19  C11 UNL     1      38.080  23.305  30.841  1.00  0.00     0.054 C
HETATM   20  C13 UNL     1      38.003  24.381  29.774  1.00  0.00     0.021 C
BRANCH  19  21
HETATM   21  C12 UNL     1      37.021  23.624  31.880  1.00  0.00     0.357 C
HETATM   22  F1  UNL     1      35.970  24.316  31.347  1.00  0.00    -0.214 F
HETATM   23  F2  UNL     1      36.522  22.470  32.458  1.00  0.00    -0.214 F
ENDBRANCH  19  21
ENDBRANCH  12  14
ENDBRANCH   8  12
ENDBRANCH   7   8
ENDBRANCH   6   7
ENDBRANCH   3   6
BRANCH   4  24
HETATM   24  C16 UNL     1      40.286  22.497  27.770  1.00  0.00     0.059 C
BRANCH  24  25
HETATM   25  C17 UNL     1      41.322  21.807  28.602  1.00  0.00     0.166 C
BRANCH  25  26
HETATM   26  O2  UNL     1      40.732  20.682  29.183  1.00  0.00    -0.401 OA
ATOM     27  H2  UNL     1      40.989  19.921  28.676  1.00  0.00     0.209 HD
ENDBRANCH  25  26
ENDBRANCH  24  25
ENDBRANCH   4  24
BRANCH   1  28
HETATM   28  N1  UNL     1      40.272  20.919  23.614  1.00  0.00    -0.282 N
HETATM   29  C3  UNL     1      41.537  20.561  23.895  1.00  0.00     0.110 A
HETATM   30  C2  UNL     1      42.077  19.450  23.255  1.00  0.00     0.022 A
HETATM   31  C1  UNL     1      43.473  19.101  23.601  1.00  0.00     0.056 C
HETATM   32  C19 UNL     1      41.321  18.740  22.354  1.00  0.00     0.256 A
HETATM   33  N4  UNL     1      40.055  19.132  22.099  1.00  0.00    -0.275 N
HETATM   34  O5  UNL     1      41.849  17.743  21.798  1.00  0.00    -0.267 OA
HETATM   35  C18 UNL     1      39.547  20.207  22.724  1.00  0.00     0.331 A
ATOM     36  H4  UNL     1      39.484  18.613  21.431  1.00  0.00     0.173 HD
HETATM   37  O4  UNL     1      38.367  20.578  22.493  1.00  0.00    -0.246 OA
ENDBRANCH   1  28
TORSDOF 10
ENDMDL