MODEL 5
REMARK VINA RESULT: -7.578478397      3.543      5.500
REMARK  10 active torsions:
REMARK  status: ('A' for Active; 'I' for Inactive)
REMARK    1  A    between atoms: C2_2  and  C4_4
REMARK    2  A    between atoms: C4_4  and  N1_5
REMARK    3  A    between atoms: N1_5  and  C5_7
REMARK    4  A    between atoms: C6_10  and  O1_11
REMARK    5  A    between atoms: O1_11  and  C7_12
REMARK    6  A    between atoms: C7_12  and  C8_13
REMARK    7  A    between atoms: C8_13  and  O2_16
REMARK    8  A    between atoms: C12_22  and  C13_23
REMARK    9  A    between atoms: C14_24  and  N4_25
REMARK   10  A    between atoms: N4_25  and  C15_27
ROOT
HETATM    1  C5  UNL     1      41.964  20.053  23.579  1.00  0.00     0.138 A
HETATM    2  N2  UNL     1      41.913  20.131  24.938  1.00  0.00    -0.306 N
ATOM      3  H2  UNL     1      41.342  19.431  25.413  1.00  0.00     0.171 HD
HETATM    4  C6  UNL     1      42.522  21.016  25.706  1.00  0.00     0.226 A
HETATM    5  N3  UNL     1      43.273  21.940  25.079  1.00  0.00    -0.314 N
ATOM      6  H3  UNL     1      43.766  22.648  25.624  1.00  0.00     0.170 HD
HETATM    7  C11 UNL     1      43.379  21.935  23.719  1.00  0.00     0.110 A
HETATM    8  S1  UNL     1      44.182  22.895  22.570  1.00  0.00    -0.051 SA
HETATM    9  C12 UNL     1      43.695  22.110  21.136  1.00  0.00     0.092 A
HETATM   10  N6  UNL     1      42.932  21.138  21.635  1.00  0.00    -0.344 N
ATOM     11  H6  UNL     1      42.485  20.477  21.000  1.00  0.00     0.167 HD
HETATM   12  C23 UNL     1      42.747  21.015  22.914  1.00  0.00     0.112 A
ENDROOT
BRANCH   9  13
HETATM   13  C13 UNL     1      43.974  22.414  19.725  1.00  0.00     0.066 A
HETATM   14  C14 UNL     1      45.162  22.140  19.128  1.00  0.00     0.044 A
HETATM   15  C19 UNL     1      45.217  22.395  17.751  1.00  0.00     0.033 A
HETATM   16  C20 UNL     1      44.161  22.892  17.024  1.00  0.00     0.048 A
HETATM   17  C21 UNL     1      42.992  23.158  17.650  1.00  0.00     0.155 A
HETATM   18  F1  UNL     1      41.924  23.648  16.980  1.00  0.00    -0.203 F
HETATM   19  C22 UNL     1      42.893  22.923  18.986  1.00  0.00     0.170 A
HETATM   20  F2  UNL     1      41.725  23.184  19.591  1.00  0.00    -0.202 F
BRANCH  14  21
HETATM   21  N4  UNL     1      46.301  21.705  19.804  1.00  0.00    -0.383 N
ATOM     22  H4  UNL     1      46.369  20.698  19.957  1.00  0.00     0.160 HD
BRANCH  21  23
HETATM   23  C15 UNL     1      47.394  22.491  20.316  1.00  0.00     0.109 C
HETATM   24  C16 UNL     1      48.608  22.561  19.465  1.00  0.00     0.054 C
HETATM   25  C17 UNL     1      49.744  22.707  20.451  1.00  0.00     0.234 C
HETATM   26  N5  UNL     1      49.258  22.329  21.734  1.00  0.00    -0.073 N
HETATM   27  C18 UNL     1      47.855  22.080  21.691  1.00  0.00     0.257 C
ATOM     28  H52 UNL     1      49.770  21.533  22.113  1.00  0.00     0.277 HD
ATOM     29  H51 UNL     1      49.497  23.018  22.446  1.00  0.00     0.277 HD
ENDBRANCH  21  23
ENDBRANCH  14  21
ENDBRANCH   9  13
BRANCH   1  30
HETATM   30  N1  UNL     1      41.293  19.128  23.086  1.00  0.00    -0.354 N
ATOM     31  H1  UNL     1      40.288  19.302  23.097  1.00  0.00     0.166 HD
BRANCH  30  32
HETATM   32  C4  UNL     1      41.641  17.907  22.523  1.00  0.00     0.066 C
BRANCH  32  33
HETATM   33  C2  UNL     1      40.554  17.118  21.846  1.00  0.00     0.016 C
HETATM   34  C1  UNL     1      41.155  16.629  20.519  1.00  0.00     0.015 C
HETATM   35  C3  UNL     1      39.471  18.124  21.437  1.00  0.00     0.015 C
ENDBRANCH  32  33
ENDBRANCH  30  32
ENDBRANCH   1  30
BRANCH   4  36
HETATM   36  O1  UNL     1      42.406  21.010  27.082  1.00  0.00    -0.319 OA
BRANCH  36  37
HETATM   37  C7  UNL     1      42.108  22.129  27.857  1.00  0.00     0.215 C
BRANCH  37  38
HETATM   38  C8  UNL     1      40.772  21.929  28.539  1.00  0.00     0.072 C
HETATM   39  C9  UNL     1      40.626  22.843  29.743  1.00  0.00     0.047 C
HETATM   40  C10 UNL     1      39.617  22.178  27.628  1.00  0.00     0.047 C
BRANCH  38  41
HETATM   41  O2  UNL     1      40.686  20.616  29.017  1.00  0.00    -0.388 OA
ATOM     42  H2  UNL     1      39.780  20.332  28.997  1.00  0.00     0.210 HD
ENDBRANCH  38  41
ENDBRANCH  37  38
ENDBRANCH  36  37
ENDBRANCH   4  36
TORSDOF 10
ENDMDL