MODEL 3
REMARK VINA RESULT: -4.076089285      0.895      1.004
REMARK  2 active torsions:
REMARK  status: ('A' for Active; 'I' for Inactive)
REMARK    1  A    between atoms: N1_1  and  N2_4
REMARK    2  A    between atoms: N2_4  and  C1_6
ROOT
HETATM    1  C1  UNL     1      20.627  10.638 -17.785  1.00  0.00     0.182 A
HETATM    2  N3  UNL     1      21.716  10.464 -17.041  1.00  0.00    -0.275 N
ATOM      3  H3  UNL     1      21.676   9.891 -16.198  1.00  0.00     0.189 HD
HETATM    4  N4  UNL     1      22.810  11.018 -17.390  1.00  0.00    -0.258 N
ATOM      5  H4  UNL     1      23.656  10.897 -16.833  1.00  0.00     0.191 HD
HETATM    6  C2  UNL     1      22.826  11.763 -18.502  1.00  0.00     0.305 A
HETATM    7  O1  UNL     1      23.810  12.400 -19.024  1.00  0.00    -0.258 OA
HETATM    8  S1  UNL     1      21.207  11.643 -19.038  1.00  0.00     0.011 SA
ENDROOT
BRANCH   1   9
HETATM    9  N2  UNL     1      19.420  10.147 -17.581  1.00  0.00    -0.285 N
ATOM     10  H2  UNL     1      19.225   9.147 -17.633  1.00  0.00     0.188 HD
BRANCH   9  11
HETATM   11  N1  UNL     1      18.430  11.079 -17.290  1.00  0.00    -0.343 N
ATOM     12  H12 UNL     1      17.629  11.210 -17.906  1.00  0.00     0.176 HD
ATOM     13  H11 UNL     1      18.564  11.612 -16.430  1.00  0.00     0.176 HD
ENDBRANCH   9  11
ENDBRANCH   1   9
TORSDOF 2
ENDMDL