MODEL 5
REMARK VINA RESULT: -4.529482975      2.310      4.191
REMARK  2 active torsions:
REMARK  status: ('A' for Active; 'I' for Inactive)
REMARK    1  A    between atoms: N1_1  and  C1_4
REMARK    2  A    between atoms: N5_14  and  O1_15
ROOT
HETATM    1  C1  UNL     1      22.241  11.427 -17.949  1.00  0.00     0.694 A
HETATM    2  N2  UNL     1      21.112  11.397 -17.206  1.00  0.00    -0.172 N
ATOM      3  H2  UNL     1      21.172  11.101 -16.231  1.00  0.00     0.186 HD
HETATM    4  C2  UNL     1      19.914  11.742 -17.706  1.00  0.00     0.170 A
HETATM    5  N3  UNL     1      18.653  11.826 -17.276  1.00  0.00    -0.335 N
ATOM      6  H3  UNL     1      18.347  11.601 -16.330  1.00  0.00     0.168 HD
HETATM    7  C3  UNL     1      17.837  12.249 -18.263  1.00  0.00     0.183 A
HETATM    8  N4  UNL     1      18.589  12.446 -19.361  1.00  0.00    -0.332 N
ATOM      9  H4  UNL     1      18.231  12.769 -20.260  1.00  0.00     0.168 HD
HETATM   10  C4  UNL     1      19.882  12.157 -19.108  1.00  0.00     0.198 A
HETATM   11  N5  UNL     1      21.018  12.175 -19.814  1.00  0.00    -0.128 N
HETATM   12  N6  UNL     1      22.146  11.818 -19.233  1.00  0.00    -0.104 N
ATOM     13  H6  UNL     1      23.000  11.840 -19.791  1.00  0.00     0.208 HD
ENDROOT
BRANCH   1  14
HETATM   14  N1  UNL     1      23.387  11.085 -17.432  1.00  0.00    -0.233 N
ATOM     15  H12 UNL     1      23.553  11.151 -16.427  1.00  0.00     0.174 HD
ATOM     16  H11 UNL     1      24.145  10.745 -18.023  1.00  0.00     0.174 HD
ENDBRANCH   1  14
BRANCH  11  17
HETATM   17  O1  UNL     1      20.997  12.564 -21.133  1.00  0.00    -0.266 OA
ATOM     18  H1  UNL     1      21.770  12.954 -21.523  1.00  0.00     0.247 HD
ENDBRANCH  11  17
TORSDOF 2
ENDMDL