MODEL 2
REMARK VINA RESULT: -4.498733062      1.249      2.742
REMARK  1 active torsions:
REMARK  status: ('A' for Active; 'I' for Inactive)
REMARK    1  A    between atoms: N1_1  and  C1_4
ROOT
HETATM    1  C1  UNL     1      20.136  11.515 -19.640  1.00  0.00     0.151 A
HETATM    2  N2  UNL     1      21.335  12.047 -19.921  1.00  0.00    -0.289 N
ATOM      3  H2  UNL     1      21.399  12.613 -20.767  1.00  0.00     0.172 HD
HETATM    4  C2  UNL     1      22.443  11.910 -19.209  1.00  0.00     0.329 A
HETATM    5  O1  UNL     1      23.487  12.506 -19.658  1.00  0.00    -0.247 OA
HETATM    6  N3  UNL     1      22.602  11.224 -18.074  1.00  0.00    -0.269 N
ATOM      7  H3  UNL     1      23.531  11.224 -17.654  1.00  0.00     0.174 HD
HETATM    8  C3  UNL     1      21.636  10.530 -17.437  1.00  0.00     0.295 A
HETATM    9  O2  UNL     1      21.849   9.901 -16.367  1.00  0.00    -0.259 OA
HETATM   10  S1  UNL     1      20.121  10.588 -18.212  1.00  0.00     0.007 SA
ENDROOT
BRANCH   1  11
HETATM   11  N1  UNL     1      19.088  11.699 -20.398  1.00  0.00    -0.379 N
ATOM     12  H12 UNL     1      18.973  11.274 -21.318  1.00  0.00     0.158 HD
ATOM     13  H11 UNL     1      18.303  12.288 -20.119  1.00  0.00     0.158 HD
ENDBRANCH   1  11
TORSDOF 1
ENDMDL