MODEL 2
REMARK VINA RESULT: -5.435489025      2.539      3.224
REMARK  0 active torsions:
REMARK  status: ('A' for Active; 'I' for Inactive)
REMARK       I    between atoms: N1_1  and  C1_4
ROOT
HETATM    1  N1  UNL     1      18.630  11.121 -19.492  1.00  0.00    -0.234 N
ATOM      2  H11 UNL     1      18.072  10.774 -18.711  1.00  0.00     0.174 HD
ATOM      3  H12 UNL     1      18.241  11.514 -20.349  1.00  0.00     0.174 HD
HETATM    4  C1  UNL     1      19.913  11.049 -19.365  1.00  0.00     0.680 C
HETATM    5  N2  UNL     1      20.652  11.507 -20.399  1.00  0.00    -0.153 N
ATOM      6  H2  UNL     1      20.178  11.494 -21.302  1.00  0.00     0.187 HD
HETATM    7  C2  UNL     1      21.907  11.976 -20.431  1.00  0.00     0.309 C
HETATM    8  O1  UNL     1      22.309  12.472 -21.526  1.00  0.00    -0.263 OA
HETATM    9  C3  UNL     1      22.819  11.990 -19.418  1.00  0.00     0.243 C
HETATM   10  O2  UNL     1      23.832  12.715 -19.530  1.00  0.00    -0.282 OA
HETATM   11  C4  UNL     1      22.751  11.266 -18.235  1.00  0.00     0.106 C
HETATM   12  C5  UNL     1      21.655  10.656 -17.676  1.00  0.00     0.136 C
HETATM   13  N3  UNL     1      21.837  10.103 -16.376  1.00  0.00    -0.082 NA
HETATM   14  N4  UNL     1      20.427  10.531 -18.234  1.00  0.00    -0.179 N
ATOM     15  H4  UNL     1      19.780   9.943 -17.707  1.00  0.00     0.185 HD
ENDROOT
TORSDOF 0
ENDMDL