MODEL 4
REMARK VINA RESULT: -5.199321997      1.046      2.665
REMARK  0 active torsions:
REMARK  status: ('A' for Active; 'I' for Inactive)
ROOT
HETATM    1  O1  UNL     1      19.299  13.947 -20.067  1.00  0.00    -0.247 OA
HETATM    2  C1  UNL     1      19.753  13.069 -19.264  1.00  0.00     0.328 A
HETATM    3  N1  UNL     1      18.889  12.436 -18.453  1.00  0.00    -0.273 N
ATOM      4  H1  UNL     1      17.891  12.649 -18.472  1.00  0.00     0.173 HD
HETATM    5  C2  UNL     1      19.389  11.514 -17.615  1.00  0.00     0.281 A
HETATM    6  O2  UNL     1      18.589  10.919 -16.854  1.00  0.00    -0.265 OA
HETATM    7  C3  UNL     1      20.731  11.200 -17.559  1.00  0.00     0.160 A
HETATM    8  N2  UNL     1      21.507  10.367 -16.864  1.00  0.00    -0.276 N
ATOM      9  H2  UNL     1      21.171   9.725 -16.146  1.00  0.00     0.184 HD
HETATM   10  N3  UNL     1      22.774  10.485 -17.233  1.00  0.00    -0.020 NA
HETATM   11  N4  UNL     1      22.827  11.408 -18.180  1.00  0.00    -0.267 N
ATOM     12  H4  UNL     1      23.673  11.717 -18.657  1.00  0.00     0.186 HD
HETATM   13  C4  UNL     1      21.587  11.876 -18.412  1.00  0.00     0.156 A
HETATM   14  N5  UNL     1      21.067  12.789 -19.238  1.00  0.00    -0.291 N
ATOM     15  H5  UNL     1      21.690  13.292 -19.870  1.00  0.00     0.172 HD
ENDROOT
TORSDOF 0
ENDMDL