MODEL 2
REMARK VINA RESULT: -5.379639021      1.619      2.257
REMARK  0 active torsions:
REMARK  status: ('A' for Active; 'I' for Inactive)
ROOT
HETATM    1  O1  UNL     1      18.584  11.377 -20.562  1.00  0.00    -0.247 OA
HETATM    2  C1  UNL     1      19.672  11.365 -19.936  1.00  0.00     0.326 A
HETATM    3  N1  UNL     1      20.776  12.009 -20.345  1.00  0.00    -0.291 N
ATOM      4  H1  UNL     1      20.875  12.573 -21.188  1.00  0.00     0.172 HD
HETATM    5  C2  UNL     1      21.726  11.764 -19.427  1.00  0.00     0.158 A
HETATM    6  N2  UNL     1      22.999  12.159 -19.346  1.00  0.00    -0.269 N
ATOM      7  H2  UNL     1      23.401  12.755 -20.069  1.00  0.00     0.190 HD
HETATM    8  N3  UNL     1      23.725  11.774 -18.328  1.00  0.00    -0.238 N
ATOM      9  H3  UNL     1      24.696  12.084 -18.282  1.00  0.00     0.208 HD
HETATM   10  N4  UNL     1      23.270  11.011 -17.367  1.00  0.00    -0.250 N
ATOM     11  H4  UNL     1      23.879  10.739 -16.595  1.00  0.00     0.192 HD
HETATM   12  C3  UNL     1      22.005  10.589 -17.401  1.00  0.00     0.291 A
HETATM   13  O2  UNL     1      21.547   9.862 -16.501  1.00  0.00    -0.264 OA
HETATM   14  C4  UNL     1      21.195  10.962 -18.446  1.00  0.00     0.152 A
HETATM   15  N5  UNL     1      19.902  10.721 -18.783  1.00  0.00    -0.301 N
ATOM     16  H5  UNL     1      19.233  10.157 -18.259  1.00  0.00     0.171 HD
ENDROOT
TORSDOF 0
ENDMDL