MODEL 3
REMARK VINA RESULT: -4.962856813      1.933      3.732
REMARK  2 active torsions:
REMARK  status: ('A' for Active; 'I' for Inactive)
REMARK    1  A    between atoms: N1_1  and  C1_4
REMARK    2  A    between atoms: N3_8  and  O1_9
ROOT
HETATM    1  C1  UNL     1      21.977  10.806 -17.595  1.00  0.00     0.132 A
HETATM    2  N2  UNL     1      23.266  11.181 -17.543  1.00  0.00    -0.335 N
ATOM      3  H2  UNL     1      23.834  10.956 -16.726  1.00  0.00     0.168 HD
HETATM    4  C2  UNL     1      23.806  11.858 -18.582  1.00  0.00     0.217 A
HETATM    5  N3  UNL     1      23.086  12.171 -19.673  1.00  0.00    -0.200 N
HETATM    6  C3  UNL     1      21.781  11.820 -19.785  1.00  0.00     0.181 A
HETATM    7  N4  UNL     1      20.838  11.990 -20.729  1.00  0.00    -0.267 N
ATOM      8  H4  UNL     1      20.949  12.465 -21.625  1.00  0.00     0.190 HD
HETATM    9  N5  UNL     1      19.738  11.421 -20.266  1.00  0.00    -0.240 N
ATOM     10  H5  UNL     1      18.849  11.388 -20.763  1.00  0.00     0.208 HD
HETATM   11  N6  UNL     1      19.948  10.902 -19.075  1.00  0.00    -0.279 N
ATOM     12  H6  UNL     1      19.253  10.410 -18.513  1.00  0.00     0.189 HD
HETATM   13  C4  UNL     1      21.225  11.122 -18.717  1.00  0.00     0.141 A
ENDROOT
BRANCH   1  14
HETATM   14  N1  UNL     1      21.419  10.161 -16.633  1.00  0.00    -0.383 N
ATOM     15  H12 UNL     1      21.418   9.141 -16.658  1.00  0.00     0.157 HD
ATOM     16  H11 UNL     1      20.979  10.640 -15.848  1.00  0.00     0.157 HD
ENDBRANCH   1  14
BRANCH   5  17
HETATM   17  O1  UNL     1      23.650  12.864 -20.728  1.00  0.00    -0.280 OA
ATOM     18  H1  UNL     1      23.370  13.745 -20.943  1.00  0.00     0.245 HD
ENDBRANCH   5  17
TORSDOF 2
ENDMDL