MODEL 3
REMARK VINA RESULT: -4.313704138      1.528      2.539
REMARK  0 active torsions:
REMARK  status: ('A' for Active; 'I' for Inactive)
ROOT
HETATM    1  N1  UNL     1      21.454  11.728 -21.271  1.00  0.00    -0.380 N
ATOM      2  H11 UNL     1      22.132  12.236 -21.840  1.00  0.00     0.157 HD
ATOM      3  H12 UNL     1      20.641  11.374 -21.777  1.00  0.00     0.157 HD
HETATM    4  C1  UNL     1      21.666  11.572 -19.982  1.00  0.00     0.179 C
HETATM    5  N2  UNL     1      20.729  10.870 -19.196  1.00  0.00    -0.248 N
ATOM      6  H2  UNL     1      19.904  10.363 -19.517  1.00  0.00     0.182 HD
HETATM    7  S1  UNL     1      21.284  11.058 -17.567  1.00  0.00     0.327 S
HETATM    8  O1  UNL     1      20.418  12.033 -16.820  1.00  0.00    -0.182 OA
HETATM    9  O2  UNL     1      21.429   9.754 -16.865  1.00  0.00    -0.182 OA
HETATM   10  N3  UNL     1      22.815  11.781 -17.910  1.00  0.00    -0.230 N
ATOM     11  H3  UNL     1      23.572  11.960 -17.250  1.00  0.00     0.183 HD
HETATM   12  C2  UNL     1      22.803  12.067 -19.275  1.00  0.00     0.300 C
HETATM   13  O3  UNL     1      23.750  12.726 -19.832  1.00  0.00    -0.263 OA
ENDROOT
TORSDOF 0
ENDMDL