MODEL 3
REMARK VINA RESULT: -4.667584232      1.967      3.846
REMARK  1 active torsions:
REMARK  status: ('A' for Active; 'I' for Inactive)
REMARK    1  A    between atoms: N1_1  and  C1_4
ROOT
HETATM    1  C1  UNL     1      21.980  10.796 -17.627  1.00  0.00     0.131 A
HETATM    2  N2  UNL     1      23.256  11.156 -17.547  1.00  0.00    -0.337 N
ATOM      3  H2  UNL     1      23.810  10.910 -16.726  1.00  0.00     0.168 HD
HETATM    4  C2  UNL     1      23.813  11.850 -18.560  1.00  0.00     0.182 A
HETATM    5  N3  UNL     1      23.115  12.200 -19.673  1.00  0.00    -0.346 N
ATOM      6  H3  UNL     1      23.575  12.726 -20.417  1.00  0.00     0.167 HD
HETATM    7  C3  UNL     1      21.824  11.857 -19.798  1.00  0.00     0.135 A
HETATM    8  C4  UNL     1      20.855  12.042 -20.757  1.00  0.00     0.289 A
HETATM    9  O1  UNL     1      20.993  12.653 -21.865  1.00  0.00    -0.264 OA
HETATM   10  N4  UNL     1      19.748  11.455 -20.289  1.00  0.00    -0.264 N
ATOM     11  H4  UNL     1      18.854  11.425 -20.780  1.00  0.00     0.190 HD
HETATM   12  N5  UNL     1      19.975  10.916 -19.097  1.00  0.00    -0.292 N
ATOM     13  H5  UNL     1      19.289  10.412 -18.536  1.00  0.00     0.187 HD
HETATM   14  C5  UNL     1      21.258  11.142 -18.749  1.00  0.00     0.124 A
ENDROOT
BRANCH   1  15
HETATM   15  N1  UNL     1      21.401  10.132 -16.687  1.00  0.00    -0.383 N
ATOM     16  H12 UNL     1      21.955   9.800 -15.898  1.00  0.00     0.157 HD
ATOM     17  H11 UNL     1      20.401   9.929 -16.709  1.00  0.00     0.157 HD
ENDBRANCH   1  15
TORSDOF 1
ENDMDL