MODEL 5
REMARK VINA RESULT: -5.120678679      1.667      3.031
REMARK  0 active torsions:
REMARK  status: ('A' for Active; 'I' for Inactive)
ROOT
HETATM    1  N1  UNL     1      18.830  12.448 -19.218  1.00  0.00    -0.080 NA
HETATM    2  C1  UNL     1      20.133  11.999 -18.860  1.00  0.00     0.150 A
HETATM    3  N2  UNL     1      21.249  12.373 -19.508  1.00  0.00    -0.295 N
ATOM      4  H2  UNL     1      21.158  13.013 -20.298  1.00  0.00     0.172 HD
HETATM    5  C2  UNL     1      22.480  11.948 -19.168  1.00  0.00     0.328 A
HETATM    6  O1  UNL     1      23.498  12.330 -19.811  1.00  0.00    -0.247 OA
HETATM    7  N3  UNL     1      22.681  11.106 -18.140  1.00  0.00    -0.274 N
ATOM      8  H3  UNL     1      23.619  10.792 -17.894  1.00  0.00     0.173 HD
HETATM    9  C3  UNL     1      21.612  10.694 -17.450  1.00  0.00     0.277 A
HETATM   10  O2  UNL     1      21.773   9.894 -16.469  1.00  0.00    -0.266 OA
HETATM   11  C4  UNL     1      20.341  11.121 -17.788  1.00  0.00     0.155 A
HETATM   12  N4  UNL     1      19.189  10.711 -17.089  1.00  0.00    -0.093 NA
ENDROOT
TORSDOF 0
ENDMDL