MODEL 2
REMARK VINA RESULT: -7.945310751      1.556      2.108
REMARK  7 active torsions:
REMARK  status: ('A' for Active; 'I' for Inactive)
REMARK    1  A    between atoms: N1_2  and  C2_4
REMARK    2  A    between atoms: C2_4  and  C3_5
REMARK    3  A    between atoms: C4_8  and  C5_9
REMARK    4  A    between atoms: C5_9  and  N3_10
REMARK    5  A    between atoms: N3_10  and  N4_12
REMARK    6  A    between atoms: N4_12  and  N5_13
REMARK    7  A    between atoms: N4_12  and  C6_16
ROOT
HETATM    1  C5  UNL     1      19.490  19.909  38.032  1.00  0.00     0.157 C
ENDROOT
BRANCH   1   2
HETATM    2  C4  UNL     1      18.539  19.720  37.134  1.00  0.00     0.126 A
HETATM    3  N2  UNL     1      18.718  19.378  35.824  1.00  0.00    -0.336 N
HETATM    4  C3  UNL     1      17.502  19.287  35.264  1.00  0.00     0.117 A
ATOM      5  H2  UNL     1      19.611  19.222  35.357  1.00  0.00     0.168 HD
HETATM    6  C12 UNL     1      16.586  19.577  36.249  1.00  0.00     0.275 A
HETATM    7  N6  UNL     1      17.221  19.844  37.400  1.00  0.00    -0.306 N
HETATM    8  O1  UNL     1      15.319  19.589  36.083  1.00  0.00    -0.266 OA
ATOM      9  H6  UNL     1      16.796  20.092  38.293  1.00  0.00     0.170 HD
BRANCH   4  10
HETATM   10  C2  UNL     1      17.253  18.973  33.992  1.00  0.00     0.118 C
BRANCH  10  11
HETATM   11  N1  UNL     1      16.794  19.962  33.088  1.00  0.00    -0.401 N
HETATM   12  C1  UNL     1      17.576  21.165  32.872  1.00  0.00     0.145 C
ATOM     13  H1  UNL     1      15.915  19.828  32.588  1.00  0.00     0.158 HD
ENDBRANCH  10  11
ENDBRANCH   4  10
ENDBRANCH   1   2
BRANCH   1  14
HETATM   14  N3  UNL     1      20.809  19.528  37.748  1.00  0.00    -0.287 N
ATOM     15  H3  UNL     1      20.958  18.670  37.217  1.00  0.00     0.188 HD
BRANCH  14  16
HETATM   16  N4  UNL     1      21.936  20.257  38.153  1.00  0.00    -0.204 N
BRANCH  16  17
HETATM   17  N5  UNL     1      23.174  19.930  37.655  1.00  0.00    -0.324 N
ATOM     18  H52 UNL     1      23.733  19.175  38.051  1.00  0.00     0.179 HD
ATOM     19  H51 UNL     1      23.556  20.452  36.865  1.00  0.00     0.179 HD
ENDBRANCH  16  17
BRANCH  16  20
HETATM   20  C6  UNL     1      21.756  21.319  39.073  1.00  0.00     0.074 A
HETATM   21  C7  UNL     1      21.492  22.603  38.624  1.00  0.00     0.033 A
HETATM   22  C8  UNL     1      21.311  23.657  39.461  1.00  0.00     0.002 A
HETATM   23  C9  UNL     1      21.394  23.440  40.840  1.00  0.00     0.000 A
HETATM   24  C10 UNL     1      21.654  22.180  41.333  1.00  0.00     0.002 A
HETATM   25  C11 UNL     1      21.830  21.144  40.441  1.00  0.00     0.033 A
ENDBRANCH  16  20
ENDBRANCH  14  16
ENDBRANCH   1  14
TORSDOF 7
ENDMDL