MODEL 5
REMARK VINA RESULT: -7.670389828      1.543      2.368
REMARK  5 active torsions:
REMARK  status: ('A' for Active; 'I' for Inactive)
REMARK    1  A    between atoms: C1_2  and  C2_4
REMARK    2  A    between atoms: C4_6  and  C5_7
REMARK       I    between atoms: C5_7  and  N2_9
REMARK    3  A    between atoms: N2_9  and  N3_11
REMARK    4  A    between atoms: N3_11  and  C6_13
REMARK    5  A    between atoms: C9_17  and  N4_18
ROOT
HETATM    1  C2  UNL     1      18.871  20.585  38.095  1.00  0.00     0.057 A
HETATM    2  C3  UNL     1      18.338  19.885  37.025  1.00  0.00     0.036 A
HETATM    3  C4  UNL     1      18.336  20.387  35.745  1.00  0.00     0.034 A
HETATM    4  C7  UNL     1      18.898  21.647  35.571  1.00  0.00     0.019 A
HETATM    5  C8  UNL     1      19.432  22.368  36.600  1.00  0.00     0.031 A
HETATM    6  C9  UNL     1      19.419  21.829  37.881  1.00  0.00     0.049 A
ENDROOT
BRANCH   3   7
HETATM    7  C5  UNL     1      17.788  19.687  34.590  1.00  0.00     0.270 C
HETATM    8  O2  UNL     1      16.522  19.612  34.426  1.00  0.00    -0.266 OA
HETATM    9  N2  UNL     1      18.595  19.066  33.608  1.00  0.00    -0.264 N
ATOM     10  H2  UNL     1      19.609  19.107  33.708  1.00  0.00     0.190 HD
BRANCH   9  11
HETATM   11  N3  UNL     1      18.053  18.397  32.507  1.00  0.00    -0.275 N
ATOM     12  H3  UNL     1      17.882  18.903  31.638  1.00  0.00     0.189 HD
BRANCH  11  13
HETATM   13  C6  UNL     1      17.743  17.024  32.594  1.00  0.00     0.368 C
HETATM   14  O3  UNL     1      16.679  16.660  33.131  1.00  0.00    -0.282 OA
ENDBRANCH  11  13
ENDBRANCH   9  11
ENDBRANCH   3   7
BRANCH   1  15
HETATM   15  C1  UNL     1      18.836  19.985  39.422  1.00  0.00     0.267 C
HETATM   16  N1  UNL     1      17.791  20.257  40.334  1.00  0.00    -0.057 NA
HETATM   17  O1  UNL     1      19.742  19.196  39.811  1.00  0.00    -0.271 OA
ENDBRANCH   1  15
BRANCH   6  18
HETATM   18  N4  UNL     1      19.975  22.554  38.958  1.00  0.00    -0.332 N
HETATM   19  C10 UNL     1      21.207  22.554  39.268  1.00  0.00     0.201 C
HETATM   20  N5  UNL     1      22.174  21.823  38.566  1.00  0.00    -0.066 NA
HETATM   21  N6  UNL     1      21.580  23.353  40.398  1.00  0.00    -0.066 NA
ATOM     22  H4  UNL     1      19.343  23.118  39.527  1.00  0.00     0.168 HD
ENDBRANCH   6  18
TORSDOF 5
ENDMDL