MODEL 1
REMARK VINA RESULT: -7.559186869      0.000      0.000
REMARK  5 active torsions:
REMARK  status: ('A' for Active; 'I' for Inactive)
REMARK    1  A    between atoms: C2_2  and  C3_4
REMARK    2  A    between atoms: C3_4  and  N1_6
REMARK       I    between atoms: N1_6  and  C5_8
REMARK    3  A    between atoms: C5_8  and  C6_10
REMARK    4  A    between atoms: C7_11  and  C8_12
REMARK    5  A    between atoms: C10_21  and  N5_22
ROOT
HETATM    1  C6  UNL     1      16.828  21.220  37.626  1.00  0.00     0.107 A
HETATM    2  C7  UNL     1      17.939  21.151  38.434  1.00  0.00     0.121 A
HETATM    3  N3  UNL     1      18.028  22.133  39.403  1.00  0.00    -0.303 N
ATOM      4  H3  UNL     1      18.829  22.131  40.034  1.00  0.00     0.171 HD
HETATM    5  C9  UNL     1      17.107  23.078  39.539  1.00  0.00     0.326 A
HETATM    6  O4  UNL     1      17.215  23.976  40.443  1.00  0.00    -0.247 OA
HETATM    7  N4  UNL     1      16.022  23.158  38.755  1.00  0.00    -0.294 N
ATOM      8  H4  UNL     1      15.332  23.898  38.883  1.00  0.00     0.172 HD
HETATM    9  C10 UNL     1      15.876  22.240  37.804  1.00  0.00     0.121 A
ENDROOT
BRANCH   1  10
HETATM   10  C5  UNL     1      16.563  20.167  36.659  1.00  0.00     0.258 C
HETATM   11  N1  UNL     1      17.242  20.132  35.423  1.00  0.00    -0.346 N
ATOM     12  H1  UNL     1      17.926  20.866  35.234  1.00  0.00     0.163 HD
HETATM   13  O2  UNL     1      15.741  19.233  36.838  1.00  0.00    -0.267 OA
BRANCH  11  14
HETATM   14  C3  UNL     1      17.033  19.123  34.407  1.00  0.00     0.150 C
HETATM   15  C4  UNL     1      18.110  18.056  34.451  1.00  0.00     0.040 C
BRANCH  14  16
HETATM   16  C2  UNL     1      16.981  19.681  33.038  1.00  0.00     0.145 C
HETATM   17  C1  UNL     1      17.583  20.994  32.723  1.00  0.00     0.093 C
HETATM   18  O1  UNL     1      16.437  19.056  32.161  1.00  0.00    -0.296 OA
ENDBRANCH  14  16
ENDBRANCH  11  14
ENDBRANCH   1  10
BRANCH   2  19
HETATM   19  C8  UNL     1      19.036  20.230  38.303  1.00  0.00     0.282 C
HETATM   20  N2  UNL     1      19.951  20.176  37.255  1.00  0.00    -0.056 NA
HETATM   21  O3  UNL     1      19.207  19.371  39.235  1.00  0.00    -0.269 OA
ENDBRANCH   2  19
BRANCH   9  22
HETATM   22  N5  UNL     1      14.842  22.267  37.047  1.00  0.00    -0.384 N
ATOM     23  H52 UNL     1      14.595  21.443  36.500  1.00  0.00     0.157 HD
ATOM     24  H51 UNL     1      14.290  23.123  36.991  1.00  0.00     0.157 HD
ENDBRANCH   9  22
TORSDOF 5
ENDMDL