MODEL 5
REMARK VINA RESULT: -7.591234587      4.262      6.556
REMARK  3 active torsions:
REMARK  status: ('A' for Active; 'I' for Inactive)
REMARK    1  A    between atoms: C3_3  and  C4_4
REMARK       I    between atoms: C4_4  and  N1_6
REMARK       I    between atoms: N1_6  and  C5_8
REMARK       I    between atoms: C5_8  and  N2_9
REMARK       I    between atoms: C5_8  and  N3_13
REMARK    2  A    between atoms: C9_20  and  S1_21
REMARK    3  A    between atoms: S1_21  and  N4_22
ROOT
HETATM    1  C1  UNL     1      20.666  20.749  37.380  1.00  0.00     0.051 C
HETATM    2  C2  UNL     1      19.589  21.491  38.037  1.00  0.00    -0.023 A
HETATM    3  C3  UNL     1      18.310  21.511  37.512  1.00  0.00     0.039 A
HETATM    4  C6  UNL     1      17.302  22.244  38.159  1.00  0.00     0.017 A
HETATM    5  C7  UNL     1      17.612  22.927  39.305  1.00  0.00     0.003 A
HETATM    6  C8  UNL     1      18.879  22.890  39.805  1.00  0.00     0.026 A
HETATM    7  C9  UNL     1      19.920  22.183  39.211  1.00  0.00     0.086 A
ENDROOT
BRANCH   3   8
HETATM    8  C4  UNL     1      17.869  20.740  36.361  1.00  0.00     0.255 C
HETATM    9  O1  UNL     1      17.241  19.666  36.586  1.00  0.00    -0.268 OA
HETATM   10  N1  UNL     1      18.083  21.073  35.016  1.00  0.00    -0.307 N
HETATM   11  C5  UNL     1      17.627  20.293  33.899  1.00  0.00     0.483 C
ATOM     12  H1  UNL     1      18.599  21.930  34.817  1.00  0.00     0.166 HD
HETATM   13  N2  UNL     1      18.697  19.421  33.404  1.00  0.00    -0.033 N
HETATM   14  N3  UNL     1      17.132  21.045  32.789  1.00  0.00    -0.033 N
ATOM     15  H23 UNL     1      19.540  19.948  33.177  1.00  0.00     0.278 HD
ATOM     16  H22 UNL     1      19.079  18.833  34.145  1.00  0.00     0.278 HD
ATOM     17  H21 UNL     1      18.372  18.867  32.611  1.00  0.00     0.278 HD
ATOM     18  H33 UNL     1      16.396  21.680  33.096  1.00  0.00     0.278 HD
ATOM     19  H32 UNL     1      17.834  21.719  32.482  1.00  0.00     0.278 HD
ATOM     20  H31 UNL     1      16.808  20.491  31.996  1.00  0.00     0.278 HD
ENDBRANCH   3   8
BRANCH   7  21
HETATM   21  S1  UNL     1      21.529  22.230  39.843  1.00  0.00     0.257 S
HETATM   22  O2  UNL     1      21.527  22.932  41.203  1.00  0.00    -0.201 OA
HETATM   23  O3  UNL     1      22.426  22.997  38.917  1.00  0.00    -0.201 OA
BRANCH  21  24
HETATM   24  N4  UNL     1      22.149  20.678  40.093  1.00  0.00    -0.324 N
ATOM     25  H42 UNL     1      21.692  19.981  40.680  1.00  0.00     0.169 HD
ATOM     26  H41 UNL     1      23.025  20.535  39.588  1.00  0.00     0.169 HD
ENDBRANCH  21  24
ENDBRANCH   7  21
TORSDOF 3
ENDMDL