MODEL 1
REMARK VINA RESULT: -7.224536144      0.000      0.000
REMARK  6 active torsions:
REMARK  status: ('A' for Active; 'I' for Inactive)
REMARK       I    between atoms: N1_2  and  C2_4
REMARK    1  A    between atoms: C2_4  and  C3_6
REMARK    2  A    between atoms: C5_10  and  N3_11
REMARK    3  A    between atoms: N3_11  and  N4_13
REMARK       I    between atoms: N4_13  and  C6_15
REMARK    4  A    between atoms: C6_15  and  C7_17
REMARK    5  A    between atoms: C7_17  and  N5_18
REMARK    6  A    between atoms: C7_17  and  C8_22
ROOT
HETATM    1  N3  UNL     1      19.142  19.440  38.772  1.00  0.00    -0.129 N
ATOM      2  H3  UNL     1      18.917  18.519  39.146  1.00  0.00     0.205 HD
ENDROOT
BRANCH   1   3
HETATM    3  C5  UNL     1      19.070  20.487  39.542  1.00  0.00     0.697 A
HETATM    4  N2  UNL     1      18.101  20.736  40.438  1.00  0.00    -0.198 N
HETATM    5  C4  UNL     1      18.340  21.906  41.057  1.00  0.00     0.142 A
ATOM      6  H2  UNL     1      17.302  20.128  40.621  1.00  0.00     0.183 HD
HETATM    7  C3  UNL     1      19.510  22.430  40.538  1.00  0.00     0.132 A
HETATM    8  N6  UNL     1      19.918  21.526  39.614  1.00  0.00    -0.183 N
ATOM      9  H6  UNL     1      20.761  21.622  39.047  1.00  0.00     0.184 HD
BRANCH   7  10
HETATM   10  C2  UNL     1      20.177  23.676  40.889  1.00  0.00     0.269 C
HETATM   11  N1  UNL     1      19.447  24.753  41.446  1.00  0.00    -0.360 N
HETATM   12  C1  UNL     1      20.056  26.013  41.814  1.00  0.00     0.149 C
ATOM     13  H1  UNL     1      18.444  24.635  41.594  1.00  0.00     0.162 HD
HETATM   14  O1  UNL     1      21.406  23.781  40.692  1.00  0.00    -0.266 OA
ENDBRANCH   7  10
ENDBRANCH   1   3
BRANCH   1  15
HETATM   15  N4  UNL     1      19.523  19.572  37.454  1.00  0.00    -0.254 N
HETATM   16  C6  UNL     1      18.512  19.698  36.460  1.00  0.00     0.267 C
HETATM   17  O2  UNL     1      17.294  19.690  36.764  1.00  0.00    -0.269 OA
ATOM     18  H4  UNL     1      20.509  19.579  37.196  1.00  0.00     0.190 HD
BRANCH  16  19
HETATM   19  C7  UNL     1      18.866  19.842  35.028  1.00  0.00     0.279 C
BRANCH  19  20
HETATM   20  N5  UNL     1      19.042  18.561  34.384  1.00  0.00    -0.066 N
ATOM     21  H53 UNL     1      19.992  18.211  34.508  1.00  0.00     0.275 HD
ATOM     22  H52 UNL     1      18.535  17.825  34.877  1.00  0.00     0.275 HD
ATOM     23  H51 UNL     1      18.784  18.592  33.398  1.00  0.00     0.275 HD
ENDBRANCH  19  20
BRANCH  19  24
HETATM   24  C8  UNL     1      17.859  20.709  34.323  1.00  0.00     0.017 C
HETATM   25  C9  UNL     1      17.630  20.308  32.895  1.00  0.00     0.012 C
HETATM   26  C10 UNL     1      18.304  22.150  34.389  1.00  0.00     0.012 C
ENDBRANCH  19  24
ENDBRANCH  16  19
ENDBRANCH   1  15
TORSDOF 6
ENDMDL