MODEL 3
REMARK VINA RESULT: -7.078614396      2.214      3.303
REMARK  7 active torsions:
REMARK  status: ('A' for Active; 'I' for Inactive)
REMARK    1  A    between atoms: C2_2  and  C4_4
REMARK    2  A    between atoms: C4_4  and  N1_5
REMARK    3  A    between atoms: C4_4  and  C5_9
REMARK       I    between atoms: C5_9  and  N2_11
REMARK    4  A    between atoms: N2_11  and  C6_13
REMARK    5  A    between atoms: C6_13  and  N3_14
REMARK    6  A    between atoms: C6_13  and  C7_18
REMARK       I    between atoms: C7_18  and  N4_20
REMARK    7  A    between atoms: N4_20  and  C8_22
ROOT
HETATM    1  C6  UNL     1      16.466  21.686  37.144  1.00  0.00     0.377 C
ENDROOT
BRANCH   1   2
HETATM    2  N2  UNL     1      16.872  20.905  36.002  1.00  0.00    -0.324 N
HETATM    3  C5  UNL     1      18.239  20.961  35.607  1.00  0.00     0.250 C
HETATM    4  O1  UNL     1      19.079  21.661  36.220  1.00  0.00    -0.271 OA
ATOM      5  H2  UNL     1      16.201  20.329  35.493  1.00  0.00     0.165 HD
BRANCH   3   6
HETATM    6  C4  UNL     1      18.667  20.164  34.436  1.00  0.00     0.278 C
BRANCH   6   7
HETATM    7  C2  UNL     1      17.491  20.092  33.465  1.00  0.00     0.017 C
HETATM    8  C1  UNL     1      17.557  21.255  32.502  1.00  0.00     0.012 C
HETATM    9  C3  UNL     1      17.600  18.764  32.744  1.00  0.00     0.012 C
ENDBRANCH   6   7
BRANCH   6  10
HETATM   10  N1  UNL     1      19.101  18.864  34.846  1.00  0.00    -0.066 N
ATOM     11  H13 UNL     1      18.529  18.506  35.611  1.00  0.00     0.275 HD
ATOM     12  H12 UNL     1      18.883  18.161  34.140  1.00  0.00     0.275 HD
ATOM     13  H11 UNL     1      20.092  18.852  35.087  1.00  0.00     0.275 HD
ENDBRANCH   6  10
ENDBRANCH   3   6
ENDBRANCH   1   2
BRANCH   1  14
HETATM   14  N3  UNL     1      15.117  22.185  36.939  1.00  0.00    -0.049 N
ATOM     15  H33 UNL     1      14.607  21.640  36.245  1.00  0.00     0.277 HD
ATOM     16  H32 UNL     1      14.513  22.002  37.742  1.00  0.00     0.277 HD
ATOM     17  H31 UNL     1      15.150  23.176  36.702  1.00  0.00     0.277 HD
ENDBRANCH   1  14
BRANCH   1  18
HETATM   18  C7  UNL     1      16.596  20.878  38.358  1.00  0.00     0.286 C
HETATM   19  O2  UNL     1      15.898  19.851  38.512  1.00  0.00    -0.268 OA
HETATM   20  N4  UNL     1      17.536  21.284  39.367  1.00  0.00    -0.156 N
ATOM     21  H4  UNL     1      17.255  21.864  40.158  1.00  0.00     0.187 HD
BRANCH  20  22
HETATM   22  C8  UNL     1      18.750  20.880  39.224  1.00  0.00     0.684 A
HETATM   23  N5  UNL     1      19.099  19.627  38.832  1.00  0.00    -0.200 N
HETATM   24  C9  UNL     1      20.438  19.571  38.794  1.00  0.00     0.123 A
ATOM     25  H5  UNL     1      18.457  18.866  38.607  1.00  0.00     0.183 HD
HETATM   26  C10 UNL     1      20.919  20.789  39.163  1.00  0.00     0.123 A
HETATM   27  N6  UNL     1      19.884  21.574  39.421  1.00  0.00    -0.200 N
ATOM     28  H6  UNL     1      19.940  22.548  39.721  1.00  0.00     0.183 HD
ENDBRANCH  20  22
ENDBRANCH   1  18
TORSDOF 7
ENDMDL