MODEL 3
REMARK VINA RESULT: -7.761777134      2.115      3.486
REMARK  5 active torsions:
REMARK  status: ('A' for Active; 'I' for Inactive)
REMARK    1  A    between atoms: C3_3  and  C4_4
REMARK       I    between atoms: C4_4  and  N1_6
REMARK    2  A    between atoms: N1_6  and  C5_8
REMARK    3  A    between atoms: C5_8  and  C7_10
REMARK       I    between atoms: C7_10  and  N2_12
REMARK    4  A    between atoms: N2_12  and  C8_14
REMARK    5  A    between atoms: C9_18  and  N4_19
ROOT
HETATM    1  C1  UNL     1      17.751  22.207  34.450  1.00  0.00     0.056 C
HETATM    2  C2  UNL     1      18.025  20.771  34.356  1.00  0.00     0.039 A
HETATM    3  C3  UNL     1      18.494  20.062  35.429  1.00  0.00     0.128 A
HETATM    4  N3  UNL     1      18.720  18.730  35.244  1.00  0.00    -0.186 N
ATOM      5  H3  UNL     1      19.070  18.177  36.026  1.00  0.00     0.184 HD
HETATM    6  C9  UNL     1      18.497  18.116  34.060  1.00  0.00     0.679 A
HETATM    7  N5  UNL     1      18.037  18.802  33.000  1.00  0.00    -0.156 N
ATOM      8  H5  UNL     1      17.869  18.337  32.108  1.00  0.00     0.187 HD
HETATM    9  C10 UNL     1      17.805  20.112  33.147  1.00  0.00     0.268 A
HETATM   10  O4  UNL     1      17.376  20.747  32.155  1.00  0.00    -0.267 OA
ENDROOT
BRANCH   3  11
HETATM   11  C4  UNL     1      18.745  20.685  36.712  1.00  0.00     0.270 C
HETATM   12  O1  UNL     1      19.928  21.065  37.036  1.00  0.00    -0.266 OA
HETATM   13  N1  UNL     1      17.698  20.891  37.636  1.00  0.00    -0.343 N
ATOM     14  H1  UNL     1      16.756  20.592  37.384  1.00  0.00     0.163 HD
BRANCH  13  15
HETATM   15  C5  UNL     1      17.910  21.513  38.934  1.00  0.00     0.173 C
HETATM   16  C6  UNL     1      17.888  20.478  40.045  1.00  0.00     0.042 C
BRANCH  15  17
HETATM   17  C7  UNL     1      16.750  22.433  39.183  1.00  0.00     0.246 C
HETATM   18  O2  UNL     1      16.927  23.586  39.693  1.00  0.00    -0.271 OA
HETATM   19  N2  UNL     1      15.440  22.027  38.852  1.00  0.00    -0.303 N
ATOM     20  H2  UNL     1      15.288  21.104  38.443  1.00  0.00     0.171 HD
BRANCH  19  21
HETATM   21  C8  UNL     1      14.338  22.873  39.077  1.00  0.00     0.355 C
HETATM   22  O3  UNL     1      13.215  22.385  39.334  1.00  0.00    -0.283 OA
ENDBRANCH  19  21
ENDBRANCH  15  17
ENDBRANCH  13  15
ENDBRANCH   3  11
BRANCH   6  23
HETATM   23  N4  UNL     1      18.736  16.834  33.951  1.00  0.00    -0.234 N
ATOM     24  H42 UNL     1      18.269  16.177  34.575  1.00  0.00     0.174 HD
ATOM     25  H41 UNL     1      19.388  16.509  33.238  1.00  0.00     0.174 HD
ENDBRANCH   6  23
TORSDOF 5
ENDMDL