MODEL 3
REMARK VINA RESULT: -7.714047921      2.610      4.047
REMARK  4 active torsions:
REMARK  status: ('A' for Active; 'I' for Inactive)
REMARK       I    between atoms: C2_2  and  N1_4
REMARK    1  A    between atoms: N1_4  and  C3_6
REMARK    2  A    between atoms: C5_13  and  C6_14
REMARK       I    between atoms: C6_14  and  N4_16
REMARK    3  A    between atoms: N4_16  and  C7_18
REMARK    4  A    between atoms: C7_18  and  C10_21
ROOT
HETATM    1  C3  UNL     1      16.752  22.289  38.250  1.00  0.00     0.144 A
HETATM    2  N2  UNL     1      15.627  22.760  38.857  1.00  0.00    -0.292 N
ATOM      3  H2  UNL     1      15.557  23.126  39.806  1.00  0.00     0.172 HD
HETATM    4  C4  UNL     1      14.636  22.649  37.971  1.00  0.00     0.326 A
HETATM    5  O2  UNL     1      13.437  22.993  38.190  1.00  0.00    -0.247 OA
HETATM    6  N3  UNL     1      15.108  22.126  36.834  1.00  0.00    -0.301 N
ATOM      7  H3  UNL     1      14.551  21.941  36.000  1.00  0.00     0.171 HD
HETATM    8  C5  UNL     1      16.425  21.882  36.953  1.00  0.00     0.149 A
ENDROOT
BRANCH   8   9
HETATM    9  C6  UNL     1      17.245  21.312  35.900  1.00  0.00     0.273 C
HETATM   10  O3  UNL     1      18.418  21.659  35.715  1.00  0.00    -0.266 OA
HETATM   11  N4  UNL     1      16.714  20.303  35.012  1.00  0.00    -0.339 N
ATOM     12  H4  UNL     1      15.749  19.994  35.132  1.00  0.00     0.164 HD
BRANCH  11  13
HETATM   13  C7  UNL     1      17.508  19.723  33.967  1.00  0.00     0.104 C
HETATM   14  C8  UNL     1      17.708  20.785  32.888  1.00  0.00     0.048 C
HETATM   15  C9  UNL     1      18.880  19.297  34.423  1.00  0.00     0.048 C
BRANCH  13  16
HETATM   16  C10 UNL     1      16.757  18.620  33.332  1.00  0.00     0.258 C
HETATM   17  N5  UNL     1      16.909  17.288  33.785  1.00  0.00    -0.060 NA
HETATM   18  O4  UNL     1      15.985  18.867  32.388  1.00  0.00    -0.274 OA
ENDBRANCH  13  16
ENDBRANCH  11  13
ENDBRANCH   8   9
BRANCH   1  19
HETATM   19  N1  UNL     1      18.042  22.205  38.790  1.00  0.00    -0.311 N
HETATM   20  C2  UNL     1      18.406  21.382  39.869  1.00  0.00     0.219 C
HETATM   21  C1  UNL     1      19.833  21.371  40.374  1.00  0.00     0.117 C
HETATM   22  O1  UNL     1      17.633  20.627  40.480  1.00  0.00    -0.274 OA
ATOM     23  H1  UNL     1      18.769  22.783  38.369  1.00  0.00     0.170 HD
ENDBRANCH   1  19
TORSDOF 4
ENDMDL