MODEL 5
REMARK VINA RESULT: -7.874858344      4.520      7.286
REMARK  5 active torsions:
REMARK  status: ('A' for Active; 'I' for Inactive)
REMARK       I    between atoms: C1_2  and  N2_4
REMARK       I    between atoms: N2_4  and  C2_6
REMARK       I    between atoms: C2_6  and  N3_8
REMARK    1  A    between atoms: N3_8  and  N4_10
REMARK       I    between atoms: N4_10  and  C3_12
REMARK    2  A    between atoms: C3_12  and  C4_14
REMARK    3  A    between atoms: C4_14  and  N5_15
REMARK    4  A    between atoms: C4_14  and  C5_19
REMARK    5  A    between atoms: C5_19  and  C6_20
ROOT
HETATM    1  N4  UNL     1      20.160  20.115  36.572  1.00  0.00    -0.264 N
ATOM      2  H4  UNL     1      20.960  20.608  36.175  1.00  0.00     0.190 HD
HETATM    3  C3  UNL     1      20.009  20.074  37.957  1.00  0.00     0.267 C
HETATM    4  O3  UNL     1      19.034  19.487  38.509  1.00  0.00    -0.269 OA
ENDROOT
BRANCH   3   5
HETATM    5  C4  UNL     1      21.008  20.725  38.832  1.00  0.00     0.280 C
BRANCH   5   6
HETATM    6  N5  UNL     1      22.331  20.211  38.710  1.00  0.00    -0.066 N
ATOM      7  H53 UNL     1      22.340  19.209  38.895  1.00  0.00     0.275 HD
ATOM      8  H52 UNL     1      22.622  20.213  37.733  1.00  0.00     0.275 HD
ATOM      9  H51 UNL     1      23.027  20.684  39.288  1.00  0.00     0.275 HD
ENDBRANCH   5   6
BRANCH   5  10
HETATM   10  C5  UNL     1      20.615  20.644  40.295  1.00  0.00     0.081 C
BRANCH  10  11
HETATM   11  C6  UNL     1      20.116  21.985  40.690  1.00  0.00    -0.056 A
HETATM   12  C7  UNL     1      18.825  22.190  41.128  1.00  0.00     0.007 A
HETATM   13  C8  UNL     1      18.373  23.442  41.491  1.00  0.00     0.001 A
HETATM   14  C9  UNL     1      19.216  24.541  41.424  1.00  0.00     0.000 A
HETATM   15  C10 UNL     1      20.524  24.358  40.984  1.00  0.00     0.001 A
HETATM   16  C11 UNL     1      20.957  23.103  40.626  1.00  0.00     0.007 A
ENDBRANCH  10  11
ENDBRANCH   5  10
ENDBRANCH   3   5
BRANCH   1  17
HETATM   17  N3  UNL     1      19.229  19.488  35.697  1.00  0.00    -0.249 N
HETATM   18  C2  UNL     1      18.462  20.267  34.827  1.00  0.00     0.342 C
HETATM   19  N2  UNL     1      17.504  19.853  33.890  1.00  0.00    -0.262 N
HETATM   20  O2  UNL     1      18.651  21.551  34.878  1.00  0.00    -0.245 OA
HETATM   21  C1  UNL     1      17.050  18.579  33.571  1.00  0.00     0.336 C
ATOM     22  H2  UNL     1      17.071  20.608  33.358  1.00  0.00     0.175 HD
HETATM   23  N1  UNL     1      17.507  17.399  34.167  1.00  0.00    -0.040 NA
HETATM   24  O1  UNL     1      16.148  18.414  32.670  1.00  0.00    -0.251 OA
ATOM     25  H3  UNL     1      19.122  18.474  35.706  1.00  0.00     0.192 HD
ENDBRANCH   1  17
TORSDOF 5
ENDMDL