MODEL 1
REMARK VINA RESULT: -8.162104397      0.000      0.000
REMARK  15 active torsions:
REMARK  status: ('A' for Active; 'I' for Inactive)
REMARK    1  A    between atoms: C2_2  and  C3_3
REMARK    2  A    between atoms: C3_3  and  C4_4
REMARK    3  A    between atoms: C13_14  and  C14_15
REMARK    4  A    between atoms: C14_15  and  C15_16
REMARK    5  A    between atoms: C15_16  and  C16_17
REMARK    6  A    between atoms: C16_17  and  C17_18
REMARK    7  A    between atoms: C16_17  and  C28_34
REMARK    8  A    between atoms: C17_18  and  O1_19
REMARK    9  A    between atoms: O1_19  and  C18_20
REMARK   10  A    between atoms: C18_20  and  C19_22
REMARK   11  A    between atoms: C20_23  and  C21_24
REMARK   12  A    between atoms: C24_27  and  O3_28
REMARK   13  A    between atoms: C25_30  and  O4_31
REMARK   14  A    between atoms: C32_39  and  O6_40
REMARK   15  A    between atoms: C34_43  and  O7_44
ROOT
HETATM    1  C4  UNL     1      17.817  43.139  -3.728  1.00  0.00    -0.035 C
HETATM    2  C5  UNL     1      16.435  42.620  -4.070  1.00  0.00     0.016 C
HETATM    3  C6  UNL     1      18.715  41.960  -3.686  1.00  0.00     0.014 C
HETATM    4  C7  UNL     1      19.769  41.913  -4.772  1.00  0.00    -0.016 C
HETATM    5  C8  UNL     1      20.204  40.442  -4.849  1.00  0.00     0.010 C
HETATM    6  C9  UNL     1      19.011  42.237  -6.028  1.00  0.00     0.029 C
HETATM    7  C10 UNL     1      18.685  43.742  -6.014  1.00  0.00     0.050 C
HETATM    8  C11 UNL     1      19.984  44.383  -6.505  1.00  0.00     0.031 C
HETATM    9  C12 UNL     1      17.708  43.882  -7.080  1.00  0.00     0.069 C
HETATM   10  N1  UNL     1      16.929  43.967  -7.958  1.00  0.00    -0.196 NA
HETATM   11  C13 UNL     1      18.262  44.213  -4.700  1.00  0.00     0.019 C
ENDROOT
BRANCH  11  12
HETATM   12  C14 UNL     1      17.421  45.456  -4.602  1.00  0.00     0.035 C
BRANCH  12  13
HETATM   13  C15 UNL     1      18.123  46.693  -4.271  1.00  0.00    -0.012 C
BRANCH  13  14
HETATM   14  C16 UNL     1      18.796  46.975  -3.122  1.00  0.00    -0.004 C
BRANCH  14  15
HETATM   15  C17 UNL     1      20.172  46.536  -3.033  1.00  0.00     0.158 C
BRANCH  15  16
HETATM   16  O1  UNL     1      20.634  45.978  -1.911  1.00  0.00    -0.287 OA
BRANCH  16  17
HETATM   17  C18 UNL     1      21.100  46.295  -0.703  1.00  0.00     0.287 C
HETATM   18  O2  UNL     1      20.553  45.832   0.288  1.00  0.00    -0.260 OA
BRANCH  17  19
HETATM   19  C19 UNL     1      22.245  47.177  -0.583  1.00  0.00     0.083 C
HETATM   20  C20 UNL     1      22.709  47.887   0.332  1.00  0.00     0.017 C
BRANCH  20  21
HETATM   21  C21 UNL     1      22.427  48.241   1.677  1.00  0.00    -0.033 A
HETATM   22  C22 UNL     1      23.302  48.728   2.593  1.00  0.00     0.014 A
HETATM   23  C23 UNL     1      22.908  49.149   3.872  1.00  0.00     0.040 A
HETATM   24  C24 UNL     1      21.590  49.075   4.247  1.00  0.00     0.099 A
HETATM   25  C25 UNL     1      20.649  48.582   3.353  1.00  0.00     0.102 A
HETATM   26  C27 UNL     1      21.079  48.193   2.138  1.00  0.00     0.051 A
BRANCH  24  27
HETATM   27  O3  UNL     1      21.201  49.491   5.509  1.00  0.00    -0.358 OA
ATOM     28  H3  UNL     1      20.576  48.979   6.009  1.00  0.00     0.217 HD
ENDBRANCH  24  27
BRANCH  25  29
HETATM   29  O4  UNL     1      19.351  48.540   3.805  1.00  0.00    -0.353 OA
HETATM   30  C26 UNL     1      18.302  48.326   2.890  1.00  0.00     0.210 C
ENDBRANCH  25  29
ENDBRANCH  20  21
ENDBRANCH  17  19
ENDBRANCH  16  17
ENDBRANCH  15  16
ENDBRANCH  14  15
BRANCH  14  31
HETATM   31  C28 UNL     1      18.029  47.773  -2.130  1.00  0.00     0.012 A
HETATM   32  C29 UNL     1      17.273  47.096  -1.181  1.00  0.00     0.054 A
HETATM   33  C30 UNL     1      16.385  47.766  -0.330  1.00  0.00     0.102 A
HETATM   34  O5  UNL     1      15.667  47.153   0.561  1.00  0.00    -0.353 OA
HETATM   35  C32 UNL     1      16.313  49.167  -0.503  1.00  0.00     0.101 A
HETATM   36  C31 UNL     1      14.956  46.530   1.449  1.00  0.00     0.210 C
HETATM   37  C33 UNL     1      17.046  49.845  -1.426  1.00  0.00     0.077 A
HETATM   38  C34 UNL     1      17.924  49.131  -2.261  1.00  0.00     0.082 A
BRANCH  35  39
HETATM   39  O6  UNL     1      15.438  49.841   0.337  1.00  0.00    -0.358 OA
ATOM     40  H6  UNL     1      15.524  50.787   0.356  1.00  0.00     0.217 HD
ENDBRANCH  35  39
BRANCH  38  41
HETATM   41  O7  UNL     1      18.645  49.855  -3.195  1.00  0.00    -0.355 OA
HETATM   42  C35 UNL     1      18.429  51.241  -3.356  1.00  0.00     0.210 C
ENDBRANCH  38  41
ENDBRANCH  14  31
ENDBRANCH  13  14
ENDBRANCH  12  13
ENDBRANCH  11  12
BRANCH   1  43
HETATM   43  C3  UNL     1      17.699  43.708  -2.305  1.00  0.00     0.036 C
BRANCH  43  44
HETATM   44  C2  UNL     1      16.929  42.843  -1.423  1.00  0.00    -0.036 C
HETATM   45  C1  UNL     1      17.023  42.937  -0.116  1.00  0.00     0.007 C
ENDBRANCH  43  44
ENDBRANCH   1  43
TORSDOF 15
ENDMDL