MODEL 2
REMARK VINA RESULT: -7.608496105      4.959     10.003
REMARK  17 active torsions:
REMARK  status: ('A' for Active; 'I' for Inactive)
REMARK    1  A    between atoms: O1_2  and  C2_3
REMARK    2  A    between atoms: C2_3  and  C3_5
REMARK    3  A    between atoms: C3_5  and  C5_7
REMARK    4  A    between atoms: C5_7  and  C6_8
REMARK    5  A    between atoms: C6_8  and  C7_10
REMARK    6  A    between atoms: C10_13  and  C11_14
REMARK    7  A    between atoms: C11_14  and  C12_15
REMARK    8  A    between atoms: C12_15  and  C14_17
REMARK    9  A    between atoms: C15_18  and  C17_20
REMARK   10  A    between atoms: C17_20  and  C18_21
REMARK   11  A    between atoms: C22_25  and  C23_26
REMARK   12  A    between atoms: C23_26  and  C26_29
REMARK   13  A    between atoms: C26_29  and  O4_30
REMARK   14  A    between atoms: C27_33  and  O6_34
REMARK   15  A    between atoms: O6_34  and  C28_35
REMARK   16  A    between atoms: C30_38  and  C31_39
REMARK   17  A    between atoms: C34_42  and  O8_43
ROOT
HETATM    1  C7  UNL     1      17.937  43.837  -4.602  1.00  0.00     0.050 A
HETATM    2  C8  UNL     1      18.611  44.992  -4.307  1.00  0.00    -0.032 A
HETATM    3  C9  UNL     1      20.097  44.945  -4.197  1.00  0.00     0.050 C
HETATM    4  C10 UNL     1      17.906  46.206  -4.275  1.00  0.00     0.006 A
HETATM    5  C27 UNL     1      16.540  46.210  -4.558  1.00  0.00     0.099 A
HETATM    6  C30 UNL     1      15.821  45.047  -4.872  1.00  0.00     0.014 A
HETATM    7  C34 UNL     1      16.538  43.859  -4.889  1.00  0.00     0.089 A
ENDROOT
BRANCH   4   8
HETATM    8  C11 UNL     1      18.633  47.428  -3.943  1.00  0.00     0.021 C
BRANCH   8   9
HETATM    9  C12 UNL     1      18.732  47.994  -2.604  1.00  0.00    -0.061 C
HETATM   10  C13 UNL     1      18.243  49.388  -2.324  1.00  0.00     0.048 C
BRANCH   9  11
HETATM   11  C14 UNL     1      19.914  47.776  -1.774  1.00  0.00     0.009 C
HETATM   12  C15 UNL     1      20.250  46.776  -1.001  1.00  0.00    -0.080 C
HETATM   13  C16 UNL     1      21.558  46.860  -0.273  1.00  0.00     0.043 C
BRANCH  12  14
HETATM   14  C17 UNL     1      19.438  45.596  -0.762  1.00  0.00     0.071 C
BRANCH  14  15
HETATM   15  C18 UNL     1      18.378  45.666   0.293  1.00  0.00     0.061 C
HETATM   16  C19 UNL     1      18.998  45.910   1.677  1.00  0.00     0.046 C
HETATM   17  C20 UNL     1      17.208  46.523   0.027  1.00  0.00     0.040 C
HETATM   18  C21 UNL     1      16.017  45.567  -0.004  1.00  0.00     0.036 C
HETATM   19  C22 UNL     1      16.747  44.304  -0.439  1.00  0.00     0.132 C
HETATM   20  O5  UNL     1      17.832  44.348   0.433  1.00  0.00    -0.374 OA
BRANCH  19  21
HETATM   21  C23 UNL     1      15.964  43.056  -0.254  1.00  0.00    -0.000 C
HETATM   22  C24 UNL     1      14.853  43.311   0.764  1.00  0.00     0.020 C
HETATM   23  C25 UNL     1      15.282  42.560  -1.496  1.00  0.00     0.020 C
BRANCH  21  24
HETATM   24  C26 UNL     1      16.873  41.968   0.316  1.00  0.00     0.175 C
BRANCH  24  25
HETATM   25  O4  UNL     1      17.593  41.403  -0.752  1.00  0.00    -0.400 OA
ATOM     26  H4  UNL     1      17.000  40.846  -1.242  1.00  0.00     0.209 HD
ENDBRANCH  24  25
ENDBRANCH  21  24
ENDBRANCH  19  21
ENDBRANCH  14  15
ENDBRANCH  12  14
ENDBRANCH   9  11
ENDBRANCH   8   9
ENDBRANCH   4   8
BRANCH   5  27
HETATM   27  O6  UNL     1      15.782  47.371  -4.551  1.00  0.00    -0.278 OA
BRANCH  27  28
HETATM   28  C28 UNL     1      15.121  47.827  -3.448  1.00  0.00     0.260 C
HETATM   29  C29 UNL     1      14.763  49.277  -3.268  1.00  0.00     0.126 C
HETATM   30  O7  UNL     1      14.754  47.079  -2.493  1.00  0.00    -0.265 OA
ENDBRANCH  27  28
ENDBRANCH   5  27
BRANCH   1  31
HETATM   31  C6  UNL     1      18.617  42.541  -4.578  1.00  0.00     0.163 C
HETATM   32  O3  UNL     1      18.537  41.869  -3.492  1.00  0.00    -0.292 OA
BRANCH  31  33
HETATM   33  C5  UNL     1      19.387  41.894  -5.636  1.00  0.00     0.098 C
BRANCH  33  34
HETATM   34  C3  UNL     1      19.178  42.432  -7.020  1.00  0.00     0.088 C
HETATM   35  C4  UNL     1      20.349  43.373  -7.335  1.00  0.00     0.021 C
BRANCH  34  36
HETATM   36  C2  UNL     1      19.304  41.260  -7.951  1.00  0.00     0.262 C
HETATM   37  O2  UNL     1      19.660  40.118  -7.546  1.00  0.00    -0.265 OA
BRANCH  36  38
HETATM   38  O1  UNL     1      19.033  41.392  -9.300  1.00  0.00    -0.326 OA
HETATM   39  C1  UNL     1      19.371  40.433 -10.270  1.00  0.00     0.213 C
ENDBRANCH  36  38
ENDBRANCH  34  36
ENDBRANCH  33  34
ENDBRANCH  31  33
ENDBRANCH   1  31
BRANCH   6  40
HETATM   40  C31 UNL     1      14.404  45.131  -5.272  1.00  0.00     0.016 C
HETATM   41  C32 UNL     1      13.416  44.370  -4.460  1.00  0.00     0.015 C
HETATM   42  C33 UNL     1      14.241  44.578  -6.710  1.00  0.00     0.015 C
ENDBRANCH   6  40
BRANCH   7  43
HETATM   43  O8  UNL     1      15.950  42.726  -5.170  1.00  0.00    -0.359 OA
ATOM     44  H8  UNL     1      16.463  42.050  -5.599  1.00  0.00     0.217 HD
ENDBRANCH   7  43
TORSDOF 17
ENDMDL