MODEL 4
REMARK VINA RESULT: -7.732150376      3.501      6.487
REMARK  14 active torsions:
REMARK  status: ('A' for Active; 'I' for Inactive)
REMARK    1  A    between atoms: C2_2  and  C3_3
REMARK    2  A    between atoms: C4_4  and  C6_6
REMARK    3  A    between atoms: C6_6  and  C7_7
REMARK    4  A    between atoms: C7_7  and  C8_8
REMARK    5  A    between atoms: C9_9  and  C10_10
REMARK    6  A    between atoms: N1_11  and  O1_13
REMARK    7  A    between atoms: O1_13  and  C11_14
REMARK    8  A    between atoms: C11_14  and  C12_15
REMARK    9  A    between atoms: N2_16  and  O2_18
REMARK   10  A    between atoms: C13_22  and  C15_24
REMARK   11  A    between atoms: C24_34  and  C26_36
REMARK   12  A    between atoms: C26_36  and  C27_37
REMARK   13  A    between atoms: C27_37  and  C28_38
REMARK   14  A    between atoms: C34_44  and  O6_45
ROOT
HETATM    1  C3  UNL     1      20.212  48.119   1.461  1.00  0.00     0.065 C
HETATM    2  C4  UNL     1      19.780  48.728   2.792  1.00  0.00     0.100 C
HETATM    3  C5  UNL     1      19.008  50.070   2.496  1.00  0.00     0.050 C
HETATM    4  O3  UNL     1      18.738  47.914   3.147  1.00  0.00    -0.228 OA
HETATM    5  O4  UNL     1      18.110  47.876   1.940  1.00  0.00    -0.224 OA
HETATM    6  C13 UNL     1      19.056  47.185   1.170  1.00  0.00     0.125 C
HETATM    7  C14 UNL     1      19.195  45.933   2.065  1.00  0.00     0.055 C
ENDROOT
BRANCH   6   8
HETATM    8  C15 UNL     1      18.708  46.839  -0.209  1.00  0.00    -0.013 C
HETATM    9  C16 UNL     1      18.938  45.456  -0.709  1.00  0.00     0.041 C
HETATM   10  C17 UNL     1      18.744  45.319  -2.188  1.00  0.00     0.019 C
HETATM   11  C18 UNL     1      17.402  45.088  -2.766  1.00  0.00    -0.005 C
HETATM   12  C19 UNL     1      16.827  43.894  -1.936  1.00  0.00     0.021 C
HETATM   13  C20 UNL     1      16.394  46.194  -2.616  1.00  0.00    -0.006 C
HETATM   14  C24 UNL     1      17.500  44.569  -4.152  1.00  0.00    -0.015 C
HETATM   15  C21 UNL     1      16.102  46.825  -3.938  1.00  0.00     0.176 C
HETATM   16  C31 UNL     1      16.432  47.087  -1.431  1.00  0.00     0.029 C
HETATM   17  O5  UNL     1      16.237  47.976  -4.319  1.00  0.00    -0.288 OA
HETATM   18  C22 UNL     1      15.569  45.836  -4.911  1.00  0.00     0.052 C
HETATM   19  C23 UNL     1      16.256  44.737  -4.991  1.00  0.00    -0.013 C
HETATM   20  C32 UNL     1      15.480  46.599  -0.365  1.00  0.00     0.027 C
HETATM   21  C33 UNL     1      15.660  48.373  -1.878  1.00  0.00     0.027 C
HETATM   22  C34 UNL     1      17.744  47.604  -1.031  1.00  0.00     0.061 C
HETATM   23  C25 UNL     1      17.566  42.986  -4.089  1.00  0.00     0.021 C
BRANCH  22  24
HETATM   24  O6  UNL     1      17.754  48.982  -0.778  1.00  0.00    -0.363 OA
ATOM     25  H6  UNL     1      17.980  49.206   0.117  1.00  0.00     0.217 HD
ENDBRANCH  22  24
BRANCH  14  26
HETATM   26  C26 UNL     1      18.630  44.884  -5.049  1.00  0.00     0.014 C
BRANCH  26  27
HETATM   27  C27 UNL     1      19.040  44.125  -6.211  1.00  0.00     0.005 C
BRANCH  27  28
HETATM   28  C28 UNL     1      20.525  43.679  -6.011  1.00  0.00    -0.023 C
HETATM   29  C29 UNL     1      21.038  44.116  -4.666  1.00  0.00     0.009 C
HETATM   30  C30 UNL     1      20.719  42.230  -6.287  1.00  0.00     0.009 C
ENDBRANCH  27  28
ENDBRANCH  26  27
ENDBRANCH  14  26
ENDBRANCH   6   8
BRANCH   1  31
HETATM   31  C2  UNL     1      21.563  47.662   1.329  1.00  0.00     0.007 C
HETATM   32  C1  UNL     1      22.372  47.517   0.139  1.00  0.00     0.006 C
ENDBRANCH   1  31
BRANCH   2  33
HETATM   33  C6  UNL     1      20.848  49.071   3.689  1.00  0.00     0.045 C
BRANCH  33  34
HETATM   34  C7  UNL     1      20.923  50.558   3.961  1.00  0.00     0.030 C
BRANCH  34  35
HETATM   35  C8  UNL     1      22.413  50.870   4.068  1.00  0.00    -0.025 C
HETATM   36  C9  UNL     1      23.271  50.153   3.385  1.00  0.00     0.015 C
BRANCH  36  37
HETATM   37  C10 UNL     1      24.702  50.441   3.480  1.00  0.00     0.114 C
HETATM   38  N1  UNL     1      25.295  51.491   3.535  1.00  0.00    -0.278 N
ATOM     39  H1  UNL     1      26.286  51.258   3.607  1.00  0.00     0.193 HD
BRANCH  38  40
HETATM   40  O1  UNL     1      25.224  52.780   3.542  1.00  0.00    -0.276 OA
BRANCH  40  41
HETATM   41  C11 UNL     1      25.864  53.626   4.552  1.00  0.00     0.247 C
BRANCH  41  42
HETATM   42  C12 UNL     1      25.160  53.197   5.850  1.00  0.00     0.115 C
HETATM   43  N2  UNL     1      25.936  52.723   6.752  1.00  0.00    -0.282 N
ATOM     44  H2  UNL     1      26.940  52.652   6.589  1.00  0.00     0.193 HD
BRANCH  43  45
HETATM   45  O2  UNL     1      25.375  52.300   7.977  1.00  0.00    -0.290 OA
ATOM     46  H2  UNL     1      24.975  51.440   8.024  1.00  0.00     0.244 HD
ENDBRANCH  43  45
ENDBRANCH  41  42
ENDBRANCH  40  41
ENDBRANCH  38  40
ENDBRANCH  36  37
ENDBRANCH  34  35
ENDBRANCH  33  34
ENDBRANCH   2  33
TORSDOF 14
ENDMDL