MODEL 2
REMARK VINA RESULT: -8.529280494      4.536      8.780
REMARK  14 active torsions:
REMARK  status: ('A' for Active; 'I' for Inactive)
REMARK    1  A    between atoms: O1_2  and  C2_3
REMARK    2  A    between atoms: C4_5  and  C5_6
REMARK    3  A    between atoms: C5_6  and  C23_27
REMARK    4  A    between atoms: C6_7  and  C7_8
REMARK    5  A    between atoms: C7_8  and  C8_9
REMARK    6  A    between atoms: C12_14  and  C13_15
REMARK    7  A    between atoms: C13_15  and  C14_17
REMARK    8  A    between atoms: C15_18  and  C16_19
REMARK    9  A    between atoms: C21_24  and  O3_25
REMARK   10  A    between atoms: C23_27  and  C24_28
REMARK   11  A    between atoms: C24_28  and  C25_29
REMARK   12  A    between atoms: C31_35  and  O4_36
REMARK   13  A    between atoms: C33_39  and  C34_40
REMARK   14  A    between atoms: C34_40  and  O5_41
ROOT
HETATM    1  C8  UNL     1      24.634  50.588   2.228  1.00  0.00    -0.001 A
HETATM    2  C9  UNL     1      24.410  49.663   1.259  1.00  0.00     0.054 A
HETATM    3  C10 UNL     1      23.295  48.779   1.371  1.00  0.00     0.100 C
HETATM    4  N1  UNL     1      22.407  48.056   1.481  1.00  0.00    -0.191 NA
HETATM    5  C11 UNL     1      25.283  49.467   0.188  1.00  0.00     0.039 A
HETATM    6  C12 UNL     1      26.428  50.200   0.046  1.00  0.00     0.018 A
HETATM    7  C20 UNL     1      26.677  51.147   1.022  1.00  0.00     0.053 A
HETATM    8  C21 UNL     1      25.813  51.333   2.071  1.00  0.00     0.077 A
ENDROOT
BRANCH   1   9
HETATM    9  C7  UNL     1      23.750  50.977   3.334  1.00  0.00     0.070 C
BRANCH   9  10
HETATM   10  C6  UNL     1      23.499  49.988   4.370  1.00  0.00    -0.014 C
HETATM   11  C5  UNL     1      22.386  49.703   4.946  1.00  0.00    -0.048 C
BRANCH  11  12
HETATM   12  C4  UNL     1      21.081  50.358   4.670  1.00  0.00     0.007 A
HETATM   13  C3  UNL     1      20.943  51.699   5.018  1.00  0.00     0.054 A
HETATM   14  C2  UNL     1      19.777  52.359   4.733  1.00  0.00     0.102 A
HETATM   15  C31 UNL     1      18.781  51.623   4.095  1.00  0.00     0.108 A
HETATM   16  C30 UNL     1      18.919  50.300   3.750  1.00  0.00     0.015 A
HETATM   17  C29 UNL     1      20.097  49.640   4.041  1.00  0.00     0.089 A
HETATM   18  C32 UNL     1      18.033  49.321   3.081  1.00  0.00     0.082 C
HETATM   19  O7  UNL     1      19.982  48.307   3.583  1.00  0.00    -0.339 OA
HETATM   20  C33 UNL     1      19.066  48.343   2.521  1.00  0.00     0.198 C
BRANCH  14  21
HETATM   21  O1  UNL     1      19.545  53.712   5.045  1.00  0.00    -0.353 OA
HETATM   22  C1  UNL     1      20.383  54.646   4.402  1.00  0.00     0.210 C
ENDBRANCH  14  21
BRANCH  15  23
HETATM   23  O4  UNL     1      17.585  52.316   3.809  1.00  0.00    -0.357 OA
ATOM     24  H4  UNL     1      16.972  51.871   3.236  1.00  0.00     0.217 HD
ENDBRANCH  15  23
BRANCH  20  25
HETATM   25  C34 UNL     1      18.429  47.007   2.216  1.00  0.00     0.211 A
HETATM   26  C35 UNL     1      19.296  46.161   1.274  1.00  0.00     0.242 A
HETATM   27  O6  UNL     1      18.091  46.751   0.902  1.00  0.00    -0.346 OA
BRANCH  25  28
HETATM   28  O5  UNL     1      17.908  46.275   3.254  1.00  0.00    -0.362 OA
ATOM     29  H5  UNL     1      18.016  45.331   3.244  1.00  0.00     0.213 HD
ENDBRANCH  25  28
ENDBRANCH  20  25
ENDBRANCH  11  12
BRANCH  11  30
HETATM   30  C23 UNL     1      22.233  48.567   5.928  1.00  0.00     0.043 C
BRANCH  30  31
HETATM   31  C24 UNL     1      22.786  48.814   7.284  1.00  0.00     0.032 C
BRANCH  31  32
HETATM   32  C25 UNL     1      21.885  49.667   8.071  1.00  0.00    -0.024 C
HETATM   33  C26 UNL     1      22.191  50.895   8.439  1.00  0.00    -0.091 C
HETATM   34  C27 UNL     1      21.196  51.702   9.250  1.00  0.00     0.042 C
HETATM   35  C28 UNL     1      23.467  51.537   8.093  1.00  0.00     0.042 C
ENDBRANCH  31  32
ENDBRANCH  30  31
ENDBRANCH  11  30
ENDBRANCH   9  10
ENDBRANCH   1   9
BRANCH   8  36
HETATM   36  O3  UNL     1      26.145  52.300   2.996  1.00  0.00    -0.355 OA
HETATM   37  C22 UNL     1      26.923  52.023   4.140  1.00  0.00     0.210 C
ENDBRANCH   8  36
BRANCH   6  38
HETATM   38  C13 UNL     1      27.382  50.005  -1.036  1.00  0.00     0.182 C
HETATM   39  O2  UNL     1      27.026  50.418  -2.167  1.00  0.00    -0.288 OA
BRANCH  38  40
HETATM   40  C14 UNL     1      28.652  49.374  -0.815  1.00  0.00     0.055 C
HETATM   41  C15 UNL     1      29.824  49.740  -1.238  1.00  0.00     0.004 C
BRANCH  41  42
HETATM   42  C16 UNL     1      30.117  50.882  -2.047  1.00  0.00     0.002 C
HETATM   43  C17 UNL     1      30.368  50.720  -3.362  1.00  0.00    -0.088 C
HETATM   44  C18 UNL     1      30.674  51.870  -4.235  1.00  0.00     0.043 C
HETATM   45  C19 UNL     1      30.345  49.335  -3.940  1.00  0.00     0.043 C
ENDBRANCH  41  42
ENDBRANCH  38  40
ENDBRANCH   6  38
TORSDOF 14
ENDMDL