MODEL 5
REMARK VINA RESULT: -6.386910122      1.562      2.303
REMARK  17 active torsions:
REMARK  status: ('A' for Active; 'I' for Inactive)
REMARK    1  A    between atoms: C11_11  and  O1_12
REMARK    2  A    between atoms: C12_14  and  O2_15
REMARK    3  A    between atoms: O2_15  and  C13_16
REMARK    4  A    between atoms: C13_16  and  C14_21
REMARK    5  A    between atoms: N1_17  and  O3_19
REMARK    6  A    between atoms: C14_21  and  C15_22
REMARK    7  A    between atoms: C14_21  and  C19_26
REMARK    8  A    between atoms: C15_22  and  C16_23
REMARK    9  A    between atoms: C16_23  and  C17_24
REMARK   10  A    between atoms: C19_26  and  C20_27
REMARK   11  A    between atoms: C23_30  and  C25_32
REMARK   12  A    between atoms: C25_32  and  O4_33
REMARK   13  A    between atoms: O4_33  and  C26_34
REMARK   14  A    between atoms: C26_34  and  C27_36
REMARK   15  A    between atoms: C31_40  and  C33_42
REMARK   16  A    between atoms: C33_42  and  C34_43
REMARK   17  A    between atoms: C34_43  and  O7_45
ROOT
HETATM    1  C1  UNL     1      20.243  47.767  -2.232  1.00  0.00     0.015 C
HETATM    2  C2  UNL     1      19.620  46.711  -1.805  1.00  0.00    -0.079 C
HETATM    3  C3  UNL     1      19.792  45.484  -2.636  1.00  0.00     0.035 C
HETATM    4  C4  UNL     1      18.925  45.631  -3.841  1.00  0.00     0.021 C
HETATM    5  C5  UNL     1      17.444  45.770  -3.562  1.00  0.00     0.009 C
HETATM    6  C6  UNL     1      17.078  47.125  -4.211  1.00  0.00     0.023 C
HETATM    7  C7  UNL     1      17.144  45.694  -2.127  1.00  0.00    -0.061 C
HETATM    8  C8  UNL     1      16.663  44.541  -1.622  1.00  0.00    -0.015 C
HETATM    9  C9  UNL     1      16.406  43.314  -2.410  1.00  0.00     0.035 C
HETATM   10  C10 UNL     1      17.527  42.337  -2.412  1.00  0.00     0.017 C
HETATM   11  C11 UNL     1      15.906  43.748  -3.745  1.00  0.00     0.156 C
HETATM   12  C12 UNL     1      16.680  44.785  -4.447  1.00  0.00     0.172 C
HETATM   13  C23 UNL     1      17.288  46.649  -0.981  1.00  0.00     0.014 C
HETATM   14  C24 UNL     1      16.891  48.036  -1.395  1.00  0.00     0.023 C
HETATM   15  C31 UNL     1      18.785  46.710  -0.571  1.00  0.00     0.001 C
HETATM   16  C32 UNL     1      19.200  45.507   0.234  1.00  0.00     0.021 C
ENDROOT
BRANCH  12  17
HETATM   17  O2  UNL     1      17.513  44.237  -5.428  1.00  0.00    -0.328 OA
BRANCH  17  18
HETATM   18  C13 UNL     1      17.211  43.952  -6.749  1.00  0.00     0.142 C
HETATM   19  N1  UNL     1      16.001  44.317  -7.095  1.00  0.00    -0.251 N
ATOM     20  H1  UNL     1      15.427  44.758  -6.376  1.00  0.00     0.196 HD
BRANCH  19  21
HETATM   21  O3  UNL     1      15.446  44.165  -8.310  1.00  0.00    -0.288 OA
ATOM     22  H3  UNL     1      14.529  43.988  -8.487  1.00  0.00     0.244 HD
ENDBRANCH  19  21
BRANCH  18  23
HETATM   23  C14 UNL     1      18.145  43.312  -7.679  1.00  0.00     0.062 C
BRANCH  23  24
HETATM   24  C15 UNL     1      19.540  43.797  -7.354  1.00  0.00     0.013 C
BRANCH  24  25
HETATM   25  C16 UNL     1      20.431  42.741  -6.800  1.00  0.00     0.000 C
BRANCH  25  26
HETATM   26  C17 UNL     1      20.562  42.713  -5.317  1.00  0.00    -0.005 C
HETATM   27  C18 UNL     1      20.037  41.376  -4.825  1.00  0.00     0.005 C
ENDBRANCH  25  26
ENDBRANCH  24  25
ENDBRANCH  23  24
BRANCH  23  28
HETATM   28  C19 UNL     1      18.040  41.842  -7.764  1.00  0.00     0.016 C
BRANCH  28  29
HETATM   29  C20 UNL     1      17.907  41.349  -9.163  1.00  0.00    -0.022 C
HETATM   30  C21 UNL     1      16.530  40.701  -9.278  1.00  0.00     0.009 C
HETATM   31  C22 UNL     1      18.904  40.259  -9.500  1.00  0.00     0.009 C
ENDBRANCH  28  29
ENDBRANCH  23  28
ENDBRANCH  18  23
ENDBRANCH  17  18
ENDBRANCH  12  17
BRANCH  11  32
HETATM   32  O1  UNL     1      14.584  44.244  -3.518  1.00  0.00    -0.392 OA
ATOM     33  H1  UNL     1      14.634  45.182  -3.662  1.00  0.00     0.210 HD
ENDBRANCH  11  32
BRANCH  13  34
HETATM   34  C25 UNL     1      16.550  46.306   0.245  1.00  0.00     0.194 C
BRANCH  34  35
HETATM   35  O4  UNL     1      15.353  46.848   0.584  1.00  0.00    -0.317 OA
BRANCH  35  36
HETATM   36  C26 UNL     1      14.047  46.727   0.340  1.00  0.00     0.283 C
HETATM   37  O5  UNL     1      13.244  46.848   1.292  1.00  0.00    -0.260 OA
BRANCH  36  38
HETATM   38  C27 UNL     1      13.504  46.454  -1.011  1.00  0.00     0.084 C
HETATM   39  C28 UNL     1      13.211  47.451  -1.802  1.00  0.00    -0.082 C
HETATM   40  C29 UNL     1      12.653  47.153  -3.189  1.00  0.00     0.043 C
HETATM   41  C30 UNL     1      13.359  48.887  -1.498  1.00  0.00     0.043 C
ENDBRANCH  36  38
ENDBRANCH  35  36
ENDBRANCH  34  35
ENDBRANCH  13  34
BRANCH  15  42
HETATM   42  C33 UNL     1      19.112  47.918   0.237  1.00  0.00     0.126 C
BRANCH  42  43
HETATM   43  C34 UNL     1      20.082  47.726   1.328  1.00  0.00     0.259 C
HETATM   44  O6  UNL     1      21.312  47.701   1.208  1.00  0.00    -0.265 OA
BRANCH  43  45
HETATM   45  O7  UNL     1      19.575  47.556   2.627  1.00  0.00    -0.326 OA
HETATM   46  C35 UNL     1      18.701  48.519   3.177  1.00  0.00     0.213 C
ENDBRANCH  43  45
ENDBRANCH  42  43
ENDBRANCH  15  42
TORSDOF 17
ENDMDL