MODEL 4
REMARK VINA RESULT: -8.226845287      4.776     10.960
REMARK  15 active torsions:
REMARK  status: ('A' for Active; 'I' for Inactive)
REMARK    1  A    between atoms: C2_2  and  C3_3
REMARK    2  A    between atoms: C3_3  and  C4_4
REMARK    3  A    between atoms: C3_3  and  C25_36
REMARK    4  A    between atoms: C5_5  and  C6_6
REMARK    5  A    between atoms: C10_12  and  C11_13
REMARK    6  A    between atoms: C13_15  and  C14_16
REMARK    7  A    between atoms: C14_16  and  O3_17
REMARK    8  A    between atoms: C14_16  and  C15_19
REMARK    9  A    between atoms: C15_19  and  S1_20
REMARK   10  A    between atoms: S1_20  and  C16_21
REMARK   11  A    between atoms: N2_26  and  C19_27
REMARK   12  A    between atoms: C19_27  and  C20_28
REMARK   13  A    between atoms: C24_33  and  O5_34
REMARK   14  A    between atoms: C25_36  and  C26_37
REMARK   15  A    between atoms: C25_36  and  C30_41
ROOT
HETATM    1  C6  UNL     1      17.634  48.624  -0.161  1.00  0.00     0.137 C
HETATM    2  C7  UNL     1      16.705  49.630  -0.663  1.00  0.00     0.269 C
HETATM    3  O1  UNL     1      15.947  50.230   0.137  1.00  0.00    -0.264 OA
HETATM    4  O2  UNL     1      16.597  49.977  -2.002  1.00  0.00    -0.315 OA
HETATM    5  C8  UNL     1      17.669  49.769  -2.853  1.00  0.00     0.138 C
HETATM    6  C9  UNL     1      18.511  51.023  -2.980  1.00  0.00     0.041 C
HETATM    7  C10 UNL     1      18.486  48.559  -2.559  1.00  0.00     0.073 C
HETATM    8  C24 UNL     1      18.666  48.178  -1.138  1.00  0.00     0.146 C
ENDROOT
BRANCH   7   9
HETATM    9  C11 UNL     1      18.154  47.389  -3.459  1.00  0.00    -0.076 C
HETATM   10  C12 UNL     1      16.752  47.269  -3.942  1.00  0.00     0.044 C
HETATM   11  C13 UNL     1      19.077  46.507  -3.803  1.00  0.00     0.008 C
BRANCH  11  12
HETATM   12  C14 UNL     1      18.925  45.327  -4.657  1.00  0.00     0.151 C
BRANCH  12  13
HETATM   13  O3  UNL     1      20.033  45.169  -5.482  1.00  0.00    -0.391 OA
ATOM     14  H3  UNL     1      20.534  44.402  -5.230  1.00  0.00     0.210 HD
ENDBRANCH  12  13
BRANCH  12  15
HETATM   15  C15 UNL     1      18.794  44.070  -3.807  1.00  0.00     0.118 C
BRANCH  15  16
HETATM   16  S1  UNL     1      17.135  43.403  -3.807  1.00  0.00    -0.091 SA
BRANCH  16  17
HETATM   17  C16 UNL     1      16.169  43.796  -5.231  1.00  0.00     0.146 A
HETATM   18  N1  UNL     1      15.269  44.831  -5.249  1.00  0.00    -0.345 N
HETATM   19  C17 UNL     1      14.653  44.875  -6.425  1.00  0.00     0.107 A
ATOM     20  H1  UNL     1      15.098  45.471  -4.474  1.00  0.00     0.167 HD
HETATM   21  C18 UNL     1      15.158  43.860  -7.179  1.00  0.00     0.110 A
HETATM   22  N2  UNL     1      16.091  43.210  -6.421  1.00  0.00    -0.330 N
BRANCH  22  23
HETATM   23  C19 UNL     1      16.825  42.076  -6.901  1.00  0.00     0.195 C
BRANCH  23  24
HETATM   24  C20 UNL     1      18.275  42.324  -7.031  1.00  0.00     0.070 A
HETATM   25  C21 UNL     1      19.318  41.630  -6.483  1.00  0.00     0.036 A
HETATM   26  C22 UNL     1      20.488  42.239  -6.891  1.00  0.00     0.027 A
HETATM   27  C23 UNL     1      20.113  43.292  -7.682  1.00  0.00     0.142 A
HETATM   28  O4  UNL     1      18.808  43.304  -7.738  1.00  0.00    -0.325 OA
ENDBRANCH  23  24
ENDBRANCH  22  23
ENDBRANCH  16  17
ENDBRANCH  15  16
ENDBRANCH  12  15
ENDBRANCH  11  12
ENDBRANCH   7   9
BRANCH   8  29
HETATM   29  O5  UNL     1      18.773  46.764  -1.096  1.00  0.00    -0.394 OA
ATOM     30  H5  UNL     1      19.559  46.523  -0.621  1.00  0.00     0.210 HD
ENDBRANCH   8  29
BRANCH   1  31
HETATM   31  C5  UNL     1      18.284  48.941   1.128  1.00  0.00    -0.013 C
HETATM   32  C4  UNL     1      19.258  48.336   1.720  1.00  0.00    -0.021 C
BRANCH  32  33
HETATM   33  C3  UNL     1      19.809  48.841   3.103  1.00  0.00     0.037 C
BRANCH  33  34
HETATM   34  C2  UNL     1      18.784  49.788   3.466  1.00  0.00     0.008 C
HETATM   35  C1  UNL     1      18.339  49.960   4.888  1.00  0.00     0.006 C
ENDBRANCH  33  34
BRANCH  33  36
HETATM   36  C25 UNL     1      21.233  49.089   2.764  1.00  0.00    -0.065 C
BRANCH  36  37
HETATM   37  C26 UNL     1      21.549  48.156   1.658  1.00  0.00     0.006 C
HETATM   38  C27 UNL     1      22.376  47.933   0.706  1.00  0.00    -0.087 C
HETATM   39  C28 UNL     1      22.124  46.665  -0.190  1.00  0.00     0.043 C
HETATM   40  C29 UNL     1      23.621  48.524   0.221  1.00  0.00     0.043 C
ENDBRANCH  36  37
BRANCH  36  41
HETATM   41  C30 UNL     1      22.277  49.300   3.740  1.00  0.00    -0.027 C
HETATM   42  C31 UNL     1      21.872  48.850   5.178  1.00  0.00     0.019 C
HETATM   43  C32 UNL     1      22.301  50.846   3.970  1.00  0.00     0.019 C
HETATM   44  C33 UNL     1      23.662  48.866   3.549  1.00  0.00     0.019 C
ENDBRANCH  36  41
ENDBRANCH  33  36
ENDBRANCH  32  33
ENDBRANCH   1  31
TORSDOF 15
ENDMDL