MODEL 2
REMARK VINA RESULT: -8.238650151      5.090     10.863
REMARK  14 active torsions:
REMARK  status: ('A' for Active; 'I' for Inactive)
REMARK    1  A    between atoms: C2_2  and  O1_3
REMARK    2  A    between atoms: O1_3  and  C3_4
REMARK    3  A    between atoms: C3_4  and  C4_6
REMARK    4  A    between atoms: C4_6  and  C5_7
REMARK    5  A    between atoms: C4_6  and  C16_20
REMARK    6  A    between atoms: C5_7  and  S1_8
REMARK    7  A    between atoms: S1_8  and  S2_9
REMARK    8  A    between atoms: S2_9  and  C6_10
REMARK    9  A    between atoms: C6_10  and  C7_11
REMARK   10  A    between atoms: C8_12  and  C9_13
REMARK   11  A    between atoms: C16_20  and  O3_21
REMARK   12  A    between atoms: C16_20  and  C17_23
REMARK   13  A    between atoms: C17_23  and  S3_24
REMARK   14  A    between atoms: S3_24  and  C18_25
ROOT
HETATM    1  C18 UNL     1      22.955  51.043   4.966  1.00  0.00     0.002 C
HETATM    2  C19 UNL     1      22.626  50.851   6.194  1.00  0.00     0.044 C
HETATM    3  C20 UNL     1      22.678  49.533   6.803  1.00  0.00     0.097 C
HETATM    4  N1  UNL     1      22.708  48.477   7.336  1.00  0.00    -0.192 NA
HETATM    5  C21 UNL     1      22.158  51.903   7.155  1.00  0.00     0.002 C
HETATM    6  C22 UNL     1      20.740  51.631   7.411  1.00  0.00     0.015 C
HETATM    7  C23 UNL     1      19.888  52.061   6.287  1.00  0.00     0.001 C
HETATM    8  C24 UNL     1      20.349  51.858   4.899  1.00  0.00     0.001 C
HETATM    9  C25 UNL     1      21.372  52.758   4.328  1.00  0.00     0.012 C
HETATM   10  C26 UNL     1      22.803  52.530   4.604  1.00  0.00     0.060 C
HETATM   11  C27 UNL     1      23.421  53.295   5.733  1.00  0.00     0.232 C
HETATM   12  C28 UNL     1      22.300  53.322   6.761  1.00  0.00     0.051 C
HETATM   13  N2  UNL     1      24.507  52.651   6.413  1.00  0.00     0.089 N
HETATM   14  C29 UNL     1      25.720  53.397   6.173  1.00  0.00     0.310 C
HETATM   15  C30 UNL     1      24.367  52.528   7.839  1.00  0.00     0.273 C
HETATM   16  C31 UNL     1      23.133  51.747   8.297  1.00  0.00     0.045 C
ENDROOT
BRANCH   1  17
HETATM   17  S3  UNL     1      23.514  49.952   3.717  1.00  0.00    -0.130 SA
BRANCH  17  18
HETATM   18  C17 UNL     1      22.567  48.470   3.463  1.00  0.00     0.112 C
BRANCH  18  19
HETATM   19  C16 UNL     1      21.120  48.880   3.162  1.00  0.00     0.142 C
BRANCH  19  20
HETATM   20  C4  UNL     1      20.622  48.152   1.942  1.00  0.00     0.125 C
BRANCH  20  21
HETATM   21  C3  UNL     1      19.281  47.581   2.129  1.00  0.00     0.266 C
HETATM   22  O2  UNL     1      19.166  46.330   2.357  1.00  0.00    -0.265 OA
BRANCH  21  23
HETATM   23  O1  UNL     1      18.149  48.372   2.062  1.00  0.00    -0.321 OA
BRANCH  23  24
HETATM   24  C2  UNL     1      18.158  49.444   1.151  1.00  0.00     0.174 C
HETATM   25  C1  UNL     1      17.318  49.207  -0.064  1.00  0.00     0.034 C
ENDBRANCH  23  24
ENDBRANCH  21  23
ENDBRANCH  20  21
BRANCH  20  26
HETATM   26  C5  UNL     1      21.611  47.126   1.490  1.00  0.00     0.103 C
BRANCH  26  27
HETATM   27  S1  UNL     1      22.036  47.300  -0.256  1.00  0.00    -0.096 SA
BRANCH  27  28
HETATM   28  S2  UNL     1      20.301  47.264  -1.432  1.00  0.00    -0.094 SA
BRANCH  28  29
HETATM   29  C6  UNL     1      20.298  45.852  -2.565  1.00  0.00     0.112 C
BRANCH  29  30
HETATM   30  C7  UNL     1      19.563  46.162  -3.800  1.00  0.00    -0.019 C
HETATM   31  C8  UNL     1      19.397  45.357  -4.811  1.00  0.00    -0.025 C
BRANCH  31  32
HETATM   32  C9  UNL     1      19.905  43.985  -4.927  1.00  0.00     0.011 C
HETATM   33  C10 UNL     1      18.833  42.969  -4.512  1.00  0.00     0.009 C
HETATM   34  C11 UNL     1      19.537  41.631  -4.410  1.00  0.00     0.001 C
HETATM   35  C12 UNL     1      20.126  41.219  -5.728  1.00  0.00     0.000 C
HETATM   36  C13 UNL     1      20.927  42.314  -6.375  1.00  0.00     0.005 C
HETATM   37  C14 UNL     1      20.209  43.641  -6.391  1.00  0.00    -0.011 C
HETATM   38  C15 UNL     1      18.984  43.600  -7.241  1.00  0.00     0.010 C
ENDBRANCH  31  32
ENDBRANCH  29  30
ENDBRANCH  28  29
ENDBRANCH  27  28
ENDBRANCH  26  27
ENDBRANCH  20  26
ENDBRANCH  19  20
BRANCH  19  39
HETATM   39  O3  UNL     1      20.326  48.562   4.276  1.00  0.00    -0.394 OA
ATOM     40  H3  UNL     1      20.665  48.990   5.053  1.00  0.00     0.210 HD
ENDBRANCH  19  39
ENDBRANCH  18  19
ENDBRANCH  17  18
ENDBRANCH   1  17
TORSDOF 14
ENDMDL