MODEL 3
REMARK VINA RESULT: -8.278096708      3.706      5.595
REMARK  16 active torsions:
REMARK  status: ('A' for Active; 'I' for Inactive)
REMARK    1  A    between atoms: C2_2  and  N1_3
REMARK    2  A    between atoms: C3_4  and  O1_5
REMARK    3  A    between atoms: C4_7  and  C5_8
REMARK    4  A    between atoms: C7_10  and  C8_11
REMARK    5  A    between atoms: C8_11  and  C9_12
REMARK    6  A    between atoms: C9_12  and  C10_13
REMARK    7  A    between atoms: C10_13  and  N2_14
REMARK    8  A    between atoms: N2_14  and  C11_17
REMARK    9  A    between atoms: C11_17  and  C13_19
REMARK   10  A    between atoms: C13_19  and  C14_20
REMARK   11  A    between atoms: C14_20  and  C15_21
REMARK   12  A    between atoms: C15_21  and  C16_22
REMARK   13  A    between atoms: C16_22  and  C17_23
REMARK   14  A    between atoms: C17_23  and  O3_25
REMARK   15  A    between atoms: O3_25  and  C18_26
REMARK   16  A    between atoms: N3_41  and  C32_42
ROOT
HETATM    1  N2  UNL     1      19.810  47.867  -1.507  1.00  0.00    -0.068 N
ATOM      2  H21 UNL     1      18.968  48.062  -0.965  1.00  0.00     0.277 HD
ATOM      3  H22 UNL     1      20.412  48.595  -1.122  1.00  0.00     0.277 HD
ENDROOT
BRANCH   1   4
HETATM    4  C10 UNL     1      19.588  48.048  -2.930  1.00  0.00     0.233 C
BRANCH   4   5
HETATM    5  C9  UNL     1      18.262  48.646  -3.241  1.00  0.00     0.031 C
BRANCH   5   6
HETATM    6  C8  UNL     1      17.152  47.673  -3.462  1.00  0.00     0.029 C
BRANCH   6   7
HETATM    7  C7  UNL     1      17.553  46.610  -4.425  1.00  0.00    -0.019 C
HETATM    8  C5  UNL     1      17.174  45.368  -4.425  1.00  0.00    -0.046 C
HETATM    9  C6  UNL     1      16.302  44.933  -3.283  1.00  0.00     0.049 C
BRANCH   8  10
HETATM   10  C4  UNL     1      17.613  44.399  -5.402  1.00  0.00     0.089 A
HETATM   11  C3  UNL     1      16.761  44.068  -6.469  1.00  0.00     0.161 A
HETATM   12  N1  UNL     1      17.086  43.109  -7.384  1.00  0.00    -0.304 N
HETATM   13  C34 UNL     1      18.251  42.448  -7.285  1.00  0.00     0.185 A
HETATM   14  N3  UNL     1      19.102  42.720  -6.293  1.00  0.00    -0.290 N
HETATM   15  S1  UNL     1      18.598  41.312  -8.401  1.00  0.00    -0.040 SA
HETATM   16  C31 UNL     1      18.784  43.685  -5.363  1.00  0.00     0.264 A
HETATM   17  O4  UNL     1      19.616  43.895  -4.452  1.00  0.00    -0.267 OA
BRANCH  11  18
HETATM   18  O1  UNL     1      15.564  44.732  -6.601  1.00  0.00    -0.345 OA
ATOM     19  H1  UNL     1      15.168  45.121  -5.829  1.00  0.00     0.219 HD
ENDBRANCH  11  18
BRANCH  12  20
HETATM   20  C2  UNL     1      16.189  42.780  -8.486  1.00  0.00     0.129 C
HETATM   21  C1  UNL     1      16.337  43.733  -9.645  1.00  0.00     0.027 C
ENDBRANCH  12  20
BRANCH  14  22
HETATM   22  C32 UNL     1      20.367  42.027  -6.159  1.00  0.00     0.130 C
HETATM   23  C33 UNL     1      20.272  40.840  -5.225  1.00  0.00     0.027 C
ENDBRANCH  14  22
ENDBRANCH   8  10
ENDBRANCH   6   7
ENDBRANCH   5   6
ENDBRANCH   4   5
ENDBRANCH   1   4
BRANCH   1  24
HETATM   24  C11 UNL     1      20.333  46.530  -1.234  1.00  0.00     0.204 C
HETATM   25  C12 UNL     1      19.192  45.594  -0.959  1.00  0.00     0.044 C
BRANCH  24  26
HETATM   26  C13 UNL     1      21.269  46.519  -0.116  1.00  0.00     0.005 C
BRANCH  26  27
HETATM   27  C14 UNL     1      22.525  46.927  -0.247  1.00  0.00    -0.002 C
BRANCH  27  28
HETATM   28  C15 UNL     1      23.023  48.027   0.552  1.00  0.00     0.006 C
BRANCH  28  29
HETATM   29  C16 UNL     1      22.582  48.289   1.742  1.00  0.00     0.082 C
BRANCH  29  30
HETATM   30  C17 UNL     1      23.251  48.922   2.840  1.00  0.00     0.283 C
HETATM   31  O2  UNL     1      23.270  48.570   4.038  1.00  0.00    -0.260 OA
BRANCH  30  32
HETATM   32  O3  UNL     1      23.991  50.088   2.597  1.00  0.00    -0.313 OA
BRANCH  32  33
HETATM   33  C18 UNL     1      24.691  50.783   3.609  1.00  0.00     0.133 C
HETATM   34  C19 UNL     1      26.097  51.109   3.230  1.00  0.00     0.033 C
HETATM   35  C20 UNL     1      26.765  51.756   4.416  1.00  0.00     0.012 C
HETATM   36  C21 UNL     1      26.110  53.058   4.812  1.00  0.00    -0.036 C
HETATM   37  C22 UNL     1      27.006  54.173   4.307  1.00  0.00     0.016 C
HETATM   38  C23 UNL     1      26.127  53.154   6.319  1.00  0.00     0.010 C
HETATM   39  C28 UNL     1      24.760  53.243   4.203  1.00  0.00    -0.031 C
HETATM   40  C24 UNL     1      24.834  52.807   6.976  1.00  0.00     0.001 C
HETATM   41  C25 UNL     1      23.670  53.603   6.451  1.00  0.00     0.005 C
HETATM   42  C26 UNL     1      23.957  54.191   5.105  1.00  0.00    -0.010 C
HETATM   43  C27 UNL     1      22.625  54.450   4.425  1.00  0.00     0.011 C
HETATM   44  C29 UNL     1      24.851  53.942   2.863  1.00  0.00     0.016 C
HETATM   45  C30 UNL     1      23.952  52.003   4.076  1.00  0.00     0.042 C
ENDBRANCH  32  33
ENDBRANCH  30  32
ENDBRANCH  29  30
ENDBRANCH  28  29
ENDBRANCH  27  28
ENDBRANCH  26  27
ENDBRANCH  24  26
ENDBRANCH   1  24
TORSDOF 16
ENDMDL