MODEL 4
REMARK VINA RESULT: -8.139337468      6.380     12.332
REMARK  15 active torsions:
REMARK  status: ('A' for Active; 'I' for Inactive)
REMARK    1  A    between atoms: O1_2  and  C2_3
REMARK    2  A    between atoms: C2_3  and  C4_5
REMARK    3  A    between atoms: C2_3  and  C16_22
REMARK    4  A    between atoms: C4_5  and  C5_6
REMARK    5  A    between atoms: C5_6  and  C6_7
REMARK    6  A    between atoms: C6_7  and  C7_8
REMARK    7  A    between atoms: C7_8  and  O2_9
REMARK    8  A    between atoms: C7_8  and  C8_11
REMARK    9  A    between atoms: C8_11  and  C9_13
REMARK   10  A    between atoms: C9_13  and  C10_14
REMARK   11  A    between atoms: C10_14  and  S1_15
REMARK   12  A    between atoms: S1_15  and  C11_16
REMARK   13  A    between atoms: C11_16  and  C12_17
REMARK   14  A    between atoms: C21_27  and  C22_28
REMARK   15  A    between atoms: C25_31  and  O4_32
ROOT
HETATM    1  C16 UNL     1      29.574  49.835  -1.908  1.00  0.00     0.029 C
HETATM    2  C17 UNL     1      30.134  51.084  -1.272  1.00  0.00     0.009 C
HETATM    3  C18 UNL     1      30.450  52.052  -2.390  1.00  0.00     0.010 C
HETATM    4  C19 UNL     1      30.022  51.367  -3.653  1.00  0.00     0.023 C
HETATM    5  C20 UNL     1      31.084  51.306  -4.626  1.00  0.00    -0.074 C
HETATM    6  C21 UNL     1      32.043  51.244  -5.499  1.00  0.00     0.003 C
HETATM    7  C31 UNL     1      31.495  50.086  -3.440  1.00  0.00     0.044 C
HETATM    8  C32 UNL     1      30.013  49.980  -3.343  1.00  0.00    -0.027 C
HETATM    9  C33 UNL     1      29.513  48.966  -4.336  1.00  0.00     0.016 C
ENDROOT
BRANCH   1  10
HETATM   10  C2  UNL     1      28.123  49.782  -1.592  1.00  0.00     0.061 C
HETATM   11  C3  UNL     1      27.518  48.510  -1.171  1.00  0.00     0.046 C
BRANCH  10  12
HETATM   12  O1  UNL     1      27.499  50.187  -2.809  1.00  0.00    -0.385 OA
HETATM   13  C1  UNL     1      26.617  51.233  -2.569  1.00  0.00     0.202 C
ENDBRANCH  10  12
BRANCH  10  14
HETATM   14  C4  UNL     1      27.884  50.818  -0.528  1.00  0.00     0.038 C
BRANCH  14  15
HETATM   15  C5  UNL     1      26.776  50.360   0.447  1.00  0.00     0.006 C
BRANCH  15  16
HETATM   16  C6  UNL     1      26.658  51.469   1.473  1.00  0.00     0.039 C
BRANCH  16  17
HETATM   17  C7  UNL     1      25.622  51.244   2.538  1.00  0.00     0.187 C
BRANCH  17  18
HETATM   18  O2  UNL     1      26.292  50.765   3.713  1.00  0.00    -0.388 OA
ATOM     19  H2  UNL     1      25.630  50.500   4.340  1.00  0.00     0.210 HD
ENDBRANCH  17  18
BRANCH  17  20
HETATM   20  C8  UNL     1      25.116  52.616   3.023  1.00  0.00     0.156 C
HETATM   21  O3  UNL     1      25.387  53.606   2.425  1.00  0.00    -0.295 OA
BRANCH  20  22
HETATM   22  C9  UNL     1      24.297  52.655   4.249  1.00  0.00     0.091 C
BRANCH  22  23
HETATM   23  C10 UNL     1      22.894  52.165   4.044  1.00  0.00     0.081 C
BRANCH  23  24
HETATM   24  S1  UNL     1      22.568  50.879   5.312  1.00  0.00    -0.164 SA
BRANCH  24  25
HETATM   25  C11 UNL     1      23.171  49.279   4.784  1.00  0.00     0.112 C
BRANCH  25  26
HETATM   26  C12 UNL     1      22.462  48.853   3.501  1.00  0.00    -0.042 A
HETATM   27  C13 UNL     1      23.131  48.513   2.393  1.00  0.00     0.015 A
HETATM   28  C14 UNL     1      22.404  48.081   1.318  1.00  0.00     0.050 A
HETATM   29  S2  UNL     1      20.803  48.162   1.888  1.00  0.00    -0.113 SA
HETATM   30  C15 UNL     1      21.096  48.737   3.462  1.00  0.00     0.057 A
ENDBRANCH  25  26
ENDBRANCH  24  25
ENDBRANCH  23  24
ENDBRANCH  22  23
ENDBRANCH  20  22
ENDBRANCH  17  20
ENDBRANCH  16  17
ENDBRANCH  15  16
ENDBRANCH  14  15
ENDBRANCH  10  14
ENDBRANCH   1  10
BRANCH   6  31
HETATM   31  C22 UNL     1      31.925  52.211  -6.624  1.00  0.00     0.004 C
HETATM   32  C23 UNL     1      32.959  52.549  -7.313  1.00  0.00    -0.062 C
HETATM   33  C24 UNL     1      34.321  52.042  -7.093  1.00  0.00     0.067 C
HETATM   34  C28 UNL     1      32.829  53.623  -8.366  1.00  0.00     0.037 C
HETATM   35  C25 UNL     1      35.167  53.103  -6.378  1.00  0.00     0.129 C
HETATM   36  C26 UNL     1      34.663  54.492  -6.757  1.00  0.00     0.111 C
HETATM   37  C27 UNL     1      34.041  54.500  -8.102  1.00  0.00     0.141 C
HETATM   38  O5  UNL     1      34.440  55.166  -9.005  1.00  0.00    -0.297 OA
HETATM   39  C29 UNL     1      32.918  53.006  -9.716  1.00  0.00     0.028 C
HETATM   40  C30 UNL     1      31.616  54.471  -8.154  1.00  0.00     0.028 C
BRANCH  35  41
HETATM   41  O4  UNL     1      36.453  52.963  -6.859  1.00  0.00    -0.395 OA
ATOM     42  H4  UNL     1      36.976  52.639  -6.136  1.00  0.00     0.210 HD
ENDBRANCH  35  41
ENDBRANCH   6  31
TORSDOF 15
ENDMDL