MODEL 2
REMARK VINA RESULT: -9.821212798      3.083      8.729
REMARK  16 active torsions:
REMARK  status: ('A' for Active; 'I' for Inactive)
REMARK    1  A    between atoms: C5_5  and  C6_6
REMARK    2  A    between atoms: C6_6  and  S1_9
REMARK    3  A    between atoms: S1_9  and  C9_10
REMARK    4  A    between atoms: C9_10  and  C10_11
REMARK    5  A    between atoms: C10_11  and  C11_12
REMARK    6  A    between atoms: C10_11  and  C19_26
REMARK    7  A    between atoms: C11_12  and  C12_13
REMARK    8  A    between atoms: C12_13  and  O2_15
REMARK    9  A    between atoms: O2_15  and  C13_16
REMARK   10  A    between atoms: C13_16  and  C14_17
REMARK   11  A    between atoms: C18_23  and  O5_24
REMARK   12  A    between atoms: C19_26  and  C21_28
REMARK   13  A    between atoms: C21_28  and  C22_29
REMARK   14  A    between atoms: C23_30  and  C25_32
REMARK   15  A    between atoms: C26_33  and  C27_34
REMARK   16  A    between atoms: C29_37  and  O7_38
ROOT
HETATM    1  C10 UNL     1      20.220  47.225   0.372  1.00  0.00     0.008 C
ENDROOT
BRANCH   1   2
HETATM    2  C9  UNL     1      19.707  45.966  -0.374  1.00  0.00     0.080 C
BRANCH   2   3
HETATM    3  S1  UNL     1      18.323  46.127  -1.407  1.00  0.00    -0.159 SA
BRANCH   3   4
HETATM    4  C6  UNL     1      18.738  46.406  -3.127  1.00  0.00     0.004 C
HETATM    5  C7  UNL     1      17.359  46.637  -3.835  1.00  0.00     0.027 C
HETATM    6  C8  UNL     1      19.581  47.617  -3.329  1.00  0.00     0.027 C
BRANCH   4   7
HETATM    7  C5  UNL     1      19.277  45.168  -3.809  1.00  0.00     0.004 C
HETATM    8  C4  UNL     1      20.768  45.119  -3.905  1.00  0.00     0.010 C
HETATM    9  C3  UNL     1      21.135  43.695  -4.344  1.00  0.00     0.034 C
HETATM   10  C2  UNL     1      19.929  42.971  -4.851  1.00  0.00    -0.085 C
HETATM   11  C1  UNL     1      19.623  41.736  -4.462  1.00  0.00     0.014 C
HETATM   12  C32 UNL     1      19.076  43.705  -5.826  1.00  0.00     0.010 C
HETATM   13  C31 UNL     1      18.614  45.002  -5.160  1.00  0.00     0.014 C
HETATM   14  C33 UNL     1      19.837  43.979  -7.113  1.00  0.00     0.015 C
ENDBRANCH   4   7
ENDBRANCH   3   4
ENDBRANCH   2   3
ENDBRANCH   1   2
BRANCH   1  15
HETATM   15  C11 UNL     1      19.660  47.092   1.744  1.00  0.00     0.116 C
BRANCH  15  16
HETATM   16  C12 UNL     1      19.468  48.352   2.495  1.00  0.00     0.259 C
HETATM   17  O1  UNL     1      18.838  49.286   1.952  1.00  0.00    -0.265 OA
BRANCH  16  18
HETATM   18  O2  UNL     1      19.953  48.534   3.751  1.00  0.00    -0.318 OA
BRANCH  18  19
HETATM   19  C13 UNL     1      20.439  49.678   4.373  1.00  0.00     0.219 C
BRANCH  19  20
HETATM   20  C14 UNL     1      21.716  49.565   5.128  1.00  0.00     0.115 C
HETATM   21  C15 UNL     1      22.744  48.713   4.379  1.00  0.00     0.052 C
HETATM   22  O3  UNL     1      22.330  50.738   5.532  1.00  0.00    -0.305 OA
HETATM   23  C16 UNL     1      22.603  50.786   6.867  1.00  0.00     0.262 C
HETATM   24  O4  UNL     1      22.913  51.791   7.580  1.00  0.00    -0.265 OA
HETATM   25  C17 UNL     1      22.482  49.416   7.425  1.00  0.00     0.146 C
HETATM   26  C18 UNL     1      21.489  48.791   6.440  1.00  0.00     0.164 C
BRANCH  26  27
HETATM   27  O5  UNL     1      20.225  49.110   6.872  1.00  0.00    -0.392 OA
ATOM     28  H5  UNL     1      19.736  49.385   6.105  1.00  0.00     0.210 HD
ENDBRANCH  26  27
ENDBRANCH  19  20
ENDBRANCH  18  19
ENDBRANCH  16  18
ENDBRANCH  15  16
ENDBRANCH   1  15
BRANCH   1  29
HETATM   29  C19 UNL     1      21.685  47.183   0.208  1.00  0.00    -0.010 C
HETATM   30  C20 UNL     1      22.200  46.547  -1.059  1.00  0.00     0.010 C
BRANCH  29  31
HETATM   31  C21 UNL     1      22.684  48.069   0.790  1.00  0.00     0.032 C
BRANCH  31  32
HETATM   32  C22 UNL     1      23.818  48.465  -0.065  1.00  0.00    -0.020 C
HETATM   33  C23 UNL     1      24.755  49.373   0.355  1.00  0.00    -0.066 C
HETATM   34  C24 UNL     1      24.708  50.020   1.667  1.00  0.00     0.048 C
BRANCH  33  35
HETATM   35  C25 UNL     1      25.832  49.688  -0.559  1.00  0.00     0.007 C
HETATM   36  C26 UNL     1      27.003  50.093  -0.163  1.00  0.00     0.014 C
BRANCH  36  37
HETATM   37  C27 UNL     1      28.037  50.391  -1.166  1.00  0.00    -0.009 A
HETATM   38  C28 UNL     1      28.151  49.855  -2.430  1.00  0.00     0.156 A
HETATM   39  O6  UNL     1      29.195  50.382  -2.987  1.00  0.00    -0.300 OA
HETATM   40  C29 UNL     1      29.784  51.230  -2.187  1.00  0.00     0.183 A
HETATM   41  C30 UNL     1      29.079  51.271  -1.006  1.00  0.00     0.077 A
BRANCH  40  42
HETATM   42  O7  UNL     1      30.934  51.988  -2.443  1.00  0.00    -0.341 OA
ATOM     43  H7  UNL     1      30.981  52.899  -2.705  1.00  0.00     0.220 HD
ENDBRANCH  40  42
ENDBRANCH  36  37
ENDBRANCH  33  35
ENDBRANCH  31  32
ENDBRANCH  29  31
ENDBRANCH   1  29
TORSDOF 16
ENDMDL