MODEL 1
REMARK VINA RESULT: -5.489055085      0.000      0.000
REMARK  2 active torsions:
REMARK  status: ('A' for Active; 'I' for Inactive)
REMARK    1  A    between atoms: C3_7  and  N3_8
REMARK    2  A    between atoms: C5_11  and  C6_12
ROOT
HETATM    1  C1  UNL     1      38.775   5.597  11.535  1.00  0.00     0.149 C
HETATM    2  N1  UNL     1      37.489   5.176  11.047  1.00  0.00    -0.366 N
ATOM      3  H1  UNL     1      36.750   5.872  10.960  1.00  0.00     0.162 HD
HETATM    4  C2  UNL     1      37.225   3.931  10.706  1.00  0.00     0.176 C
HETATM    5  N2  UNL     1      38.106   2.843  10.767  1.00  0.00    -0.336 N
ATOM      6  H2  UNL     1      39.055   2.885  11.139  1.00  0.00     0.165 HD
HETATM    7  C3  UNL     1      37.489   1.665  10.233  1.00  0.00     0.229 C
HETATM    8  C5  UNL     1      36.070   2.075  10.061  1.00  0.00     0.063 C
HETATM    9  N4  UNL     1      35.970   3.446  10.169  1.00  0.00    -0.330 N
ATOM     10  H4  UNL     1      35.161   4.014   9.917  1.00  0.00     0.168 HD
ENDROOT
BRANCH   8  11
HETATM   11  C6  UNL     1      35.337   1.265   9.060  1.00  0.00     0.207 C
HETATM   12  O1  UNL     1      34.871   0.119   9.675  1.00  0.00    -0.353 OA
HETATM   13  C7  UNL     1      33.789   0.488  10.426  1.00  0.00     0.340 C
HETATM   14  O2  UNL     1      33.261   1.624   9.853  1.00  0.00    -0.354 OA
HETATM   15  C8  UNL     1      33.993   1.849   8.674  1.00  0.00     0.087 C
HETATM   16  C9  UNL     1      33.935   3.246   8.230  1.00  0.00     0.049 C
HETATM   17  C10 UNL     1      33.400   0.876   7.643  1.00  0.00     0.049 C
ENDBRANCH   8  11
BRANCH   7  18
HETATM   18  N3  UNL     1      37.521   0.507  11.047  1.00  0.00    -0.401 N
HETATM   19  C4  UNL     1      37.908   0.513  12.373  1.00  0.00     0.142 C
ATOM     20  H3  UNL     1      37.243  -0.382  10.631  1.00  0.00     0.155 HD
ENDBRANCH   7  18
TORSDOF 2
ENDMDL