MODEL 4
REMARK VINA RESULT: -5.399317215      3.310      5.425
REMARK  6 active torsions:
REMARK  status: ('A' for Active; 'I' for Inactive)
REMARK    1  A    between atoms: C2_2  and  C3_3
REMARK    2  A    between atoms: C3_3  and  O1_5
REMARK    3  A    between atoms: O1_5  and  C5_6
REMARK    4  A    between atoms: C9_11  and  O3_12
REMARK    5  A    between atoms: C10_14  and  O4_15
REMARK    6  A    between atoms: C11_17  and  O5_18
ROOT
HETATM    1  C5  UNL     1      35.292   3.734   8.009  1.00  0.00     0.189 C
HETATM    2  C6  UNL     1      35.602   3.570   9.507  1.00  0.00     0.082 C
HETATM    3  O2  UNL     1      36.534   3.697   7.379  1.00  0.00    -0.345 OA
HETATM    4  C7  UNL     1      37.351   4.746   7.603  1.00  0.00     0.152 C
HETATM    5  C8  UNL     1      38.669   4.480   6.902  1.00  0.00     0.042 C
HETATM    6  C9  UNL     1      36.718   5.968   6.936  1.00  0.00     0.178 C
HETATM    7  C10 UNL     1      35.443   6.234   7.658  1.00  0.00     0.183 C
HETATM    8  C11 UNL     1      34.580   5.033   7.868  1.00  0.00     0.211 C
ENDROOT
BRANCH   1   9
HETATM    9  O1  UNL     1      34.645   2.625   7.537  1.00  0.00    -0.348 OA
BRANCH   9  10
HETATM   10  C3  UNL     1      34.374   1.593   8.362  1.00  0.00     0.120 C
HETATM   11  C4  UNL     1      35.027   0.307   7.819  1.00  0.00     0.039 C
BRANCH  10  12
HETATM   12  C2  UNL     1      32.883   1.318   8.333  1.00  0.00     0.027 C
HETATM   13  C1  UNL     1      32.360   0.928   9.698  1.00  0.00     0.007 C
ENDBRANCH  10  12
ENDBRANCH   9  10
ENDBRANCH   1   9
BRANCH   8  14
HETATM   14  O5  UNL     1      33.858   5.287   9.061  1.00  0.00    -0.387 OA
ATOM     15  H5  UNL     1      33.861   6.223   9.225  1.00  0.00     0.210 HD
ENDBRANCH   8  14
BRANCH   7  16
HETATM   16  O4  UNL     1      34.694   7.215   6.984  1.00  0.00    -0.390 OA
ATOM     17  H4  UNL     1      35.271   7.830   6.546  1.00  0.00     0.210 HD
ENDBRANCH   7  16
BRANCH   6  18
HETATM   18  O3  UNL     1      37.547   7.064   7.015  1.00  0.00    -0.390 OA
ATOM     19  H3  UNL     1      37.759   7.399   6.151  1.00  0.00     0.210 HD
ENDBRANCH   6  18
TORSDOF 6
ENDMDL