MODEL 1
REMARK VINA RESULT: -6.152616628      0.000      0.000
REMARK  5 active torsions:
REMARK  status: ('A' for Active; 'I' for Inactive)
REMARK    1  A    between atoms: C5_5  and  C6_6
REMARK    2  A    between atoms: C6_6  and  O1_7
REMARK    3  A    between atoms: C10_13  and  O3_14
REMARK    4  A    between atoms: C10_13  and  C11_16
REMARK    5  A    between atoms: C11_16  and  O4_17
ROOT
HETATM    1  C1  UNL     1      37.650   2.057   8.445  1.00  0.00     0.047 C
HETATM    2  C2  UNL     1      36.758   1.116   9.225  1.00  0.00     0.069 C
HETATM    3  C3  UNL     1      36.239   0.081   8.299  1.00  0.00     0.039 C
HETATM    4  C4  UNL     1      34.868   0.277   7.793  1.00  0.00     0.010 C
HETATM    5  C5  UNL     1      34.363   1.662   7.723  1.00  0.00     0.010 C
HETATM    6  C7  UNL     1      34.930   2.613   8.719  1.00  0.00     0.016 C
HETATM    7  C8  UNL     1      35.564   1.847   9.830  1.00  0.00     0.044 C
HETATM    8  C9  UNL     1      35.999   2.670  10.993  1.00  0.00     0.181 C
HETATM    9  O2  UNL     1      37.330   2.649  11.270  1.00  0.00    -0.331 OA
HETATM   10  C10 UNL     1      37.968   1.454  11.167  1.00  0.00     0.303 C
HETATM   11  O5  UNL     1      37.429   0.546  10.303  1.00  0.00    -0.320 OA
ENDROOT
BRANCH  10  12
HETATM   12  O3  UNL     1      39.285   1.722  10.723  1.00  0.00    -0.342 OA
ATOM     13  H3  UNL     1      39.263   1.732   9.772  1.00  0.00     0.215 HD
ENDBRANCH  10  12
BRANCH  10  14
HETATM   14  C11 UNL     1      38.112   0.759  12.527  1.00  0.00     0.266 C
BRANCH  14  15
HETATM   15  O4  UNL     1      38.181  -0.617  12.391  1.00  0.00    -0.393 OA
ATOM     16  H4  UNL     1      37.992  -1.059  13.210  1.00  0.00     0.209 HD
ENDBRANCH  14  15
ENDBRANCH  10  14
BRANCH   5  17
HETATM   17  C6  UNL     1      32.847   1.642   7.935  1.00  0.00     0.168 C
BRANCH  17  18
HETATM   18  O1  UNL     1      32.493   0.406   8.416  1.00  0.00    -0.400 OA
ATOM     19  H1  UNL     1      32.644   0.395   9.353  1.00  0.00     0.209 HD
ENDBRANCH  17  18
ENDBRANCH   5  17
TORSDOF 5
ENDMDL