MODEL 4
REMARK VINA RESULT: -5.194710388      2.046      4.705
REMARK  6 active torsions:
REMARK  status: ('A' for Active; 'I' for Inactive)
REMARK    1  A    between atoms: C2_2  and  O1_3
REMARK    2  A    between atoms: O1_3  and  C3_4
REMARK    3  A    between atoms: C5_7  and  O3_8
REMARK    4  A    between atoms: C6_10  and  O4_11
REMARK    5  A    between atoms: C6_10  and  C7_13
REMARK    6  A    between atoms: C11_17  and  O5_18
ROOT
HETATM    1  C3  UNL     1      37.493   1.563   9.725  1.00  0.00     0.291 C
HETATM    2  O2  UNL     1      36.904   0.552  10.489  1.00  0.00    -0.356 OA
HETATM    3  C4  UNL     1      35.954   1.194  11.279  1.00  0.00     0.206 C
HETATM    4  C5  UNL     1      34.732   1.367  10.403  1.00  0.00     0.179 C
HETATM    5  C6  UNL     1      35.096   1.905   9.042  1.00  0.00     0.122 C
HETATM    6  C11 UNL     1      36.460   2.493   9.138  1.00  0.00     0.211 C
ENDROOT
BRANCH   5   7
HETATM    7  O4  UNL     1      34.224   3.013   8.833  1.00  0.00    -0.384 OA
ATOM      8  H4  UNL     1      33.432   2.639   8.464  1.00  0.00     0.210 HD
ENDBRANCH   5   7
BRANCH   5   9
HETATM    9  C7  UNL     1      34.815   0.995   7.917  1.00  0.00    -0.015 C
HETATM   10  C8  UNL     1      34.880   1.812   6.616  1.00  0.00     0.018 C
HETATM   11  C9  UNL     1      35.702  -0.171   7.703  1.00  0.00     0.018 C
HETATM   12  C10 UNL     1      33.388   0.492   8.009  1.00  0.00     0.018 C
ENDBRANCH   5   9
BRANCH   4  13
HETATM   13  O3  UNL     1      34.047   0.183  10.407  1.00  0.00    -0.390 OA
ATOM     14  H3  UNL     1      33.938  -0.090   9.504  1.00  0.00     0.210 HD
ENDBRANCH   4  13
BRANCH   6  15
HETATM   15  O5  UNL     1      36.984   3.047   8.005  1.00  0.00    -0.387 OA
ATOM     16  H5  UNL     1      37.677   3.644   8.262  1.00  0.00     0.210 HD
ENDBRANCH   6  15
BRANCH   1  17
HETATM   17  O1  UNL     1      38.306   2.280  10.606  1.00  0.00    -0.359 OA
BRANCH  17  18
HETATM   18  C2  UNL     1      39.568   2.520  10.077  1.00  0.00     0.166 C
HETATM   19  C1  UNL     1      40.009   1.244   9.388  1.00  0.00     0.033 C
ENDBRANCH  17  18
ENDBRANCH   1  17
TORSDOF 6
ENDMDL