MODEL 2
REMARK VINA RESULT: -5.664213746      1.266      1.421
REMARK  5 active torsions:
REMARK  status: ('A' for Active; 'I' for Inactive)
REMARK    1  A    between atoms: C2_2  and  S1_3
REMARK    2  A    between atoms: S1_3  and  C3_4
REMARK    3  A    between atoms: C5_6  and  O1_7
REMARK    4  A    between atoms: C9_13  and  O3_14
REMARK    5  A    between atoms: C10_16  and  O4_17
ROOT
HETATM    1  C3  UNL     1      35.880   2.965  10.437  1.00  0.00     0.079 C
HETATM    2  C4  UNL     1      35.886   4.192   9.524  1.00  0.00     0.052 C
HETATM    3  C5  UNL     1      34.728   4.192   8.510  1.00  0.00     0.150 C
HETATM    4  C6  UNL     1      34.187   2.896   8.707  1.00  0.00     0.181 C
HETATM    5  O2  UNL     1      35.324   2.104   8.456  1.00  0.00    -0.374 OA
HETATM    6  C7  UNL     1      35.611   1.670   9.760  1.00  0.00     0.138 C
HETATM    7  C8  UNL     1      34.343   0.942  10.093  1.00  0.00     0.067 C
HETATM    8  C9  UNL     1      33.381   0.768   8.918  1.00  0.00     0.152 C
HETATM    9  C10 UNL     1      33.166   2.082   8.143  1.00  0.00     0.178 C
ENDROOT
BRANCH   1  10
HETATM   10  S1  UNL     1      37.481   3.046  11.283  1.00  0.00    -0.162 SA
BRANCH  10  11
HETATM   11  C2  UNL     1      38.258   4.614  11.366  1.00  0.00     0.070 C
HETATM   12  C1  UNL     1      38.474   4.983  12.832  1.00  0.00     0.016 C
ENDBRANCH  10  11
ENDBRANCH   1  10
BRANCH   3  13
HETATM   13  O1  UNL     1      33.854   5.212   8.919  1.00  0.00    -0.393 OA
ATOM     14  H1  UNL     1      33.238   5.331   8.206  1.00  0.00     0.210 HD
ENDBRANCH   3  13
BRANCH   8  15
HETATM   15  O3  UNL     1      32.192   0.281   9.419  1.00  0.00    -0.393 OA
ATOM     16  H3  UNL     1      31.976  -0.508   8.934  1.00  0.00     0.210 HD
ENDBRANCH   8  15
BRANCH   9  17
HETATM   17  O4  UNL     1      33.195   1.874   6.778  1.00  0.00    -0.390 OA
ATOM     18  H4  UNL     1      32.835   2.555   6.222  1.00  0.00     0.210 HD
ENDBRANCH   9  17
TORSDOF 5
ENDMDL