MODEL 2
REMARK VINA RESULT: -5.093542142      2.497      4.412
REMARK  5 active torsions:
REMARK  status: ('A' for Active; 'I' for Inactive)
REMARK    1  A    between atoms: C3_3  and  C4_4
REMARK    2  A    between atoms: C4_4  and  O1_5
REMARK    3  A    between atoms: C5_7  and  O2_8
REMARK    4  A    between atoms: C9_14  and  O4_15
REMARK    5  A    between atoms: C9_14  and  N1_17
ROOT
HETATM    1  C1  UNL     1      38.051   0.964  11.909  1.00  0.00     0.019 C
HETATM    2  C2  UNL     1      37.939   2.016  10.855  1.00  0.00     0.093 C
HETATM    3  C3  UNL     1      36.742   1.987  10.006  1.00  0.00     0.043 C
HETATM    4  C5  UNL     1      35.822   3.145  10.023  1.00  0.00     0.132 C
HETATM    5  C6  UNL     1      35.231   3.072   8.603  1.00  0.00     0.035 C
HETATM    6  C7  UNL     1      36.290   2.337   7.761  1.00  0.00     0.035 C
HETATM    7  C8  UNL     1      37.418   2.322   8.655  1.00  0.00     0.141 C
HETATM    8  O3  UNL     1      38.381   1.399   8.632  1.00  0.00    -0.324 OA
HETATM    9  C9  UNL     1      39.058   1.730   9.836  1.00  0.00     0.374 C
ENDROOT
BRANCH   9  10
HETATM   10  O4  UNL     1      39.906   0.751  10.251  1.00  0.00    -0.341 OA
ATOM     11  H4  UNL     1      40.539   0.510   9.585  1.00  0.00     0.215 HD
ENDBRANCH   9  10
BRANCH   9  12
HETATM   12  N1  UNL     1      39.745   2.985   9.598  1.00  0.00     0.143 N
HETATM   13  C10 UNL     1      40.985   2.789   8.907  1.00  0.00     0.316 C
HETATM   14  C11 UNL     1      39.955   3.755  10.787  1.00  0.00     0.316 C
ENDBRANCH   9  12
BRANCH   3  15
HETATM   15  C4  UNL     1      36.054   0.653   9.935  1.00  0.00     0.179 C
BRANCH  15  16
HETATM   16  O1  UNL     1      34.958   0.631  10.744  1.00  0.00    -0.400 OA
ATOM     17  H1  UNL     1      34.820  -0.239  11.100  1.00  0.00     0.209 HD
ENDBRANCH  15  16
ENDBRANCH   3  15
BRANCH   4  18
HETATM   18  O2  UNL     1      36.594   4.308  10.160  1.00  0.00    -0.395 OA
ATOM     19  H2  UNL     1      36.022   5.055  10.029  1.00  0.00     0.210 HD
ENDBRANCH   4  18
TORSDOF 5
ENDMDL