MODEL 1
REMARK VINA RESULT: -5.859864344      0.000      0.000
REMARK  5 active torsions:
REMARK  status: ('A' for Active; 'I' for Inactive)
REMARK    1  A    between atoms: C2_2  and  C4_4
REMARK    2  A    between atoms: C4_4  and  N1_6
REMARK    3  A    between atoms: N1_6  and  N2_8
REMARK    4  A    between atoms: N2_8  and  C5_10
REMARK    5  A    between atoms: C5_10  and  C6_12
ROOT
HETATM    1  C5  UNL     1      33.061   0.568   9.891  1.00  0.00     0.162 C
HETATM    2  S2  UNL     1      32.717   1.177   8.420  1.00  0.00    -0.055 SA
ENDROOT
BRANCH   1   3
HETATM    3  N2  UNL     1      34.386   0.564  10.415  1.00  0.00    -0.286 N
ATOM      4  H2  UNL     1      34.549   0.612  11.421  1.00  0.00     0.188 HD
BRANCH   3   5
HETATM    5  N1  UNL     1      35.454   0.492   9.523  1.00  0.00    -0.292 N
ATOM      6  H1  UNL     1      35.359  -0.001   8.636  1.00  0.00     0.187 HD
BRANCH   5   7
HETATM    7  C4  UNL     1      36.674   1.116   9.874  1.00  0.00     0.095 C
HETATM    8  S1  UNL     1      37.875   1.269   8.782  1.00  0.00    -0.064 SA
BRANCH   7   9
HETATM    9  C2  UNL     1      36.810   1.621  11.265  1.00  0.00     0.040 C
HETATM   10  C1  UNL     1      38.008   0.978  11.946  1.00  0.00     0.017 C
HETATM   11  C3  UNL     1      36.975   3.104  11.335  1.00  0.00     0.017 C
ENDBRANCH   7   9
ENDBRANCH   5   7
ENDBRANCH   3   5
ENDBRANCH   1   3
BRANCH   1  12
HETATM   12  C6  UNL     1      31.971   0.007  10.697  1.00  0.00     0.177 A
HETATM   13  N3  UNL     1      31.349   0.592  11.729  1.00  0.00    -0.266 N
HETATM   14  N4  UNL     1      30.433  -0.229  12.184  1.00  0.00    -0.226 N
ATOM     15  H3  UNL     1      31.555   1.519  12.100  1.00  0.00     0.190 HD
HETATM   16  N5  UNL     1      30.448  -1.332  11.468  1.00  0.00    -0.226 N
ATOM     17  H4  UNL     1      29.807  -0.042  12.969  1.00  0.00     0.210 HD
HETATM   18  N6  UNL     1      31.387  -1.191  10.558  1.00  0.00    -0.266 N
ATOM     19  H5  UNL     1      29.845  -2.144  11.595  1.00  0.00     0.210 HD
ATOM     20  H6  UNL     1      31.633  -1.887   9.853  1.00  0.00     0.190 HD
ENDBRANCH   1  12
TORSDOF 5
ENDMDL