MODEL 2
REMARK VINA RESULT: -5.759536052      1.636      2.292
REMARK  5 active torsions:
REMARK  status: ('A' for Active; 'I' for Inactive)
REMARK    1  A    between atoms: C5_5  and  S1_6
REMARK    2  A    between atoms: S1_6  and  C6_7
REMARK    3  A    between atoms: C8_10  and  O2_11
REMARK    4  A    between atoms: C9_13  and  O3_14
REMARK    5  A    between atoms: C10_16  and  N1_17
ROOT
HETATM    1  C1  UNL     1      31.079  -0.119  11.604  1.00  0.00     0.102 C
HETATM    2  C2  UNL     1      31.909   0.250  10.759  1.00  0.00    -0.153 C
HETATM    3  C3  UNL     1      32.860   0.665   9.771  1.00  0.00    -0.015 C
HETATM    4  C4  UNL     1      32.477   1.199   8.458  1.00  0.00     0.057 C
HETATM    5  C5  UNL     1      34.138   0.539  10.086  1.00  0.00     0.062 C
ENDROOT
BRANCH   5   6
HETATM    6  S1  UNL     1      35.405   1.041   8.895  1.00  0.00    -0.106 SA
BRANCH   6   7
HETATM    7  C6  UNL     1      37.013   1.010   9.746  1.00  0.00     0.220 C
HETATM    8  O1  UNL     1      37.943   1.630   8.956  1.00  0.00    -0.370 OA
HETATM    9  C7  UNL     1      39.198   1.689   9.545  1.00  0.00     0.203 C
HETATM   10  C8  UNL     1      39.216   2.315  10.897  1.00  0.00     0.172 C
HETATM   11  C9  UNL     1      38.146   1.681  11.771  1.00  0.00     0.182 C
HETATM   12  C10 UNL     1      36.820   1.787  11.044  1.00  0.00     0.253 C
BRANCH  10  13
HETATM   13  O2  UNL     1      39.018   3.691  10.848  1.00  0.00    -0.391 OA
ATOM     14  H2  UNL     1      39.708   4.139  10.375  1.00  0.00     0.210 HD
ENDBRANCH  10  13
BRANCH  11  15
HETATM   15  O3  UNL     1      38.451   0.314  11.855  1.00  0.00    -0.391 OA
ATOM     16  H3  UNL     1      39.387   0.252  12.011  1.00  0.00     0.210 HD
ENDBRANCH  11  15
BRANCH  12  17
HETATM   17  N1  UNL     1      36.443   3.113  10.704  1.00  0.00    -0.069 N
ATOM     18  H13 UNL     1      37.130   3.807  10.998  1.00  0.00     0.275 HD
ATOM     19  H12 UNL     1      36.489   3.292   9.700  1.00  0.00     0.275 HD
ATOM     20  H11 UNL     1      35.516   3.282  11.094  1.00  0.00     0.275 HD
ENDBRANCH  12  17
ENDBRANCH   6   7
ENDBRANCH   5   6
TORSDOF 5
ENDMDL