MODEL 3
REMARK VINA RESULT: -5.458844060      1.670      2.269
REMARK  5 active torsions:
REMARK  status: ('A' for Active; 'I' for Inactive)
REMARK    1  A    between atoms: O1_2  and  C2_3
REMARK    2  A    between atoms: C5_7  and  C6_8
REMARK    3  A    between atoms: C8_10  and  N1_11
REMARK    4  A    between atoms: C9_15  and  O3_16
REMARK    5  A    between atoms: C11_19  and  O4_20
ROOT
HETATM    1  C6  UNL     1      35.677   1.031   9.024  1.00  0.00     0.048 C
HETATM    2  C7  UNL     1      35.898   2.283   8.234  1.00  0.00     0.045 C
HETATM    3  C8  UNL     1      34.745   2.474   7.284  1.00  0.00     0.212 C
HETATM    4  C9  UNL     1      33.540   1.666   7.686  1.00  0.00     0.151 C
HETATM    5  C10 UNL     1      33.300   1.823   9.165  1.00  0.00     0.066 C
HETATM    6  C11 UNL     1      34.432   1.173   9.895  1.00  0.00     0.127 C
ENDROOT
BRANCH   1   7
HETATM    7  C5  UNL     1      36.817   0.706   9.950  1.00  0.00     0.157 C
HETATM    8  C2  UNL     1      37.983   1.635   9.825  1.00  0.00     0.152 C
HETATM    9  C3  UNL     1      38.738   1.326  11.126  1.00  0.00     0.061 C
HETATM   10  C4  UNL     1      37.614   0.894  12.019  1.00  0.00     0.171 C
HETATM   11  O2  UNL     1      36.461   0.837  11.281  1.00  0.00    -0.383 OA
BRANCH   8  12
HETATM   12  O1  UNL     1      38.744   1.267   8.716  1.00  0.00    -0.388 OA
HETATM   13  C1  UNL     1      40.097   1.175   9.028  1.00  0.00     0.202 C
ENDBRANCH   8  12
ENDBRANCH   1   7
BRANCH   6  14
HETATM   14  O4  UNL     1      34.085  -0.090  10.375  1.00  0.00    -0.395 OA
ATOM     15  H4  UNL     1      34.764  -0.381  10.972  1.00  0.00     0.210 HD
ENDBRANCH   6  14
BRANCH   3  16
HETATM   16  N1  UNL     1      34.347   3.870   7.180  1.00  0.00    -0.073 N
ATOM     17  H13 UNL     1      33.641   4.000   6.456  1.00  0.00     0.274 HD
ATOM     18  H12 UNL     1      33.802   4.161   7.991  1.00  0.00     0.274 HD
ATOM     19  H11 UNL     1      35.146   4.486   7.032  1.00  0.00     0.274 HD
ENDBRANCH   3  16
BRANCH   4  20
HETATM   20  O3  UNL     1      32.401   2.130   7.032  1.00  0.00    -0.393 OA
ATOM     21  H3  UNL     1      31.617   1.843   7.483  1.00  0.00     0.210 HD
ENDBRANCH   4  20
TORSDOF 5
ENDMDL