MODEL 3
REMARK VINA RESULT: -5.713696145      1.115      1.115
REMARK  4 active torsions:
REMARK  status: ('A' for Active; 'I' for Inactive)
REMARK    1  A    between atoms: O1_2  and  C2_3
REMARK    2  A    between atoms: C5_6  and  S1_7
REMARK    3  A    between atoms: S1_7  and  C6_8
REMARK    4  A    between atoms: C7_13  and  O2_14
ROOT
HETATM    1  C2  UNL     1      32.561   1.164   9.791  1.00  0.00     0.152 C
HETATM    2  C3  UNL     1      32.630   1.070   8.282  1.00  0.00     0.036 C
HETATM    3  C4  UNL     1      33.567   2.026   7.654  1.00  0.00     0.021 C
HETATM    4  C5  UNL     1      35.010   1.765   7.716  1.00  0.00     0.086 C
HETATM    5  C7  UNL     1      35.482   0.842   8.816  1.00  0.00     0.164 C
HETATM    6  C8  UNL     1      34.898   1.298  10.084  1.00  0.00     0.183 A
HETATM    7  O3  UNL     1      34.615   0.620  11.199  1.00  0.00    -0.370 OA
HETATM    8  C9  UNL     1      33.696   0.356  10.287  1.00  0.00     0.182 A
ENDROOT
BRANCH   4   9
HETATM    9  S1  UNL     1      35.864   3.352   7.996  1.00  0.00    -0.090 SA
BRANCH   9  10
HETATM   10  C6  UNL     1      34.758   4.726   7.740  1.00  0.00     0.148 C
HETATM   11  N1  UNL     1      34.588   5.233   6.572  1.00  0.00    -0.382 N
ATOM     12  H12 UNL     1      35.084   4.862   5.762  1.00  0.00     0.157 HD
ATOM     13  H11 UNL     1      33.955   6.019   6.425  1.00  0.00     0.157 HD
HETATM   14  N2  UNL     1      34.070   5.242   8.865  1.00  0.00    -0.075 NA
ENDBRANCH   9  10
ENDBRANCH   4   9
BRANCH   5  15
HETATM   15  O2  UNL     1      36.874   0.996   8.879  1.00  0.00    -0.392 OA
ATOM     16  H2  UNL     1      37.065   1.825   8.455  1.00  0.00     0.210 HD
ENDBRANCH   5  15
BRANCH   1  17
HETATM   17  O1  UNL     1      31.390   0.722  10.324  1.00  0.00    -0.388 OA
HETATM   18  C1  UNL     1      31.369   0.627  11.704  1.00  0.00     0.202 C
ENDBRANCH   1  17
TORSDOF 4
ENDMDL