MODEL 4
REMARK VINA RESULT: -6.565099579      2.996      4.476
REMARK  6 active torsions:
REMARK  status: ('A' for Active; 'I' for Inactive)
REMARK    1  A    between atoms: O1_2  and  C2_3
REMARK    2  A    between atoms: C4_5  and  C5_6
REMARK    3  A    between atoms: C8_10  and  O2_11
REMARK    4  A    between atoms: C11_15  and  O3_16
REMARK    5  A    between atoms: C21_28  and  O4_29
REMARK    6  A    between atoms: O4_29  and  C22_30
ROOT
HETATM    1  C5  UNL     1     -23.702 -18.603  14.531  1.00  0.00     0.144 C
HETATM    2  N1  UNL     1     -23.705 -17.428  15.364  1.00  0.00    -0.370 N
HETATM    3  C6  UNL     1     -23.029 -16.242  14.885  1.00  0.00     0.150 C
HETATM    4  C7  UNL     1     -24.327 -17.348  16.634  1.00  0.00     0.092 A
HETATM    5  C8  UNL     1     -23.998 -16.434  17.606  1.00  0.00     0.103 A
HETATM    6  C9  UNL     1     -24.658 -16.428  18.807  1.00  0.00     0.007 A
HETATM    7  C10 UNL     1     -24.283 -15.436  19.850  1.00  0.00     0.054 C
HETATM    8  C11 UNL     1     -25.650 -17.353  19.009  1.00  0.00     0.082 A
HETATM    9  C12 UNL     1     -26.029 -18.311  18.053  1.00  0.00     0.001 A
HETATM   10  C13 UNL     1     -27.066 -19.310  18.264  1.00  0.00     0.054 C
HETATM   11  C14 UNL     1     -25.352 -18.289  16.869  1.00  0.00     0.069 A
HETATM   12  N2  UNL     1     -25.687 -19.226  15.851  1.00  0.00    -0.372 N
HETATM   13  C15 UNL     1     -27.048 -19.618  15.703  1.00  0.00     0.150 C
HETATM   14  C16 UNL     1     -24.581 -19.710  14.992  1.00  0.00     0.050 C
HETATM   15  C17 UNL     1     -23.873 -20.771  15.807  1.00  0.00     0.041 C
HETATM   16  C18 UNL     1     -25.131 -20.427  13.776  1.00  0.00     0.041 C
ENDROOT
BRANCH   1  17
HETATM   17  C4  UNL     1     -22.303 -19.061  14.309  1.00  0.00    -0.030 A
HETATM   18  C3  UNL     1     -21.799 -19.294  13.036  1.00  0.00     0.049 A
HETATM   19  C2  UNL     1     -20.509 -19.719  12.813  1.00  0.00     0.102 A
HETATM   20  C21 UNL     1     -19.647 -19.936  13.868  1.00  0.00     0.102 A
HETATM   21  C20 UNL     1     -20.112 -19.716  15.140  1.00  0.00     0.040 A
HETATM   22  C19 UNL     1     -21.426 -19.283  15.350  1.00  0.00     0.012 A
BRANCH  19  23
HETATM   23  O1  UNL     1     -20.122 -19.917  11.493  1.00  0.00    -0.353 OA
HETATM   24  C1  UNL     1     -20.025 -18.879  10.558  1.00  0.00     0.210 C
ENDBRANCH  19  23
BRANCH  20  25
HETATM   25  O4  UNL     1     -18.368 -20.360  13.605  1.00  0.00    -0.344 OA
BRANCH  25  26
HETATM   26  C22 UNL     1     -17.210 -20.149  14.331  1.00  0.00     0.121 C
HETATM   27  C23 UNL     1     -16.658 -21.417  14.949  1.00  0.00     0.040 C
HETATM   28  C24 UNL     1     -16.096 -19.562  13.474  1.00  0.00     0.040 C
ENDBRANCH  25  26
ENDBRANCH  20  25
ENDBRANCH   1  17
BRANCH   5  29
HETATM   29  O2  UNL     1     -23.000 -15.542  17.334  1.00  0.00    -0.358 OA
ATOM     30  H2  UNL     1     -22.162 -15.666  17.765  1.00  0.00     0.217 HD
ENDBRANCH   5  29
BRANCH   8  31
HETATM   31  O3  UNL     1     -26.367 -17.404  20.215  1.00  0.00    -0.359 OA
ATOM     32  H3  UNL     1     -25.960 -17.699  21.020  1.00  0.00     0.217 HD
ENDBRANCH   8  31
TORSDOF 6
ENDMDL