MODEL 5
REMARK VINA RESULT: -5.600844215      2.276      3.622
REMARK  6 active torsions:
REMARK  status: ('A' for Active; 'I' for Inactive)
REMARK    1  A    between atoms: C2_2  and  O2_4
REMARK    2  A    between atoms: O2_4  and  C3_5
REMARK    3  A    between atoms: C12_14  and  O3_15
REMARK    4  A    between atoms: C20_24  and  C22_26
REMARK    5  A    between atoms: C22_26  and  C23_27
REMARK    6  A    between atoms: C23_27  and  C24_28
ROOT
HETATM    1  C3  UNL     1     -24.681 -19.171  12.644  1.00  0.00     0.230 C
HETATM    2  C4  UNL     1     -23.890 -17.915  12.337  1.00  0.00     0.058 C
HETATM    3  C5  UNL     1     -22.530 -17.802  12.909  1.00  0.00    -0.011 C
HETATM    4  C6  UNL     1     -21.638 -17.393  11.704  1.00  0.00     0.010 C
HETATM    5  C7  UNL     1     -22.404 -16.719  13.920  1.00  0.00     0.049 C
HETATM    6  C8  UNL     1     -22.226 -17.123  15.348  1.00  0.00     0.111 C
HETATM    7  C9  UNL     1     -21.327 -16.064  16.014  1.00  0.00     0.054 C
HETATM    8  C10 UNL     1     -21.685 -18.473  15.574  1.00  0.00     0.016 C
HETATM    9  C11 UNL     1     -22.128 -19.668  15.662  1.00  0.00     0.033 C
HETATM   10  C12 UNL     1     -23.368 -20.385  15.593  1.00  0.00     0.070 C
HETATM   11  C13 UNL     1     -24.396 -20.644  14.604  1.00  0.00     0.079 C
HETATM   12  C14 UNL     1     -24.132 -22.001  13.970  1.00  0.00     0.046 C
HETATM   13  C15 UNL     1     -25.807 -20.709  15.217  1.00  0.00     0.072 C
HETATM   14  C16 UNL     1     -25.933 -19.331  14.789  1.00  0.00     0.048 C
HETATM   15  C17 UNL     1     -27.283 -19.061  14.164  1.00  0.00     0.043 C
HETATM   16  C18 UNL     1     -25.523 -18.156  15.624  1.00  0.00     0.003 C
HETATM   17  C19 UNL     1     -25.303 -17.827  16.808  1.00  0.00     0.012 C
HETATM   18  C20 UNL     1     -24.860 -16.576  17.550  1.00  0.00     0.111 C
HETATM   19  C21 UNL     1     -25.640 -15.353  17.401  1.00  0.00     0.054 C
HETATM   20  O4  UNL     1     -23.518 -16.295  17.054  1.00  0.00    -0.225 OA
HETATM   21  O5  UNL     1     -23.426 -16.957  15.927  1.00  0.00    -0.225 OA
HETATM   22  N2  UNL     1     -24.844 -19.606  13.887  1.00  0.00    -0.360 N
ENDROOT
BRANCH  18  23
HETATM   23  C22 UNL     1     -24.587 -16.954  18.993  1.00  0.00     0.050 C
BRANCH  23  24
HETATM   24  C23 UNL     1     -24.725 -15.832  19.943  1.00  0.00     0.047 C
BRANCH  24  25
HETATM   25  C24 UNL     1     -25.737 -16.044  20.995  1.00  0.00     0.052 C
HETATM   26  N1  UNL     1     -26.384 -15.098  21.563  1.00  0.00    -0.411 N
ATOM     27  H12 UNL     1     -26.175 -14.147  21.258  1.00  0.00     0.155 HD
ATOM     28  H11 UNL     1     -27.083 -15.244  22.290  1.00  0.00     0.155 HD
ENDBRANCH  24  25
ENDBRANCH  23  24
ENDBRANCH  18  23
BRANCH   1  29
HETATM   29  O2  UNL     1     -24.095 -20.129  11.754  1.00  0.00    -0.296 OA
BRANCH  29  30
HETATM   30  C2  UNL     1     -24.814 -20.537  10.652  1.00  0.00     0.256 C
HETATM   31  C1  UNL     1     -25.983 -21.477  10.782  1.00  0.00     0.126 C
HETATM   32  O1  UNL     1     -24.544 -20.158   9.484  1.00  0.00    -0.266 OA
ENDBRANCH  29  30
ENDBRANCH   1  29
BRANCH  10  33
HETATM   33  O3  UNL     1     -23.683 -20.992  16.729  1.00  0.00    -0.362 OA
ATOM     34  H3  UNL     1     -24.580 -21.303  16.750  1.00  0.00     0.217 HD
ENDBRANCH  10  33
TORSDOF 6
ENDMDL