MODEL 3
REMARK VINA RESULT: -8.285848514      1.268      1.868
REMARK  5 active torsions:
REMARK  status: ('A' for Active; 'I' for Inactive)
REMARK    1  A    between atoms: O1_2  and  C2_3
REMARK    2  A    between atoms: C4_5  and  C5_6
REMARK    3  A    between atoms: C8_10  and  C9_11
REMARK    4  A    between atoms: C20_24  and  O2_25
REMARK    5  A    between atoms: C22_27  and  O3_28
ROOT
HETATM    1  C5  UNL     1     -22.248 -15.671  13.847  1.00  0.00     0.022 C
HETATM    2  C6  UNL     1     -22.876 -16.659  14.425  1.00  0.00    -0.011 C
HETATM    3  C7  UNL     1     -23.489 -16.466  15.788  1.00  0.00     0.042 A
HETATM    4  S1  UNL     1     -23.478 -15.555  17.231  1.00  0.00    -0.089 SA
HETATM    5  C8  UNL     1     -24.725 -16.365  18.073  1.00  0.00     0.017 A
HETATM    6  C13 UNL     1     -25.117 -17.334  17.189  1.00  0.00     0.088 A
HETATM    7  N1  UNL     1     -26.185 -18.217  17.605  1.00  0.00    -0.099 NA
HETATM    8  C14 UNL     1     -24.466 -17.373  16.010  1.00  0.00     0.074 A
HETATM    9  N2  UNL     1     -24.497 -18.164  14.798  1.00  0.00    -0.369 N
HETATM   10  C15 UNL     1     -25.571 -18.941  14.239  1.00  0.00     0.151 C
HETATM   11  C16 UNL     1     -23.160 -18.049  14.169  1.00  0.00     0.054 C
HETATM   12  C17 UNL     1     -22.188 -18.903  14.998  1.00  0.00     0.044 C
HETATM   13  C18 UNL     1     -23.220 -18.598  12.814  1.00  0.00     0.044 C
ENDROOT
BRANCH   1  14
HETATM   14  C4  UNL     1     -21.603 -15.617  12.577  1.00  0.00    -0.030 A
HETATM   15  C3  UNL     1     -21.584 -16.627  11.677  1.00  0.00     0.051 A
HETATM   16  C2  UNL     1     -20.915 -16.513  10.478  1.00  0.00     0.105 A
HETATM   17  C22 UNL     1     -20.255 -15.329  10.210  1.00  0.00     0.135 A
HETATM   18  C20 UNL     1     -20.241 -14.266  11.088  1.00  0.00     0.105 A
HETATM   19  C19 UNL     1     -20.923 -14.437  12.263  1.00  0.00     0.051 A
BRANCH  16  20
HETATM   20  O1  UNL     1     -20.894 -17.567   9.541  1.00  0.00    -0.353 OA
HETATM   21  C1  UNL     1     -20.572 -18.849  10.038  1.00  0.00     0.210 C
ENDBRANCH  16  20
BRANCH  17  22
HETATM   22  O3  UNL     1     -19.589 -15.263   8.974  1.00  0.00    -0.351 OA
HETATM   23  C23 UNL     1     -20.371 -14.952   7.840  1.00  0.00     0.210 C
ENDBRANCH  17  22
BRANCH  18  24
HETATM   24  O2  UNL     1     -19.554 -13.130  10.720  1.00  0.00    -0.353 OA
HETATM   25  C21 UNL     1     -18.222 -12.851  11.021  1.00  0.00     0.210 C
ENDBRANCH  18  24
ENDBRANCH   1  14
BRANCH   5  26
HETATM   26  C9  UNL     1     -25.195 -16.018  19.438  1.00  0.00    -0.016 C
HETATM   27  C10 UNL     1     -25.785 -17.209  20.155  1.00  0.00     0.020 C
HETATM   28  C11 UNL     1     -26.207 -14.886  19.390  1.00  0.00     0.020 C
HETATM   29  C12 UNL     1     -23.992 -15.533  20.221  1.00  0.00     0.020 C
ENDBRANCH   5  26
TORSDOF 5
ENDMDL