MODEL 5
REMARK VINA RESULT: -6.203180970      5.479      9.172
REMARK  9 active torsions:
REMARK  status: ('A' for Active; 'I' for Inactive)
REMARK    1  A    between atoms: C2_2  and  C3_3
REMARK    2  A    between atoms: C3_3  and  C4_4
REMARK    3  A    between atoms: C4_4  and  O2_6
REMARK    4  A    between atoms: O2_6  and  C5_7
REMARK    5  A    between atoms: C6_8  and  C7_9
REMARK    6  A    between atoms: C15_19  and  O5_20
REMARK    7  A    between atoms: C17_23  and  O6_24
REMARK    8  A    between atoms: O6_24  and  C18_25
REMARK    9  A    between atoms: C18_25  and  C19_29
ROOT
HETATM    1  C5  UNL     1     -24.882 -18.174  16.227  1.00  0.00     0.108 A
HETATM    2  C6  UNL     1     -23.895 -17.321  15.655  1.00  0.00     0.060 A
HETATM    3  C11 UNL     1     -23.408 -16.315  16.458  1.00  0.00     0.298 A
HETATM    4  O3  UNL     1     -22.520 -15.458  16.090  1.00  0.00    -0.259 OA
HETATM    5  O4  UNL     1     -23.817 -16.138  17.688  1.00  0.00    -0.273 OA
HETATM    6  C12 UNL     1     -24.715 -16.898  18.258  1.00  0.00     0.104 A
HETATM    7  C13 UNL     1     -25.063 -16.626  19.571  1.00  0.00     0.006 A
HETATM    8  C14 UNL     1     -24.443 -15.490  20.302  1.00  0.00     0.054 C
HETATM    9  C15 UNL     1     -25.991 -17.446  20.138  1.00  0.00     0.077 A
HETATM   10  C16 UNL     1     -26.551 -18.488  19.448  1.00  0.00     0.075 A
HETATM   11  C17 UNL     1     -26.225 -18.783  18.143  1.00  0.00     0.096 A
HETATM   12  C23 UNL     1     -25.276 -17.953  17.524  1.00  0.00     0.067 A
ENDROOT
BRANCH  11  13
HETATM   13  O6  UNL     1     -26.800 -19.854  17.465  1.00  0.00    -0.296 OA
BRANCH  13  14
HETATM   14  C18 UNL     1     -28.094 -20.256  17.646  1.00  0.00     0.125 C
HETATM   15  N1  UNL     1     -28.959 -19.558  16.934  1.00  0.00    -0.383 N
ATOM     16  H12 UNL     1     -28.581 -18.820  16.340  1.00  0.00     0.158 HD
ATOM     17  H11 UNL     1     -29.924 -19.858  17.068  1.00  0.00     0.158 HD
BRANCH  14  18
HETATM   18  C19 UNL     1     -28.641 -21.323  18.504  1.00  0.00     0.014 C
HETATM   19  C20 UNL     1     -29.569 -20.748  19.515  1.00  0.00     0.023 C
HETATM   20  C21 UNL     1     -29.388 -22.311  17.625  1.00  0.00     0.023 C
HETATM   21  C22 UNL     1     -27.566 -22.153  19.203  1.00  0.00     0.023 C
ENDBRANCH  14  18
ENDBRANCH  13  14
ENDBRANCH  11  13
BRANCH   9  22
HETATM   22  O5  UNL     1     -26.377 -17.221  21.443  1.00  0.00    -0.360 OA
ATOM     23  H5  UNL     1     -27.095 -17.727  21.806  1.00  0.00     0.217 HD
ENDBRANCH   9  22
BRANCH   1  24
HETATM   24  O2  UNL     1     -25.403 -19.174  15.450  1.00  0.00    -0.277 OA
BRANCH  24  25
HETATM   25  C4  UNL     1     -26.500 -19.006  14.568  1.00  0.00     0.264 C
HETATM   26  O1  UNL     1     -27.266 -18.025  14.734  1.00  0.00    -0.265 OA
BRANCH  25  27
HETATM   27  C3  UNL     1     -26.697 -19.988  13.484  1.00  0.00     0.111 C
BRANCH  27  28
HETATM   28  C2  UNL     1     -26.115 -21.325  13.811  1.00  0.00     0.005 C
HETATM   29  C1  UNL     1     -27.127 -22.156  14.576  1.00  0.00     0.005 C
ENDBRANCH  27  28
ENDBRANCH  25  27
ENDBRANCH  24  25
ENDBRANCH   1  24
BRANCH   2  30
HETATM   30  C7  UNL     1     -23.367 -17.518  14.318  1.00  0.00    -0.015 C
HETATM   31  C8  UNL     1     -24.170 -17.211  13.121  1.00  0.00     0.020 C
HETATM   32  C9  UNL     1     -22.033 -16.824  14.144  1.00  0.00     0.020 C
HETATM   33  C10 UNL     1     -22.983 -19.031  14.154  1.00  0.00     0.020 C
ENDBRANCH   2  30
TORSDOF 9
ENDMDL