MODEL 4
REMARK VINA RESULT: -7.624797142      1.802      6.955
REMARK  6 active torsions:
REMARK  status: ('A' for Active; 'I' for Inactive)
REMARK    1  A    between atoms: C2_2  and  O2_4
REMARK    2  A    between atoms: O2_4  and  C3_5
REMARK    3  A    between atoms: C6_8  and  O3_10
REMARK    4  A    between atoms: C10_14  and  C11_15
REMARK    5  A    between atoms: C11_15  and  C12_16
REMARK    6  A    between atoms: C19_24  and  C20_25
ROOT
HETATM    1  C3  UNL     1     -20.384 -16.538   9.764  1.00  0.00     0.089 A
HETATM    2  C4  UNL     1     -19.735 -17.179   8.821  1.00  0.00     0.015 A
HETATM    3  C5  UNL     1     -19.697 -18.640   8.738  1.00  0.00     0.072 A
HETATM    4  C6  UNL     1     -20.456 -19.436   9.710  1.00  0.00     0.085 A
HETATM    5  C7  UNL     1     -19.494 -20.463  10.331  1.00  0.00     0.051 C
HETATM    6  C8  UNL     1     -21.130 -18.665  10.773  1.00  0.00    -0.008 A
HETATM    7  C9  UNL     1     -21.811 -19.364  11.782  1.00  0.00     0.019 A
HETATM    8  C10 UNL     1     -22.471 -18.722  12.798  1.00  0.00    -0.045 A
HETATM    9  C16 UNL     1     -22.432 -17.358  12.780  1.00  0.00    -0.010 A
HETATM   10  C17 UNL     1     -21.773 -16.624  11.809  1.00  0.00     0.091 A
HETATM   11  C18 UNL     1     -21.101 -17.265  10.774  1.00  0.00     0.041 A
HETATM   12  O4  UNL     1     -21.762 -15.238  11.842  1.00  0.00    -0.333 OA
HETATM   13  C19 UNL     1     -21.771 -14.598  13.104  1.00  0.00     0.221 C
HETATM   14  C24 UNL     1     -22.279 -15.444  14.185  1.00  0.00     0.164 C
HETATM   15  O5  UNL     1     -22.023 -15.229  15.354  1.00  0.00    -0.294 OA
HETATM   16  C25 UNL     1     -23.139 -16.615  13.861  1.00  0.00     0.123 C
ENDROOT
BRANCH   8  17
HETATM   17  C11 UNL     1     -23.198 -19.439  13.875  1.00  0.00     0.066 C
BRANCH  17  18
HETATM   18  C12 UNL     1     -24.178 -20.403  13.370  1.00  0.00    -0.020 C
HETATM   19  C13 UNL     1     -25.461 -20.077  13.365  1.00  0.00    -0.091 C
HETATM   20  C14 UNL     1     -26.484 -21.056  12.849  1.00  0.00     0.042 C
HETATM   21  C15 UNL     1     -25.963 -18.769  13.850  1.00  0.00     0.042 C
ENDBRANCH  17  18
ENDBRANCH   8  17
BRANCH   4  22
HETATM   22  O3  UNL     1     -21.425 -20.180   8.975  1.00  0.00    -0.385 OA
ATOM     23  H3  UNL     1     -21.514 -21.023   9.404  1.00  0.00     0.211 HD
ENDBRANCH   4  22
BRANCH   1  24
HETATM   24  O2  UNL     1     -20.382 -15.125   9.790  1.00  0.00    -0.279 OA
BRANCH  24  25
HETATM   25  C2  UNL     1     -19.381 -14.439   9.079  1.00  0.00     0.260 C
HETATM   26  C1  UNL     1     -18.154 -13.937   9.706  1.00  0.00     0.126 C
HETATM   27  O1  UNL     1     -19.577 -14.268   7.850  1.00  0.00    -0.265 OA
ENDBRANCH  24  25
ENDBRANCH   1  24
BRANCH  13  28
HETATM   28  C20 UNL     1     -20.427 -14.046  13.414  1.00  0.00     0.015 C
HETATM   29  C21 UNL     1     -19.952 -12.990  12.794  1.00  0.00    -0.088 C
HETATM   30  C22 UNL     1     -20.779 -12.321  11.753  1.00  0.00     0.042 C
HETATM   31  C23 UNL     1     -18.613 -12.437  13.100  1.00  0.00     0.042 C
ENDBRANCH  13  28
TORSDOF 6
ENDMDL