MODEL 1
REMARK VINA RESULT: -8.851752608      0.000      0.000
REMARK  5 active torsions:
REMARK  status: ('A' for Active; 'I' for Inactive)
REMARK    1  A    between atoms: C2_2  and  O1_3
REMARK    2  A    between atoms: O1_3  and  C3_4
REMARK    3  A    between atoms: C11_13  and  O3_14
REMARK    4  A    between atoms: C12_16  and  O4_17
REMARK    5  A    between atoms: C16_21  and  O5_22
ROOT
HETATM    1  C3  UNL     1     -19.958 -13.630  13.034  1.00  0.00     0.304 C
HETATM    2  O2  UNL     1     -20.994 -13.788  14.013  1.00  0.00    -0.315 OA
HETATM    3  C4  UNL     1     -21.700 -14.964  14.096  1.00  0.00     0.084 A
HETATM    4  C5  UNL     1     -22.374 -15.264  15.251  1.00  0.00     0.052 A
HETATM    5  C6  UNL     1     -23.088 -16.436  15.359  1.00  0.00    -0.001 A
HETATM    6  C7  UNL     1     -23.115 -17.304  14.292  1.00  0.00     0.040 A
HETATM    7  C8  UNL     1     -22.431 -17.012  13.106  1.00  0.00     0.045 A
HETATM    8  C9  UNL     1     -21.730 -15.849  13.010  1.00  0.00     0.013 A
HETATM    9  C10 UNL     1     -20.996 -15.494  11.818  1.00  0.00     0.027 A
HETATM   10  C11 UNL     1     -21.139 -16.231  10.670  1.00  0.00     0.111 A
HETATM   11  C12 UNL     1     -20.561 -15.782   9.497  1.00  0.00     0.110 A
HETATM   12  C14 UNL     1     -19.844 -14.616   9.433  1.00  0.00     0.008 A
HETATM   13  C15 UNL     1     -19.235 -14.142   8.168  1.00  0.00     0.054 C
HETATM   14  C16 UNL     1     -19.694 -13.862  10.604  1.00  0.00     0.089 A
HETATM   15  C18 UNL     1     -20.244 -14.282  11.761  1.00  0.00     0.045 A
HETATM   16  N1  UNL     1     -23.843 -18.494  14.413  1.00  0.00    -0.377 N
ATOM     17  H1  UNL     1     -23.858 -19.133  13.618  1.00  0.00     0.160 HD
HETATM   18  C19 UNL     1     -24.562 -18.860  15.582  1.00  0.00     0.041 A
HETATM   19  C20 UNL     1     -26.066 -19.037  15.272  1.00  0.00     0.042 C
HETATM   20  C21 UNL     1     -24.142 -20.230  16.113  1.00  0.00     0.042 C
HETATM   21  C22 UNL     1     -24.472 -17.875  16.658  1.00  0.00     0.011 A
HETATM   22  C23 UNL     1     -23.803 -16.749  16.588  1.00  0.00    -0.051 A
HETATM   23  C24 UNL     1     -23.751 -15.789  17.718  1.00  0.00     0.049 C
ENDROOT
BRANCH   1  24
HETATM   24  O1  UNL     1     -19.602 -12.313  12.979  1.00  0.00    -0.357 OA
BRANCH  24  25
HETATM   25  C2  UNL     1     -18.444 -12.126  13.752  1.00  0.00     0.167 C
HETATM   26  C1  UNL     1     -18.035 -10.692  13.857  1.00  0.00     0.033 C
ENDBRANCH  24  25
ENDBRANCH   1  24
BRANCH  14  27
HETATM   27  O5  UNL     1     -18.974 -12.704  10.480  1.00  0.00    -0.355 OA
HETATM   28  C17 UNL     1     -17.539 -12.748  10.373  1.00  0.00     0.210 C
ENDBRANCH  14  27
BRANCH  10  29
HETATM   29  O3  UNL     1     -21.824 -17.399  10.595  1.00  0.00    -0.357 OA
ATOM     30  H3  UNL     1     -22.707 -17.479  10.252  1.00  0.00     0.217 HD
ENDBRANCH  10  29
BRANCH  11  31
HETATM   31  O4  UNL     1     -20.731 -16.562   8.364  1.00  0.00    -0.352 OA
HETATM   32  C13 UNL     1     -19.723 -17.518   8.087  1.00  0.00     0.210 C
ENDBRANCH  11  31
TORSDOF 5
ENDMDL