MODEL 5
REMARK VINA RESULT: -7.699977819      2.567     10.251
REMARK  7 active torsions:
REMARK  status: ('A' for Active; 'I' for Inactive)
REMARK    1  A    between atoms: O1_2  and  C2_3
REMARK    2  A    between atoms: C4_5  and  C5_6
REMARK    3  A    between atoms: C14_17  and  C15_18
REMARK    4  A    between atoms: C15_18  and  C16_19
REMARK    5  A    between atoms: C20_23  and  O4_24
REMARK    6  A    between atoms: C23_28  and  O5_29
REMARK    7  A    between atoms: C25_31  and  O6_32
ROOT
HETATM    1  C5  UNL     1     -16.629  -7.052  20.175  1.00  0.00     0.017 C
HETATM    2  C6  UNL     1     -16.634  -7.302  18.929  1.00  0.00    -0.040 C
HETATM    3  C7  UNL     1     -17.807  -8.171  18.429  1.00  0.00     0.073 C
HETATM    4  C8  UNL     1     -18.068  -7.657  17.005  1.00  0.00     0.175 C
HETATM    5  O2  UNL     1     -17.687  -6.329  16.979  1.00  0.00    -0.233 OA
HETATM    6  O3  UNL     1     -16.399  -6.102  16.958  1.00  0.00    -0.225 OA
HETATM    7  C9  UNL     1     -15.714  -6.947  17.868  1.00  0.00     0.116 C
HETATM    8  C10 UNL     1     -14.437  -6.251  18.209  1.00  0.00     0.054 C
HETATM    9  C11 UNL     1     -15.259  -8.217  17.086  1.00  0.00     0.051 C
HETATM   10  C12 UNL     1     -15.949  -8.147  15.778  1.00  0.00     0.006 C
HETATM   11  C13 UNL     1     -15.645  -9.237  14.789  1.00  0.00     0.042 C
HETATM   12  C14 UNL     1     -16.912  -9.153  13.960  1.00  0.00    -0.047 C
HETATM   13  C20 UNL     1     -17.912  -8.760  14.736  1.00  0.00     0.053 C
HETATM   14  C21 UNL     1     -17.403  -8.567  16.078  1.00  0.00     0.079 C
ENDROOT
BRANCH   1  15
HETATM   15  C4  UNL     1     -15.765  -6.297  21.066  1.00  0.00    -0.030 A
HETATM   16  C3  UNL     1     -16.290  -5.147  21.684  1.00  0.00     0.051 A
HETATM   17  C2  UNL     1     -15.563  -4.312  22.469  1.00  0.00     0.104 A
HETATM   18  C25 UNL     1     -14.211  -4.619  22.674  1.00  0.00     0.133 A
HETATM   19  C23 UNL     1     -13.628  -5.741  22.093  1.00  0.00     0.104 A
HETATM   20  C22 UNL     1     -14.437  -6.544  21.304  1.00  0.00     0.051 A
BRANCH  17  21
HETATM   21  O1  UNL     1     -16.066  -3.193  23.070  1.00  0.00    -0.353 OA
HETATM   22  C1  UNL     1     -17.403  -2.944  23.428  1.00  0.00     0.210 C
ENDBRANCH  17  21
BRANCH  18  23
HETATM   23  O6  UNL     1     -13.406  -3.817  23.461  1.00  0.00    -0.356 OA
ATOM     24  H6  UNL     1     -12.460  -3.835  23.377  1.00  0.00     0.218 HD
ENDBRANCH  18  23
BRANCH  19  25
HETATM   25  O5  UNL     1     -12.371  -5.989  22.305  1.00  0.00    -0.353 OA
HETATM   26  C24 UNL     1     -11.456  -6.800  22.876  1.00  0.00     0.210 C
ENDBRANCH  19  25
ENDBRANCH   1  15
BRANCH  13  27
HETATM   27  O4  UNL     1     -19.215  -8.585  14.270  1.00  0.00    -0.364 OA
ATOM     28  H4  UNL     1     -19.913  -9.209  14.433  1.00  0.00     0.217 HD
ENDBRANCH  13  27
BRANCH  12  29
HETATM   29  C15 UNL     1     -16.924  -9.488  12.514  1.00  0.00     0.064 C
BRANCH  29  30
HETATM   30  C16 UNL     1     -16.239 -10.793  12.318  1.00  0.00    -0.020 C
HETATM   31  C17 UNL     1     -15.964 -11.240  11.127  1.00  0.00    -0.091 C
HETATM   32  C18 UNL     1     -16.295 -10.520   9.896  1.00  0.00     0.042 C
HETATM   33  C19 UNL     1     -15.279 -12.567  10.984  1.00  0.00     0.042 C
ENDBRANCH  29  30
ENDBRANCH  12  29
TORSDOF 7
ENDMDL