MODEL 1
REMARK VINA RESULT: -8.444259431      0.000      0.000
REMARK  6 active torsions:
REMARK  status: ('A' for Active; 'I' for Inactive)
REMARK    1  A    between atoms: C2_2  and  C3_3
REMARK    2  A    between atoms: C3_3  and  N1_5
REMARK    3  A    between atoms: C8_9  and  O1_10
REMARK    4  A    between atoms: C9_12  and  C10_13
REMARK    5  A    between atoms: C10_13  and  O3_15
REMARK    6  A    between atoms: O3_15  and  C11_16
ROOT
HETATM    1  N1  UNL     1     -17.210 -11.387  12.670  1.00  0.00    -0.351 N
HETATM    2  C5  UNL     1     -16.181 -10.876  11.919  1.00  0.00     0.092 A
HETATM    3  C6  UNL     1     -16.166 -11.430  10.679  1.00  0.00     0.034 A
HETATM    4  C7  UNL     1     -17.212 -12.316  10.641  1.00  0.00     0.027 A
HETATM    5  C8  UNL     1     -17.680 -13.154   9.658  1.00  0.00     0.096 A
HETATM    6  C9  UNL     1     -18.774 -13.952   9.898  1.00  0.00     0.094 A
HETATM    7  C20 UNL     1     -19.389 -13.902  11.126  1.00  0.00     0.071 A
HETATM    8  C21 UNL     1     -20.544 -14.729  11.418  1.00  0.00     0.101 C
HETATM    9  N3  UNL     1     -21.478 -15.388  11.676  1.00  0.00    -0.191 NA
HETATM   10  C22 UNL     1     -18.936 -13.059  12.149  1.00  0.00    -0.012 A
HETATM   11  C23 UNL     1     -19.605 -13.015  13.459  1.00  0.00     0.052 C
HETATM   12  C24 UNL     1     -17.844 -12.269  11.893  1.00  0.00     0.055 A
ENDROOT
BRANCH   6  13
HETATM   13  C10 UNL     1     -19.239 -14.821   8.841  1.00  0.00     0.298 C
HETATM   14  O2  UNL     1     -20.016 -14.380   7.933  1.00  0.00    -0.259 OA
BRANCH  13  15
HETATM   15  O3  UNL     1     -18.886 -16.129   8.751  1.00  0.00    -0.312 OA
BRANCH  15  16
HETATM   16  C11 UNL     1     -19.739 -17.224   9.092  1.00  0.00     0.137 C
HETATM   17  C12 UNL     1     -19.134 -17.986  10.271  1.00  0.00     0.062 C
HETATM   18  C13 UNL     1     -20.087 -19.169  10.477  1.00  0.00     0.021 C
HETATM   19  C14 UNL     1     -19.666 -19.828  11.776  1.00  0.00     0.037 C
HETATM   20  C15 UNL     1     -21.515 -18.701  10.625  1.00  0.00     0.037 C
HETATM   21  N2  UNL     1     -19.879 -20.071   9.410  1.00  0.00    -0.405 N
HETATM   22  C16 UNL     1     -19.817 -19.547   8.108  1.00  0.00     0.021 C
ATOM     23  H2  UNL     1     -19.778 -21.071   9.580  1.00  0.00     0.154 HD
HETATM   24  C17 UNL     1     -20.812 -20.331   7.237  1.00  0.00     0.037 C
HETATM   25  C18 UNL     1     -18.444 -19.896   7.535  1.00  0.00     0.037 C
HETATM   26  C19 UNL     1     -20.035 -18.094   7.931  1.00  0.00     0.062 C
ENDBRANCH  15  16
ENDBRANCH  13  15
ENDBRANCH   6  13
BRANCH   5  27
HETATM   27  O1  UNL     1     -17.046 -13.186   8.434  1.00  0.00    -0.359 OA
ATOM     28  H1  UNL     1     -16.863 -14.024   8.025  1.00  0.00     0.217 HD
ENDBRANCH   5  27
BRANCH   1  29
HETATM   29  C3  UNL     1     -17.415 -10.947  14.000  1.00  0.00     0.085 C
HETATM   30  C4  UNL     1     -16.177 -11.330  14.865  1.00  0.00     0.033 C
BRANCH  29  31
HETATM   31  C2  UNL     1     -17.284  -9.404  13.970  1.00  0.00     0.021 C
HETATM   32  C1  UNL     1     -18.472  -8.745  14.586  1.00  0.00     0.007 C
ENDBRANCH  29  31
ENDBRANCH   1  29
TORSDOF 6
ENDMDL