MODEL 5
REMARK VINA RESULT: -8.533866184      2.078      2.409
REMARK  4 active torsions:
REMARK  status: ('A' for Active; 'I' for Inactive)
REMARK    1  A    between atoms: C2_2  and  C3_3
REMARK    2  A    between atoms: C3_3  and  N1_4
REMARK    3  A    between atoms: N1_4  and  C4_6
REMARK    4  A    between atoms: C9_11  and  N2_12
ROOT
HETATM    1  C1  UNL     1     -16.156  -9.774  12.795  1.00  0.00     0.016 C
HETATM    2  C2  UNL     1     -16.746  -9.951  14.177  1.00  0.00    -0.028 C
HETATM    3  C12 UNL     1     -17.980  -9.123  14.413  1.00  0.00     0.016 C
HETATM    4  C13 UNL     1     -18.096  -8.731  15.892  1.00  0.00     0.072 C
HETATM    5  C14 UNL     1     -16.993  -7.784  16.288  1.00  0.00     0.200 C
HETATM    6  C15 UNL     1     -15.881  -7.964  15.266  1.00  0.00     0.072 C
HETATM    7  C16 UNL     1     -15.662  -9.479  15.155  1.00  0.00     0.016 C
HETATM    8  O3  UNL     1     -17.421  -6.488  16.420  1.00  0.00    -0.197 OA
HETATM    9  O4  UNL     1     -17.735  -6.378  17.711  1.00  0.00    -0.197 OA
HETATM   10  C17 UNL     1     -16.622  -6.919  18.300  1.00  0.00     0.200 C
HETATM   11  C18 UNL     1     -15.442  -6.001  18.097  1.00  0.00     0.071 C
HETATM   12  C19 UNL     1     -14.225  -6.784  18.536  1.00  0.00     0.006 C
HETATM   13  C20 UNL     1     -14.300  -6.924  20.025  1.00  0.00     0.000 C
HETATM   14  C21 UNL     1     -15.658  -6.893  20.618  1.00  0.00     0.006 C
HETATM   15  C22 UNL     1     -16.785  -7.337  19.731  1.00  0.00     0.071 C
HETATM   16  O5  UNL     1     -16.433  -8.071  17.528  1.00  0.00    -0.313 OA
ENDROOT
BRANCH   2  17
HETATM   17  C3  UNL     1     -17.040 -11.432  14.425  1.00  0.00     0.129 C
BRANCH  17  18
HETATM   18  N1  UNL     1     -18.289 -11.790  13.820  1.00  0.00    -0.387 N
ATOM     19  H1  UNL     1     -19.150 -11.614  14.338  1.00  0.00     0.159 HD
BRANCH  18  20
HETATM   20  C4  UNL     1     -18.380 -12.379  12.536  1.00  0.00     0.063 A
HETATM   21  C5  UNL     1     -17.410 -12.154  11.585  1.00  0.00     0.032 A
HETATM   22  C6  UNL     1     -17.501 -12.735  10.339  1.00  0.00     0.012 A
HETATM   23  C7  UNL     1     -18.551 -13.547  10.012  1.00  0.00    -0.028 A
HETATM   24  C8  UNL     1     -19.526 -13.783  10.941  1.00  0.00     0.070 A
HETATM   25  C11 UNL     1     -18.866 -14.284   8.747  1.00  0.00     0.060 C
HETATM   26  C9  UNL     1     -19.435 -13.202  12.186  1.00  0.00     0.155 A
HETATM   27  N3  UNL     1     -20.500 -14.641  10.378  1.00  0.00    -0.387 N
HETATM   28  C10 UNL     1     -20.282 -14.785   8.952  1.00  0.00     0.124 C
ATOM     29  H3  UNL     1     -21.250 -15.095  10.901  1.00  0.00     0.159 HD
BRANCH  26  30
HETATM   30  N2  UNL     1     -20.463 -13.461  13.141  1.00  0.00    -0.111 N
HETATM   31  O1  UNL     1     -20.156 -13.849  14.286  1.00  0.00    -0.532 OA
HETATM   32  O2  UNL     1     -21.773 -13.281  12.797  1.00  0.00    -0.532 OA
ENDBRANCH  26  30
ENDBRANCH  18  20
ENDBRANCH  17  18
ENDBRANCH   2  17
TORSDOF 4
ENDMDL