MODEL 3
REMARK VINA RESULT: -7.732083792      1.667      2.339
REMARK  7 active torsions:
REMARK  status: ('A' for Active; 'I' for Inactive)
REMARK    1  A    between atoms: C3_3  and  O1_4
REMARK    2  A    between atoms: C10_13  and  C12_15
REMARK    3  A    between atoms: C12_15  and  C13_16
REMARK    4  A    between atoms: C13_16  and  C14_17
REMARK    5  A    between atoms: C14_17  and  C15_18
REMARK    6  A    between atoms: C23_28  and  O4_29
REMARK    7  A    between atoms: O4_29  and  O5_30
ROOT
HETATM    1  C1  UNL     1      -9.132  -3.720  21.853  1.00  0.00     0.016 C
HETATM    2  C2  UNL     1      -9.564  -2.903  20.731  1.00  0.00     0.049 C
HETATM    3  C3  UNL     1      -9.204  -1.460  21.034  1.00  0.00     0.124 C
HETATM    4  C4  UNL     1     -10.260  -0.727  21.795  1.00  0.00     0.033 C
HETATM    5  C5  UNL     1     -11.619  -0.810  21.133  1.00  0.00     0.015 C
HETATM    6  C6  UNL     1     -12.016  -2.287  21.026  1.00  0.00    -0.006 C
HETATM    7  C7  UNL     1     -12.483  -2.824  22.296  1.00  0.00     0.018 C
HETATM    8  C8  UNL     1     -13.162  -2.448  20.004  1.00  0.00     0.044 C
HETATM    9  C9  UNL     1     -12.953  -3.852  19.443  1.00  0.00     0.130 C
HETATM   10  O2  UNL     1     -13.819  -4.707  20.064  1.00  0.00    -0.375 OA
HETATM   11  C10 UNL     1     -13.687  -6.031  19.749  1.00  0.00     0.058 C
HETATM   12  C11 UNL     1     -14.541  -6.809  20.760  1.00  0.00     0.046 C
HETATM   13  C20 UNL     1     -12.255  -6.511  19.797  1.00  0.00     0.038 C
HETATM   14  C21 UNL     1     -11.373  -5.465  20.520  1.00  0.00     0.013 C
HETATM   15  C22 UNL     1     -11.489  -4.211  19.729  1.00  0.00     0.054 C
HETATM   16  C23 UNL     1     -10.950  -2.957  20.252  1.00  0.00     0.115 C
ENDROOT
BRANCH  11  17
HETATM   17  C12 UNL     1     -14.241  -6.383  18.389  1.00  0.00     0.038 C
BRANCH  17  18
HETATM   18  C13 UNL     1     -15.659  -6.869  18.547  1.00  0.00     0.007 C
BRANCH  18  19
HETATM   19  C14 UNL     1     -16.475  -6.445  17.321  1.00  0.00     0.040 C
BRANCH  19  20
HETATM   20  C15 UNL     1     -16.526  -7.527  16.337  1.00  0.00    -0.036 A
HETATM   21  C16 UNL     1     -17.754  -8.082  16.023  1.00  0.00     0.012 A
HETATM   22  C17 UNL     1     -17.811  -9.098  15.098  1.00  0.00     0.050 A
HETATM   23  C18 UNL     1     -16.663  -9.562  14.489  1.00  0.00     0.141 A
HETATM   24  S1  UNL     1     -16.720 -10.775  13.384  1.00  0.00    -0.052 SA
HETATM   25  O3  UNL     1     -15.529  -9.002  14.822  1.00  0.00    -0.311 OA
HETATM   26  C19 UNL     1     -15.419  -8.034  15.693  1.00  0.00     0.150 A
ENDBRANCH  19  20
ENDBRANCH  18  19
ENDBRANCH  17  18
ENDBRANCH  11  17
BRANCH  16  27
HETATM   27  O4  UNL     1     -10.904  -2.128  19.072  1.00  0.00    -0.230 OA
BRANCH  27  28
HETATM   28  O5  UNL     1     -10.166  -2.702  18.156  1.00  0.00    -0.250 OA
ATOM     29  H5  UNL     1     -10.463  -2.440  17.292  1.00  0.00     0.253 HD
ENDBRANCH  27  28
ENDBRANCH  16  27
BRANCH   3  30
HETATM   30  O1  UNL     1      -8.765  -0.752  19.922  1.00  0.00    -0.395 OA
ATOM     31  H1  UNL     1      -7.929  -0.322  20.053  1.00  0.00     0.210 HD
ENDBRANCH   3  30
TORSDOF 7
ENDMDL