MODEL 1
REMARK VINA RESULT: -7.817529997      0.000      0.000
REMARK  14 active torsions:
REMARK  status: ('A' for Active; 'I' for Inactive)
REMARK    1  A    between atoms: C9_9  and  O1_10
REMARK    2  A    between atoms: C11_13  and  O2_15
REMARK    3  A    between atoms: C13_17  and  O3_18
REMARK    4  A    between atoms: O3_18  and  C14_19
REMARK    5  A    between atoms: C20_26  and  C21_27
REMARK    6  A    between atoms: C21_27  and  C23_29
REMARK    7  A    between atoms: C24_30  and  C25_31
REMARK    8  A    between atoms: C25_31  and  O5_34
REMARK    9  A    between atoms: O5_34  and  C28_35
REMARK   10  A    between atoms: C28_35  and  C29_37
REMARK   11  A    between atoms: C30_38  and  C31_39
REMARK   12  A    between atoms: N1_40  and  O7_42
REMARK   13  A    between atoms: O7_42  and  C32_43
REMARK   14  A    between atoms: C32_43  and  C33_44
ROOT
HETATM    1  C1  UNL     1      -9.198 -16.819 -51.651  1.00  0.00     0.015 C
HETATM    2  C2  UNL     1      -9.999 -17.051 -50.641  1.00  0.00    -0.082 C
HETATM    3  C3  UNL     1      -9.839 -18.246 -49.749  1.00  0.00     0.034 C
HETATM    4  C4  UNL     1     -11.118 -18.993 -49.853  1.00  0.00     0.005 C
HETATM    5  C5  UNL     1     -12.371 -18.255 -49.654  1.00  0.00     0.010 C
HETATM    6  C6  UNL     1     -12.490 -16.910 -50.374  1.00  0.00    -0.029 C
HETATM    7  C7  UNL     1     -12.546 -17.318 -51.828  1.00  0.00     0.016 C
HETATM    8  C8  UNL     1     -11.143 -16.161 -50.272  1.00  0.00     0.051 C
HETATM    9  C9  UNL     1     -11.068 -15.646 -48.898  1.00  0.00     0.135 C
HETATM   10  C10 UNL     1     -11.901 -14.392 -48.789  1.00  0.00     0.060 C
HETATM   11  C11 UNL     1     -11.165 -13.153 -49.146  1.00  0.00     0.087 C
HETATM   12  C12 UNL     1     -10.105 -13.230 -50.206  1.00  0.00     0.049 C
HETATM   13  C13 UNL     1     -12.000 -11.962 -49.493  1.00  0.00     0.166 C
HETATM   14  C16 UNL     1     -13.472 -12.244 -49.536  1.00  0.00     0.036 C
HETATM   15  C17 UNL     1     -13.617 -13.554 -50.338  1.00  0.00     0.012 C
HETATM   16  C18 UNL     1     -13.247 -14.649 -49.349  1.00  0.00    -0.030 C
HETATM   17  C19 UNL     1     -14.298 -14.396 -48.234  1.00  0.00     0.016 C
HETATM   18  C20 UNL     1     -13.547 -16.050 -49.835  1.00  0.00     0.010 C
ENDROOT
BRANCH  18  19
HETATM   19  C21 UNL     1     -14.900 -16.111 -50.477  1.00  0.00     0.009 C
HETATM   20  C22 UNL     1     -15.049 -15.807 -51.912  1.00  0.00     0.014 C
BRANCH  19  21
HETATM   21  C23 UNL     1     -15.648 -17.372 -50.212  1.00  0.00    -0.023 C
HETATM   22  C24 UNL     1     -16.040 -17.730 -49.019  1.00  0.00     0.007 C
BRANCH  22  23
HETATM   23  C25 UNL     1     -16.790 -18.993 -48.750  1.00  0.00     0.081 C
HETATM   24  C26 UNL     1     -17.876 -19.087 -49.821  1.00  0.00     0.051 C
HETATM   25  C27 UNL     1     -15.890 -20.178 -48.902  1.00  0.00     0.051 C
BRANCH  23  26
HETATM   26  O5  UNL     1     -17.325 -18.867 -47.458  1.00  0.00    -0.303 OA
BRANCH  26  27
HETATM   27  C28 UNL     1     -18.505 -19.401 -47.049  1.00  0.00     0.283 C
HETATM   28  O6  UNL     1     -18.429 -20.549 -46.484  1.00  0.00    -0.260 OA
BRANCH  27  29
HETATM   29  C29 UNL     1     -19.770 -18.741 -47.227  1.00  0.00     0.084 C
HETATM   30  C30 UNL     1     -20.447 -18.042 -46.370  1.00  0.00     0.025 C
BRANCH  30  31
HETATM   31  C31 UNL     1     -20.059 -17.771 -45.008  1.00  0.00     0.114 C
HETATM   32  N1  UNL     1     -19.365 -16.666 -44.784  1.00  0.00    -0.278 N
ATOM     33  H1  UNL     1     -19.076 -16.450 -43.830  1.00  0.00     0.193 HD
BRANCH  32  34
HETATM   34  O7  UNL     1     -19.025 -15.813 -45.780  1.00  0.00    -0.281 OA
BRANCH  34  35
HETATM   35  C32 UNL     1     -17.681 -15.517 -46.121  1.00  0.00     0.201 C
BRANCH  35  36
HETATM   36  C33 UNL     1     -17.598 -14.046 -46.471  1.00  0.00     0.024 C
HETATM   37  C34 UNL     1     -18.957 -13.409 -46.433  1.00  0.00     0.007 C
ENDBRANCH  35  36
ENDBRANCH  34  35
ENDBRANCH  32  34
ENDBRANCH  30  31
ENDBRANCH  27  29
ENDBRANCH  26  27
ENDBRANCH  23  26
ENDBRANCH  22  23
ENDBRANCH  19  21
ENDBRANCH  18  19
BRANCH   9  38
HETATM   38  O1  UNL     1      -9.803 -15.542 -48.331  1.00  0.00    -0.394 OA
ATOM     39  H1  UNL     1      -9.761 -15.453 -47.386  1.00  0.00     0.210 HD
ENDBRANCH   9  38
BRANCH  11  40
HETATM   40  O2  UNL     1     -10.405 -12.739 -48.006  1.00  0.00    -0.387 OA
ATOM     41  H2  UNL     1     -10.486 -11.796 -47.921  1.00  0.00     0.210 HD
ENDBRANCH  11  40
BRANCH  13  42
HETATM   42  O3  UNL     1     -11.686 -10.801 -48.746  1.00  0.00    -0.313 OA
BRANCH  42  43
HETATM   43  C14 UNL     1     -10.964  -9.725 -49.162  1.00  0.00     0.255 C
HETATM   44  C15 UNL     1      -9.768  -9.290 -48.415  1.00  0.00     0.126 C
HETATM   45  O4  UNL     1     -11.362  -9.132 -50.195  1.00  0.00    -0.266 OA
ENDBRANCH  42  43
ENDBRANCH  13  42
TORSDOF 14
ENDMDL