MODEL 1
REMARK VINA RESULT: -7.514571585      0.000      0.000
REMARK  14 active torsions:
REMARK  status: ('A' for Active; 'I' for Inactive)
REMARK    1  A    between atoms: C2_2  and  O2_4
REMARK    2  A    between atoms: O2_4  and  C3_5
REMARK    3  A    between atoms: C3_5  and  C5_7
REMARK    4  A    between atoms: C3_5  and  C6_10
REMARK    5  A    between atoms: C5_7  and  O3_8
REMARK    6  A    between atoms: C6_10  and  O5_12
REMARK    7  A    between atoms: O5_12  and  C7_13
REMARK    8  A    between atoms: C8_14  and  C9_15
REMARK    9  A    between atoms: C9_15  and  C10_16
REMARK   10  A    between atoms: C16_24  and  C17_25
REMARK   11  A    between atoms: C17_25  and  C20_28
REMARK   12  A    between atoms: C20_28  and  C21_29
REMARK   13  A    between atoms: C21_29  and  C22_30
REMARK   14  A    between atoms: C28_37  and  C29_38
ROOT
HETATM    1  C7  UNL     1     -13.053 -15.480 -50.720  1.00  0.00     0.175 C
HETATM    2  C8  UNL     1     -12.453 -16.777 -51.218  1.00  0.00     0.058 C
HETATM    3  C11 UNL     1     -13.645 -17.655 -51.134  1.00  0.00    -0.066 C
HETATM    4  C12 UNL     1     -14.562 -18.056 -51.988  1.00  0.00    -0.074 C
HETATM    5  C13 UNL     1     -15.495 -18.948 -51.374  1.00  0.00     0.035 C
HETATM    6  C14 UNL     1     -15.005 -19.016 -49.917  1.00  0.00     0.014 C
HETATM    7  C15 UNL     1     -14.180 -17.805 -49.722  1.00  0.00     0.023 C
HETATM    8  C16 UNL     1     -15.037 -16.489 -49.521  1.00  0.00     0.038 C
HETATM    9  C26 UNL     1     -14.586 -15.563 -50.603  1.00  0.00     0.090 C
HETATM   10  C27 UNL     1     -14.913 -14.087 -50.450  1.00  0.00     0.049 C
HETATM   11  O8  UNL     1     -15.254 -15.894 -51.739  1.00  0.00    -0.371 OA
HETATM   12  C28 UNL     1     -14.938 -15.945 -52.986  1.00  0.00     0.134 C
HETATM   13  C33 UNL     1     -14.792 -17.465 -53.393  1.00  0.00     0.067 C
ENDROOT
BRANCH   1  14
HETATM   14  O5  UNL     1     -12.607 -14.353 -51.422  1.00  0.00    -0.310 OA
BRANCH  14  15
HETATM   15  C6  UNL     1     -11.338 -13.836 -51.228  1.00  0.00     0.296 C
HETATM   16  O4  UNL     1     -10.434 -14.239 -52.037  1.00  0.00    -0.262 OA
BRANCH  15  17
HETATM   17  C3  UNL     1     -10.927 -12.877 -50.197  1.00  0.00     0.175 C
HETATM   18  C4  UNL     1      -9.656 -12.211 -50.577  1.00  0.00     0.060 C
BRANCH  17  19
HETATM   19  O2  UNL     1     -11.956 -12.001 -49.820  1.00  0.00    -0.298 OA
BRANCH  19  20
HETATM   20  C2  UNL     1     -11.796 -10.933 -48.961  1.00  0.00     0.256 C
HETATM   21  C1  UNL     1     -11.236  -9.631 -49.436  1.00  0.00     0.126 C
HETATM   22  O1  UNL     1     -12.142 -11.112 -47.769  1.00  0.00    -0.266 OA
ENDBRANCH  19  20
ENDBRANCH  17  19
BRANCH  17  23
HETATM   23  C5  UNL     1     -10.621 -13.698 -48.931  1.00  0.00     0.213 C
BRANCH  23  24
HETATM   24  O3  UNL     1      -9.516 -14.491 -49.246  1.00  0.00    -0.397 OA
ATOM     25  H3  UNL     1      -9.790 -15.389 -49.103  1.00  0.00     0.209 HD
ENDBRANCH  23  24
ENDBRANCH  17  23
ENDBRANCH  15  17
ENDBRANCH  14  15
ENDBRANCH   1  14
BRANCH   2  26
HETATM   26  C9  UNL     1     -11.337 -17.325 -50.408  1.00  0.00     0.124 C
BRANCH  26  27
HETATM   27  C10 UNL     1     -10.114 -17.446 -51.280  1.00  0.00     0.173 C
HETATM   28  O6  UNL     1     -10.186 -17.937 -52.426  1.00  0.00    -0.648 OA
HETATM   29  O7  UNL     1      -8.930 -16.992 -50.751  1.00  0.00    -0.648 OA
ENDBRANCH  26  27
ENDBRANCH   2  26
BRANCH   8  30
HETATM   30  C17 UNL     1     -15.179 -16.160 -48.115  1.00  0.00    -0.040 C
HETATM   31  C18 UNL     1     -16.152 -17.034 -47.329  1.00  0.00     0.015 C
HETATM   32  C19 UNL     1     -13.854 -16.509 -47.402  1.00  0.00     0.015 C
BRANCH  30  33
HETATM   33  C20 UNL     1     -15.447 -14.763 -47.709  1.00  0.00     0.013 C
BRANCH  33  34
HETATM   34  C21 UNL     1     -16.263 -14.703 -46.410  1.00  0.00     0.028 C
BRANCH  34  35
HETATM   35  C22 UNL     1     -17.352 -13.667 -46.572  1.00  0.00    -0.025 C
HETATM   36  C23 UNL     1     -18.577 -13.982 -46.252  1.00  0.00    -0.091 C
HETATM   37  C24 UNL     1     -19.651 -12.962 -46.413  1.00  0.00     0.042 C
HETATM   38  C25 UNL     1     -18.977 -15.314 -45.725  1.00  0.00     0.042 C
ENDBRANCH  34  35
ENDBRANCH  33  34
ENDBRANCH  30  33
ENDBRANCH   8  30
BRANCH  12  39
HETATM   39  C29 UNL     1     -16.064 -15.478 -53.886  1.00  0.00    -0.025 C
HETATM   40  C30 UNL     1     -16.794 -14.272 -53.337  1.00  0.00     0.017 C
HETATM   41  C31 UNL     1     -15.629 -15.219 -55.308  1.00  0.00     0.017 C
HETATM   42  C32 UNL     1     -17.124 -16.595 -53.984  1.00  0.00     0.017 C
ENDBRANCH  12  39
TORSDOF 14
ENDMDL