MODEL 5
REMARK VINA RESULT: -9.283144093      2.699     12.852
REMARK  15 active torsions:
REMARK  status: ('A' for Active; 'I' for Inactive)
REMARK    1  A    between atoms: C2_2  and  O2_4
REMARK    2  A    between atoms: O2_4  and  C3_5
REMARK    3  A    between atoms: C9_11  and  C10_12
REMARK    4  A    between atoms: C11_13  and  C12_14
REMARK    5  A    between atoms: C12_14  and  O7_37
REMARK    6  A    between atoms: C13_15  and  C14_16
REMARK    7  A    between atoms: C15_17  and  C16_18
REMARK    8  A    between atoms: C18_20  and  O3_21
REMARK    9  A    between atoms: O3_21  and  C19_22
REMARK       I    between atoms: C19_22  and  N1_24
REMARK   10  A    between atoms: N1_24  and  C20_26
REMARK   11  A    between atoms: C23_29  and  O5_30
REMARK   12  A    between atoms: O7_37  and  C28_38
REMARK   13  A    between atoms: C28_38  and  C29_39
REMARK   14  A    between atoms: C30_40  and  C31_41
REMARK   15  A    between atoms: C31_41  and  O8_44
ROOT
HETATM    1  C12 UNL     1      -8.372  -8.930 -50.045  1.00  0.00     0.068 C
HETATM    2  C13 UNL     1      -9.461  -8.920 -49.317  1.00  0.00     0.036 C
ENDROOT
BRANCH   1   3
HETATM    3  C11 UNL     1      -8.289  -9.686 -51.283  1.00  0.00     0.033 C
HETATM    4  C10 UNL     1      -7.702 -10.813 -51.515  1.00  0.00    -0.016 C
BRANCH   4   5
HETATM    5  C9  UNL     1      -6.951 -11.647 -50.599  1.00  0.00     0.045 C
HETATM    6  C3  UNL     1      -7.341 -13.123 -50.844  1.00  0.00     0.140 C
HETATM    7  C4  UNL     1      -6.277 -13.827 -50.085  1.00  0.00     0.034 C
HETATM    8  C5  UNL     1      -5.031 -13.021 -50.369  1.00  0.00     0.012 C
HETATM    9  C6  UNL     1      -5.464 -11.714 -50.943  1.00  0.00    -0.038 C
HETATM   10  C7  UNL     1      -4.736 -10.548 -50.283  1.00  0.00     0.015 C
HETATM   11  C8  UNL     1      -5.320 -11.654 -52.430  1.00  0.00     0.015 C
BRANCH   6  12
HETATM   12  O2  UNL     1      -8.642 -13.339 -50.331  1.00  0.00    -0.316 OA
BRANCH  12  13
HETATM   13  C2  UNL     1      -9.148 -14.607 -50.227  1.00  0.00     0.255 C
HETATM   14  C1  UNL     1      -9.193 -15.607 -51.314  1.00  0.00     0.126 C
HETATM   15  O1  UNL     1      -9.619 -14.947 -49.100  1.00  0.00    -0.266 OA
ENDBRANCH  12  13
ENDBRANCH   6  12
ENDBRANCH   4   5
ENDBRANCH   1   3
BRANCH   1  16
HETATM   16  O7  UNL     1      -7.298  -8.166 -49.552  1.00  0.00    -0.348 OA
BRANCH  16  17
HETATM   17  C28 UNL     1      -7.032  -6.938 -50.194  1.00  0.00     0.203 C
BRANCH  17  18
HETATM   18  C29 UNL     1      -5.628  -6.883 -50.703  1.00  0.00    -0.002 C
HETATM   19  C30 UNL     1      -5.313  -7.348 -51.907  1.00  0.00     0.008 C
BRANCH  19  20
HETATM   20  C31 UNL     1      -3.949  -7.321 -52.460  1.00  0.00     0.068 C
HETATM   21  C32 UNL     1      -3.756  -8.453 -53.445  1.00  0.00     0.050 C
HETATM   22  C33 UNL     1      -2.900  -7.429 -51.365  1.00  0.00     0.050 C
BRANCH  20  23
HETATM   23  O8  UNL     1      -3.767  -6.126 -53.187  1.00  0.00    -0.387 OA
ATOM     24  H8  UNL     1      -2.842  -6.007 -53.365  1.00  0.00     0.211 HD
ENDBRANCH  20  23
ENDBRANCH  19  20
ENDBRANCH  17  18
ENDBRANCH  16  17
ENDBRANCH   1  16
BRANCH   2  25
HETATM   25  C14 UNL     1     -10.668  -9.623 -49.629  1.00  0.00     0.001 C
HETATM   26  C15 UNL     1     -10.939 -10.837 -49.108  1.00  0.00     0.005 C
BRANCH  26  27
HETATM   27  C16 UNL     1     -12.196 -11.518 -49.461  1.00  0.00     0.146 C
HETATM   28  C17 UNL     1     -12.910 -12.064 -48.231  1.00  0.00     0.070 C
HETATM   29  C18 UNL     1     -13.755 -13.148 -48.885  1.00  0.00     0.160 C
HETATM   30  C27 UNL     1     -13.028 -13.483 -50.126  1.00  0.00     0.201 C
HETATM   31  O6  UNL     1     -11.937 -12.658 -50.211  1.00  0.00    -0.379 OA
BRANCH  29  32
HETATM   32  O3  UNL     1     -13.945 -14.205 -47.974  1.00  0.00    -0.296 OA
BRANCH  32  33
HETATM   33  C19 UNL     1     -15.246 -14.725 -47.724  1.00  0.00     0.365 C
HETATM   34  O4  UNL     1     -15.461 -15.791 -48.354  1.00  0.00    -0.238 OA
HETATM   35  N1  UNL     1     -16.127 -14.067 -46.860  1.00  0.00    -0.303 N
ATOM     36  H1  UNL     1     -15.763 -13.211 -46.442  1.00  0.00     0.171 HD
BRANCH  35  37
HETATM   37  C20 UNL     1     -17.433 -14.402 -46.481  1.00  0.00     0.037 A
HETATM   38  C21 UNL     1     -17.762 -15.673 -46.102  1.00  0.00     0.032 A
HETATM   39  C22 UNL     1     -19.068 -16.018 -45.715  1.00  0.00     0.039 A
HETATM   40  C23 UNL     1     -20.040 -15.039 -45.723  1.00  0.00     0.071 A
HETATM   41  C24 UNL     1     -19.734 -13.749 -46.101  1.00  0.00    -0.027 A
HETATM   42  C25 UNL     1     -20.790 -12.716 -46.101  1.00  0.00     0.051 C
HETATM   43  C26 UNL     1     -18.446 -13.445 -46.474  1.00  0.00     0.039 A
BRANCH  40  44
HETATM   44  O5  UNL     1     -21.357 -15.301 -45.353  1.00  0.00    -0.360 OA
ATOM     45  H5  UNL     1     -21.999 -15.629 -45.972  1.00  0.00     0.217 HD
ENDBRANCH  40  44
ENDBRANCH  35  37
ENDBRANCH  32  33
ENDBRANCH  29  32
ENDBRANCH  26  27
ENDBRANCH   2  25
TORSDOF 15
ENDMDL