MODEL 2
REMARK VINA RESULT: -8.626958562      6.895     12.607
REMARK  14 active torsions:
REMARK  status: ('A' for Active; 'I' for Inactive)
REMARK    1  A    between atoms: C4_4  and  C5_5
REMARK    2  A    between atoms: C5_5  and  C6_6
REMARK    3  A    between atoms: C8_8  and  C9_9
REMARK    4  A    between atoms: C12_13  and  C13_14
REMARK    5  A    between atoms: C13_14  and  C14_15
REMARK    6  A    between atoms: C14_15  and  O2_16
REMARK    7  A    between atoms: C14_15  and  C15_18
REMARK    8  A    between atoms: C18_23  and  C19_24
REMARK    9  A    between atoms: C21_27  and  O6_28
REMARK   10  A    between atoms: C24_32  and  C26_34
REMARK   11  A    between atoms: C26_34  and  C27_35
REMARK   12  A    between atoms: C27_35  and  C28_36
REMARK   13  A    between atoms: C28_36  and  O8_38
REMARK   14  A    between atoms: O8_38  and  C29_39
ROOT
HETATM    1  C15 UNL     1      -7.433 -11.969 -52.836  1.00  0.00    -0.035 C
HETATM    2  C16 UNL     1      -7.786 -11.465 -54.021  1.00  0.00     0.088 C
HETATM    3  C17 UNL     1      -7.356 -10.188 -54.554  1.00  0.00     0.283 C
HETATM    4  O3  UNL     1      -7.724  -9.769 -55.703  1.00  0.00    -0.260 OA
HETATM    5  O4  UNL     1      -6.532  -9.447 -53.775  1.00  0.00    -0.307 OA
HETATM    6  C18 UNL     1      -6.778  -9.661 -52.319  1.00  0.00     0.180 C
HETATM    7  C24 UNL     1      -6.510 -11.109 -52.069  1.00  0.00     0.014 C
HETATM    8  C25 UNL     1      -5.139 -11.354 -52.758  1.00  0.00     0.023 C
ENDROOT
BRANCH   1   9
HETATM    9  C14 UNL     1      -8.022 -13.263 -52.549  1.00  0.00     0.150 C
BRANCH   9  10
HETATM   10  C13 UNL     1      -9.322 -13.524 -52.014  1.00  0.00     0.069 C
BRANCH  10  11
HETATM   11  C12 UNL     1      -9.700 -13.938 -50.685  1.00  0.00     0.133 C
HETATM   12  O1  UNL     1      -9.696 -12.761 -49.882  1.00  0.00    -0.379 OA
HETATM   13  C8  UNL     1     -10.710 -11.902 -50.055  1.00  0.00     0.125 C
HETATM   14  C7  UNL     1     -12.095 -12.516 -49.830  1.00  0.00     0.038 C
HETATM   15  C6  UNL     1     -12.148 -13.707 -50.751  1.00  0.00     0.002 C
HETATM   16  C30 UNL     1     -10.988 -14.593 -50.400  1.00  0.00    -0.017 C
HETATM   17  C31 UNL     1     -11.030 -14.783 -48.877  1.00  0.00     0.018 C
HETATM   18  C32 UNL     1     -11.175 -15.994 -50.923  1.00  0.00     0.018 C
BRANCH  13  19
HETATM   19  C9  UNL     1     -10.500 -10.731 -49.096  1.00  0.00     0.006 C
HETATM   20  C10 UNL     1     -11.056  -9.448 -49.733  1.00  0.00     0.012 C
HETATM   21  C11 UNL     1     -11.189 -10.896 -47.787  1.00  0.00     0.012 C
ENDBRANCH  13  19
BRANCH  15  22
HETATM   22  C5  UNL     1     -13.461 -14.435 -50.716  1.00  0.00     0.033 C
BRANCH  22  23
HETATM   23  C4  UNL     1     -14.298 -13.910 -49.617  1.00  0.00    -0.024 C
HETATM   24  C2  UNL     1     -14.777 -14.689 -48.655  1.00  0.00    -0.091 C
HETATM   25  C1  UNL     1     -14.495 -16.159 -48.626  1.00  0.00     0.042 C
HETATM   26  C3  UNL     1     -15.613 -14.092 -47.580  1.00  0.00     0.042 C
ENDBRANCH  22  23
ENDBRANCH  15  22
ENDBRANCH  10  11
ENDBRANCH   9  10
BRANCH   9  27
HETATM   27  O2  UNL     1      -7.787 -14.069 -53.665  1.00  0.00    -0.391 OA
ATOM     28  H2  UNL     1      -7.381 -14.886 -53.402  1.00  0.00     0.210 HD
ENDBRANCH   9  27
ENDBRANCH   1   9
BRANCH   7  29
HETATM   29  C26 UNL     1      -6.310 -11.362 -50.656  1.00  0.00     0.026 C
BRANCH  29  30
HETATM   30  C27 UNL     1      -5.027 -11.871 -50.109  1.00  0.00     0.113 C
BRANCH  30  31
HETATM   31  C28 UNL     1      -5.100 -13.391 -50.033  1.00  0.00     0.267 C
HETATM   32  O7  UNL     1      -4.102 -14.107 -50.262  1.00  0.00    -0.265 OA
BRANCH  31  33
HETATM   33  O8  UNL     1      -6.295 -13.994 -49.705  1.00  0.00    -0.230 OA
BRANCH  33  34
HETATM   34  C29 UNL     1      -6.460 -15.360 -49.586  1.00  0.00     0.380 C
HETATM   35  N1  UNL     1      -6.260 -16.086 -48.383  1.00  0.00    -0.032 NA
HETATM   36  O9  UNL     1      -6.809 -16.004 -50.605  1.00  0.00    -0.242 OA
ENDBRANCH  33  34
ENDBRANCH  31  33
ENDBRANCH  30  31
ENDBRANCH  29  30
ENDBRANCH   7  29
BRANCH   6  37
HETATM   37  C19 UNL     1      -6.026  -8.619 -51.674  1.00  0.00     0.005 A
HETATM   38  C20 UNL     1      -4.860  -7.988 -51.874  1.00  0.00     0.155 A
HETATM   39  O5  UNL     1      -4.670  -7.012 -50.974  1.00  0.00    -0.299 OA
HETATM   40  C21 UNL     1      -5.690  -6.989 -50.187  1.00  0.00     0.189 A
HETATM   41  C22 UNL     1      -6.572  -7.952 -50.555  1.00  0.00     0.007 A
HETATM   42  C23 UNL     1      -7.876  -8.244 -49.890  1.00  0.00     0.054 C
BRANCH  40  43
HETATM   43  O6  UNL     1      -5.837  -6.103 -49.130  1.00  0.00    -0.340 OA
ATOM     44  H6  UNL     1      -5.212  -5.419 -48.917  1.00  0.00     0.220 HD
ENDBRANCH  40  43
ENDBRANCH   6  37
TORSDOF 14
ENDMDL