MODEL 2
REMARK VINA RESULT: -7.566802323      3.254      5.103
REMARK  13 active torsions:
REMARK  status: ('A' for Active; 'I' for Inactive)
REMARK    1  A    between atoms: C2_2  and  C4_4
REMARK    2  A    between atoms: C4_4  and  C5_5
REMARK    3  A    between atoms: C4_4  and  O6_27
REMARK    4  A    between atoms: C5_5  and  C6_6
REMARK    5  A    between atoms: C6_6  and  C7_11
REMARK    6  A    between atoms: N1_7  and  O1_9
REMARK       I    between atoms: C7_11  and  N2_13
REMARK    7  A    between atoms: N2_13  and  O3_15
REMARK    8  A    between atoms: O3_15  and  C8_16
REMARK    9  A    between atoms: C8_16  and  N3_17
REMARK   10  A    between atoms: C8_16  and  C11_23
REMARK       I    between atoms: N3_17  and  C9_19
REMARK   11  A    between atoms: C9_19  and  O5_21
REMARK   12  A    between atoms: C11_23  and  C13_25
REMARK   13  A    between atoms: O6_27  and  C15_28
ROOT
HETATM    1  C4  UNL     1     -10.122 -11.721 -49.455  1.00  0.00     0.155 C
ENDROOT
BRANCH   1   2
HETATM    2  C2  UNL     1     -11.299 -10.855 -49.021  1.00  0.00    -0.064 C
HETATM    3  C1  UNL     1     -11.568  -9.675 -49.515  1.00  0.00     0.016 C
HETATM    4  C3  UNL     1     -12.235 -11.333 -47.938  1.00  0.00     0.045 C
ENDBRANCH   1   2
BRANCH   1   5
HETATM    5  C5  UNL     1     -10.816 -12.939 -50.078  1.00  0.00     0.101 C
BRANCH   5   6
HETATM    6  C6  UNL     1     -10.228 -14.228 -49.722  1.00  0.00     0.104 C
HETATM    7  N1  UNL     1      -8.964 -14.394 -49.717  1.00  0.00    -0.268 N
ATOM      8  H1  UNL     1      -8.364 -13.609 -49.972  1.00  0.00     0.194 HD
BRANCH   7   9
HETATM    9  O1  UNL     1      -8.370 -15.612 -49.377  1.00  0.00    -0.290 OA
ATOM     10  H1  UNL     1      -7.912 -16.150 -50.011  1.00  0.00     0.244 HD
ENDBRANCH   7   9
BRANCH   6  11
HETATM   11  C7  UNL     1     -11.061 -15.321 -49.283  1.00  0.00     0.289 C
HETATM   12  O2  UNL     1     -10.934 -16.459 -49.789  1.00  0.00    -0.264 OA
HETATM   13  N2  UNL     1     -12.020 -15.118 -48.281  1.00  0.00    -0.227 N
ATOM     14  H2  UNL     1     -12.099 -14.178 -47.894  1.00  0.00     0.198 HD
BRANCH  13  15
HETATM   15  O3  UNL     1     -12.857 -16.070 -47.779  1.00  0.00    -0.251 OA
BRANCH  15  16
HETATM   16  C8  UNL     1     -14.177 -15.810 -48.264  1.00  0.00     0.259 C
BRANCH  16  17
HETATM   17  N3  UNL     1     -15.093 -16.539 -47.376  1.00  0.00    -0.308 N
HETATM   18  C9  UNL     1     -15.935 -17.514 -47.948  1.00  0.00     0.362 C
HETATM   19  O4  UNL     1     -15.882 -17.730 -49.210  1.00  0.00    -0.238 OA
ATOM     20  H3  UNL     1     -15.118 -16.345 -46.375  1.00  0.00     0.167 HD
BRANCH  18  21
HETATM   21  O5  UNL     1     -16.821 -18.249 -47.172  1.00  0.00    -0.309 OA
HETATM   22  C10 UNL     1     -17.936 -17.534 -46.629  1.00  0.00     0.215 C
ENDBRANCH  18  21
ENDBRANCH  16  17
BRANCH  16  23
HETATM   23  C11 UNL     1     -14.377 -14.346 -48.270  1.00  0.00     0.033 C
HETATM   24  C12 UNL     1     -15.351 -13.917 -47.173  1.00  0.00     0.014 C
BRANCH  23  25
HETATM   25  C13 UNL     1     -14.766 -13.714 -49.560  1.00  0.00     0.004 C
HETATM   26  C14 UNL     1     -14.580 -14.558 -50.780  1.00  0.00     0.005 C
ENDBRANCH  23  25
ENDBRANCH  16  23
ENDBRANCH  15  16
ENDBRANCH  13  15
ENDBRANCH   6  11
ENDBRANCH   5   6
ENDBRANCH   1   5
BRANCH   1  27
HETATM   27  O6  UNL     1      -9.519 -10.935 -50.374  1.00  0.00    -0.375 OA
BRANCH  27  28
HETATM   28  C15 UNL     1      -8.284 -10.498 -50.408  1.00  0.00     0.131 C
HETATM   29  C16 UNL     1      -8.166  -8.965 -50.099  1.00  0.00     0.034 C
HETATM   30  C17 UNL     1      -6.790  -8.591 -50.585  1.00  0.00     0.013 C
HETATM   31  C18 UNL     1      -6.296  -9.702 -51.383  1.00  0.00    -0.030 C
HETATM   32  C19 UNL     1      -5.408 -10.548 -50.457  1.00  0.00     0.016 C
HETATM   33  C20 UNL     1      -5.525  -9.485 -52.597  1.00  0.00     0.004 C
HETATM   34  C32 UNL     1      -7.516 -10.522 -51.698  1.00  0.00    -0.010 C
HETATM   35  C21 UNL     1      -4.260  -8.742 -52.568  1.00  0.00     0.007 C
HETATM   36  C29 UNL     1      -6.179  -8.918 -53.831  1.00  0.00    -0.029 C
HETATM   37  C22 UNL     1      -3.878  -8.747 -54.044  1.00  0.00     0.010 C
HETATM   38  C23 UNL     1      -5.104  -9.208 -54.824  1.00  0.00    -0.036 C
HETATM   39  C24 UNL     1      -4.963 -10.608 -55.313  1.00  0.00     0.016 C
HETATM   40  C25 UNL     1      -5.253  -8.426 -56.124  1.00  0.00     0.010 C
HETATM   41  C26 UNL     1      -5.367  -6.971 -55.971  1.00  0.00     0.001 C
HETATM   42  C27 UNL     1      -6.420  -6.620 -54.978  1.00  0.00     0.001 C
HETATM   43  C28 UNL     1      -6.514  -7.488 -53.777  1.00  0.00     0.011 C
HETATM   44  C30 UNL     1      -7.439  -9.731 -54.031  1.00  0.00     0.011 C
HETATM   45  C31 UNL     1      -8.281  -9.802 -52.798  1.00  0.00     0.013 C
HETATM   46  C33 UNL     1      -7.269 -11.891 -52.162  1.00  0.00     0.018 C
ENDBRANCH  27  28
ENDBRANCH   1  27
TORSDOF 13
ENDMDL