MODEL 2
REMARK VINA RESULT: -6.733291258      2.489      7.988
REMARK  17 active torsions:
REMARK  status: ('A' for Active; 'I' for Inactive)
REMARK    1  A    between atoms: C3_3  and  C5_5
REMARK    2  A    between atoms: C5_5  and  C6_7
REMARK    3  A    between atoms: C6_7  and  C7_8
REMARK    4  A    between atoms: C8_9  and  C9_10
REMARK    5  A    between atoms: C9_10  and  O3_12
REMARK    6  A    between atoms: O3_12  and  C10_13
REMARK    7  A    between atoms: C14_17  and  O4_18
REMARK    8  A    between atoms: C14_17  and  O5_20
REMARK    9  A    between atoms: O5_20  and  C15_21
REMARK   10  A    between atoms: C15_21  and  C16_23
REMARK   11  A    between atoms: C22_29  and  C23_30
REMARK   12  A    between atoms: C23_30  and  C24_31
REMARK   13  A    between atoms: C24_31  and  C25_32
REMARK   14  A    between atoms: C26_33  and  C27_34
REMARK   15  A    between atoms: C26_33  and  C29_36
REMARK   16  A    between atoms: C29_36  and  O7_37
REMARK   17  A    between atoms: C31_40  and  O8_42
ROOT
HETATM    1  C7  UNL     1     -13.463 -16.288 -49.912  1.00  0.00     0.043 C
HETATM    2  C8  UNL     1     -12.571 -16.505 -51.143  1.00  0.00     0.157 C
HETATM    3  C14 UNL     1     -11.572 -15.320 -51.123  1.00  0.00     0.192 C
HETATM    4  C20 UNL     1     -12.476 -14.326 -50.541  1.00  0.00     0.084 C
HETATM    5  C21 UNL     1     -12.146 -12.945 -50.423  1.00  0.00    -0.013 C
HETATM    6  C22 UNL     1     -12.588 -12.201 -49.423  1.00  0.00    -0.080 C
HETATM    7  C30 UNL     1     -13.450 -12.795 -48.401  1.00  0.00     0.072 C
HETATM    8  C31 UNL     1     -14.150 -14.065 -48.921  1.00  0.00     0.066 C
HETATM    9  C32 UNL     1     -15.100 -14.461 -47.874  1.00  0.00     0.047 C
HETATM   10  C33 UNL     1     -13.042 -15.019 -49.283  1.00  0.00     0.007 C
HETATM   11  C34 UNL     1     -12.083 -15.063 -48.171  1.00  0.00     0.020 C
ENDROOT
BRANCH   3  12
HETATM   12  O4  UNL     1     -11.297 -14.940 -52.445  1.00  0.00    -0.364 OA
ATOM     13  H4  UNL     1     -10.655 -14.239 -52.434  1.00  0.00     0.213 HD
ENDBRANCH   3  12
BRANCH   3  14
HETATM   14  O5  UNL     1     -10.410 -15.690 -50.513  1.00  0.00    -0.281 OA
BRANCH  14  15
HETATM   15  C15 UNL     1      -9.599 -16.738 -50.805  1.00  0.00     0.269 C
HETATM   16  O6  UNL     1      -9.067 -16.829 -51.931  1.00  0.00    -0.264 OA
BRANCH  15  17
HETATM   17  C16 UNL     1      -9.304 -17.817 -49.823  1.00  0.00     0.037 C
HETATM   18  C17 UNL     1      -7.848 -18.195 -49.937  1.00  0.00     0.025 C
HETATM   19  C18 UNL     1     -10.101 -19.079 -50.173  1.00  0.00     0.025 C
HETATM   20  C19 UNL     1      -9.593 -17.462 -48.408  1.00  0.00     0.025 C
ENDBRANCH  15  17
ENDBRANCH  14  15
ENDBRANCH   3  14
BRANCH   2  21
HETATM   21  C9  UNL     1     -13.293 -16.643 -52.391  1.00  0.00     0.269 C
HETATM   22  O2  UNL     1     -13.001 -17.667 -53.120  1.00  0.00    -0.265 OA
BRANCH  21  23
HETATM   23  O3  UNL     1     -14.262 -15.828 -52.926  1.00  0.00    -0.311 OA
BRANCH  23  24
HETATM   24  C10 UNL     1     -15.623 -16.130 -53.043  1.00  0.00     0.060 C
HETATM   25  C11 UNL     1     -15.834 -16.719 -54.445  1.00  0.00     0.045 C
HETATM   26  C12 UNL     1     -16.418 -14.840 -53.035  1.00  0.00     0.045 C
HETATM   27  C13 UNL     1     -16.114 -17.117 -52.037  1.00  0.00     0.045 C
ENDBRANCH  23  24
ENDBRANCH  21  23
ENDBRANCH   2  21
BRANCH   1  28
HETATM   28  C6  UNL     1     -13.421 -17.566 -49.195  1.00  0.00     0.035 C
BRANCH  28  29
HETATM   29  C5  UNL     1     -14.353 -17.895 -48.140  1.00  0.00     0.174 C
HETATM   30  O1  UNL     1     -14.006 -17.746 -46.941  1.00  0.00    -0.288 OA
BRANCH  29  31
HETATM   31  C3  UNL     1     -15.712 -18.406 -48.395  1.00  0.00    -0.016 C
HETATM   32  C2  UNL     1     -15.957 -19.471 -49.127  1.00  0.00    -0.020 C
HETATM   33  C1  UNL     1     -14.956 -20.311 -49.790  1.00  0.00     0.036 C
HETATM   34  C4  UNL     1     -16.844 -17.664 -47.791  1.00  0.00     0.052 C
ENDBRANCH  29  31
ENDBRANCH  28  29
ENDBRANCH   1  28
BRANCH   6  35
HETATM   35  C23 UNL     1     -12.204 -10.724 -49.343  1.00  0.00     0.038 C
BRANCH  35  36
HETATM   36  C24 UNL     1     -11.095 -10.524 -48.384  1.00  0.00     0.032 C
BRANCH  36  37
HETATM   37  C25 UNL     1     -10.009  -9.657 -48.796  1.00  0.00    -0.022 C
HETATM   38  C26 UNL     1      -9.243  -9.599 -49.834  1.00  0.00    -0.061 C
BRANCH  38  39
HETATM   39  C27 UNL     1      -9.133 -10.384 -51.056  1.00  0.00     0.031 C
HETATM   40  C28 UNL     1      -8.617 -11.802 -50.769  1.00  0.00     0.010 C
ENDBRANCH  38  39
BRANCH  38  41
HETATM   41  C29 UNL     1      -8.240  -8.418 -49.803  1.00  0.00     0.198 C
BRANCH  41  42
HETATM   42  O7  UNL     1      -7.410  -8.492 -50.887  1.00  0.00    -0.397 OA
ATOM     43  H7  UNL     1      -7.026  -7.639 -51.054  1.00  0.00     0.209 HD
ENDBRANCH  41  42
ENDBRANCH  38  41
ENDBRANCH  36  37
ENDBRANCH  35  36
ENDBRANCH   6  35
BRANCH   8  44
HETATM   44  O8  UNL     1     -14.862 -13.657 -50.042  1.00  0.00    -0.389 OA
ATOM     45  H8  UNL     1     -15.185 -14.458 -50.437  1.00  0.00     0.210 HD
ENDBRANCH   8  44
TORSDOF 17
ENDMDL