MODEL 4
REMARK VINA RESULT: -8.262459543      1.988      4.042
REMARK  16 active torsions:
REMARK  status: ('A' for Active; 'I' for Inactive)
REMARK    1  A    between atoms: C3_3  and  C4_4
REMARK    2  A    between atoms: C3_3  and  C31_39
REMARK    3  A    between atoms: C4_4  and  O2_6
REMARK    4  A    between atoms: O2_6  and  C5_7
REMARK    5  A    between atoms: C6_8  and  O3_9
REMARK    6  A    between atoms: C8_12  and  C10_14
REMARK    7  A    between atoms: C11_15  and  C12_16
REMARK    8  A    between atoms: C14_18  and  C15_19
REMARK    9  A    between atoms: C15_19  and  C16_20
REMARK   10  A    between atoms: C16_20  and  C17_21
REMARK   11  A    between atoms: C17_21  and  O5_23
REMARK   12  A    between atoms: O5_23  and  C18_24
REMARK   13  A    between atoms: C18_24  and  C19_25
REMARK   14  A    between atoms: C27_33  and  O6_35
REMARK   15  A    between atoms: O6_35  and  C29_36
REMARK   16  A    between atoms: C31_39  and  O8_42
ROOT
HETATM    1  C5  UNL     1     -13.099 -16.276 -50.408  1.00  0.00     0.196 C
HETATM    2  C6  UNL     1     -13.250 -17.619 -49.695  1.00  0.00     0.151 C
HETATM    3  C7  UNL     1     -14.576 -17.413 -48.937  1.00  0.00     0.050 C
HETATM    4  C8  UNL     1     -14.249 -16.081 -48.289  1.00  0.00     0.010 C
HETATM    5  C9  UNL     1     -13.161 -16.375 -47.250  1.00  0.00     0.023 C
HETATM    6  C27 UNL     1     -13.636 -15.279 -49.446  1.00  0.00     0.106 C
HETATM    7  C28 UNL     1     -14.713 -14.483 -50.153  1.00  0.00     0.050 C
ENDROOT
BRANCH   4   8
HETATM    8  C10 UNL     1     -15.358 -15.443 -47.622  1.00  0.00    -0.014 C
HETATM    9  C11 UNL     1     -16.385 -16.098 -47.144  1.00  0.00     0.003 C
BRANCH   9  10
HETATM   10  C12 UNL     1     -17.512 -15.420 -46.462  1.00  0.00    -0.066 C
HETATM   11  C13 UNL     1     -17.442 -13.948 -46.440  1.00  0.00     0.048 C
HETATM   12  C14 UNL     1     -18.482 -16.094 -45.928  1.00  0.00    -0.020 C
BRANCH  12  13
HETATM   13  C15 UNL     1     -19.641 -15.552 -45.231  1.00  0.00     0.037 C
BRANCH  13  14
HETATM   14  C16 UNL     1     -20.958 -16.099 -45.769  1.00  0.00     0.115 C
BRANCH  14  15
HETATM   15  C17 UNL     1     -21.968 -14.987 -45.883  1.00  0.00     0.259 C
HETATM   16  O4  UNL     1     -23.062 -15.238 -46.421  1.00  0.00    -0.265 OA
BRANCH  15  17
HETATM   17  O5  UNL     1     -21.730 -13.742 -45.426  1.00  0.00    -0.320 OA
BRANCH  17  18
HETATM   18  C18 UNL     1     -22.249 -12.518 -45.633  1.00  0.00     0.192 C
BRANCH  18  19
HETATM   19  C19 UNL     1     -21.435 -11.298 -45.828  1.00  0.00    -0.004 C
HETATM   20  C20 UNL     1     -20.256 -11.798 -46.751  1.00  0.00     0.021 C
HETATM   21  C21 UNL     1     -22.126 -10.320 -46.755  1.00  0.00    -0.013 C
HETATM   22  C22 UNL     1     -22.704  -9.242 -46.283  1.00  0.00    -0.087 C
HETATM   23  C23 UNL     1     -23.397  -8.263 -47.221  1.00  0.00     0.043 C
HETATM   24  C24 UNL     1     -22.682  -8.985 -44.824  1.00  0.00     0.033 C
HETATM   25  C25 UNL     1     -21.461  -9.436 -44.113  1.00  0.00     0.005 C
HETATM   26  C26 UNL     1     -20.768 -10.635 -44.702  1.00  0.00     0.015 C
ENDBRANCH  18  19
ENDBRANCH  17  18
ENDBRANCH  15  17
ENDBRANCH  14  15
ENDBRANCH  13  14
ENDBRANCH  12  13
ENDBRANCH   9  10
ENDBRANCH   4   8
BRANCH   6  27
HETATM   27  O6  UNL     1     -12.661 -14.473 -48.863  1.00  0.00    -0.307 OA
BRANCH  27  28
HETATM   28  C29 UNL     1     -12.482 -13.125 -49.008  1.00  0.00     0.255 C
HETATM   29  C30 UNL     1     -11.649 -12.638 -50.138  1.00  0.00     0.126 C
HETATM   30  O7  UNL     1     -13.036 -12.374 -48.173  1.00  0.00    -0.266 OA
ENDBRANCH  27  28
ENDBRANCH   6  27
BRANCH   2  31
HETATM   31  O3  UNL     1     -13.312 -18.678 -50.571  1.00  0.00    -0.393 OA
ATOM     32  H3  UNL     1     -12.742 -19.395 -50.317  1.00  0.00     0.210 HD
ENDBRANCH   2  31
BRANCH   1  33
HETATM   33  O2  UNL     1     -13.887 -16.401 -51.606  1.00  0.00    -0.306 OA
BRANCH  33  34
HETATM   34  C4  UNL     1     -13.269 -16.163 -52.809  1.00  0.00     0.292 C
HETATM   35  O1  UNL     1     -13.975 -15.844 -53.792  1.00  0.00    -0.259 OA
BRANCH  34  36
HETATM   36  C3  UNL     1     -11.799 -16.256 -53.024  1.00  0.00     0.046 C
HETATM   37  C2  UNL     1     -11.128 -15.148 -52.890  1.00  0.00    -0.015 C
HETATM   38  C1  UNL     1      -9.701 -14.872 -53.021  1.00  0.00     0.037 C
BRANCH  36  39
HETATM   39  C31 UNL     1     -11.293 -17.579 -53.364  1.00  0.00     0.083 C
HETATM   40  C32 UNL     1     -10.256 -18.052 -52.323  1.00  0.00     0.051 C
HETATM   41  C33 UNL     1     -10.697 -17.779 -54.712  1.00  0.00     0.051 C
BRANCH  39  42
HETATM   42  O8  UNL     1     -12.400 -18.468 -53.294  1.00  0.00    -0.386 OA
ATOM     43  H8  UNL     1     -13.051 -18.139 -53.903  1.00  0.00     0.211 HD
ENDBRANCH  39  42
ENDBRANCH  36  39
ENDBRANCH  34  36
ENDBRANCH  33  34
ENDBRANCH   1  33
TORSDOF 16
ENDMDL