MODEL 1
REMARK VINA RESULT: -7.474335949      0.000      0.000
REMARK  11 active torsions:
REMARK  status: ('A' for Active; 'I' for Inactive)
REMARK    1  A    between atoms: C2_2  and  C3_3
REMARK    2  A    between atoms: C5_6  and  C6_7
REMARK    3  A    between atoms: C7_8  and  C8_9
REMARK    4  A    between atoms: C10_11  and  C11_12
REMARK    5  A    between atoms: C12_13  and  O2_14
REMARK    6  A    between atoms: C13_16  and  O3_17
REMARK    7  A    between atoms: C16_20  and  C17_21
REMARK    8  A    between atoms: C17_21  and  C21_25
REMARK    9  A    between atoms: C18_22  and  C19_23
REMARK   10  A    between atoms: C22_28  and  C23_29
REMARK   11  A    between atoms: C33_42  and  O9_43
ROOT
HETATM    1  C11 UNL     1      -9.871 -11.104 -50.302  1.00  0.00     0.011 A
HETATM    2  C12 UNL     1      -9.591  -9.755 -50.133  1.00  0.00     0.110 A
HETATM    3  C13 UNL     1      -8.319  -9.242 -50.238  1.00  0.00     0.102 A
HETATM    4  C15 UNL     1      -7.322 -10.111 -50.515  1.00  0.00     0.053 A
HETATM    5  C16 UNL     1      -7.561 -11.496 -50.691  1.00  0.00    -0.006 A
HETATM    6  C22 UNL     1      -8.823 -12.019 -50.593  1.00  0.00     0.003 A
ENDROOT
BRANCH   1   7
HETATM    7  C10 UNL     1     -11.208 -11.636 -50.320  1.00  0.00     0.021 C
HETATM    8  C8  UNL     1     -11.893 -11.909 -49.220  1.00  0.00    -0.061 C
HETATM    9  C9  UNL     1     -11.303 -11.567 -47.903  1.00  0.00     0.048 C
BRANCH   8  10
HETATM   10  C7  UNL     1     -13.247 -12.438 -49.257  1.00  0.00     0.005 C
HETATM   11  C6  UNL     1     -13.778 -13.674 -48.760  1.00  0.00     0.006 C
BRANCH  11  12
HETATM   12  C5  UNL     1     -13.480 -15.022 -49.213  1.00  0.00     0.153 C
HETATM   13  O1  UNL     1     -14.771 -15.530 -49.719  1.00  0.00    -0.364 OA
HETATM   14  C3  UNL     1     -14.475 -16.268 -50.876  1.00  0.00     0.101 C
HETATM   15  C4  UNL     1     -15.655 -17.142 -51.194  1.00  0.00     0.053 C
HETATM   16  C33 UNL     1     -13.287 -17.179 -50.600  1.00  0.00     0.157 C
HETATM   17  C32 UNL     1     -13.294 -17.433 -49.122  1.00  0.00     0.046 C
HETATM   18  C29 UNL     1     -12.885 -16.094 -48.430  1.00  0.00    -0.016 C
HETATM   19  C30 UNL     1     -11.377 -16.143 -48.436  1.00  0.00     0.018 C
HETATM   20  C31 UNL     1     -13.386 -16.260 -47.027  1.00  0.00     0.018 C
BRANCH  14  21
HETATM   21  C2  UNL     1     -14.166 -15.430 -52.047  1.00  0.00     0.003 C
HETATM   22  C1  UNL     1     -14.505 -15.793 -53.279  1.00  0.00     0.010 C
ENDBRANCH  14  21
BRANCH  16  23
HETATM   23  O9  UNL     1     -13.414 -18.375 -51.326  1.00  0.00    -0.392 OA
ATOM     24  H9  UNL     1     -12.598 -18.862 -51.302  1.00  0.00     0.210 HD
ENDBRANCH  16  23
ENDBRANCH  11  12
ENDBRANCH   8  10
ENDBRANCH   1   7
BRANCH   2  25
HETATM   25  O2  UNL     1     -10.635  -8.887 -49.839  1.00  0.00    -0.357 OA
ATOM     26  H2  UNL     1     -10.505  -8.226 -49.169  1.00  0.00     0.217 HD
ENDBRANCH   2  25
BRANCH   6  27
HETATM   27  C23 UNL     1      -9.111 -13.417 -50.835  1.00  0.00     0.237 C
HETATM   28  O6  UNL     1      -8.254 -14.219 -49.909  1.00  0.00    -0.302 OA
HETATM   29  C24 UNL     1      -8.201 -15.503 -50.369  1.00  0.00     0.275 C
HETATM   30  O7  UNL     1      -7.939 -16.497 -49.624  1.00  0.00    -0.264 OA
HETATM   31  C25 UNL     1      -8.493 -15.498 -51.805  1.00  0.00     0.104 C
HETATM   32  C26 UNL     1      -7.352 -16.008 -52.623  1.00  0.00     0.034 C
HETATM   33  C27 UNL     1      -9.769 -16.297 -52.073  1.00  0.00     0.034 C
HETATM   34  C28 UNL     1      -8.842 -14.072 -52.086  1.00  0.00     0.178 C
HETATM   35  O8  UNL     1      -8.865 -13.651 -53.237  1.00  0.00    -0.293 OA
ENDBRANCH   6  27
BRANCH   3  36
HETATM   36  O3  UNL     1      -8.117  -7.873 -50.058  1.00  0.00    -0.353 OA
HETATM   37  C14 UNL     1      -6.840  -7.288 -50.074  1.00  0.00     0.210 C
ENDBRANCH   3  36
BRANCH   5  38
HETATM   38  C17 UNL     1      -6.382 -12.269 -51.096  1.00  0.00     0.048 C
HETATM   39  C18 UNL     1      -5.772 -12.923 -50.142  1.00  0.00    -0.008 C
BRANCH  39  40
HETATM   40  C19 UNL     1      -4.599 -13.781 -50.125  1.00  0.00     0.024 C
HETATM   41  C20 UNL     1      -4.813 -14.774 -48.957  1.00  0.00     0.009 C
ENDBRANCH  39  40
BRANCH  38  42
HETATM   42  C21 UNL     1      -6.026 -12.420 -52.470  1.00  0.00     0.209 C
HETATM   43  O4  UNL     1      -5.365 -13.421 -52.944  1.00  0.00    -0.644 OA
HETATM   44  O5  UNL     1      -6.379 -11.481 -53.468  1.00  0.00    -0.644 OA
ENDBRANCH  38  42
ENDBRANCH   5  38
TORSDOF 11
ENDMDL