MODEL 3
REMARK VINA RESULT: -7.571943219      1.310      1.503
REMARK  14 active torsions:
REMARK  status: ('A' for Active; 'I' for Inactive)
REMARK    1  A    between atoms: O1_2  and  C2_3
REMARK    2  A    between atoms: C9_11  and  C10_12
REMARK    3  A    between atoms: C10_12  and  O3_13
REMARK    4  A    between atoms: C10_12  and  C11_15
REMARK    5  A    between atoms: C12_17  and  O4_18
REMARK    6  A    between atoms: C15_22  and  O5_23
REMARK    7  A    between atoms: C17_26  and  C18_27
REMARK    8  A    between atoms: C17_26  and  C23_32
REMARK    9  A    between atoms: C18_27  and  C19_28
REMARK   10  A    between atoms: C23_32  and  C24_33
REMARK   11  A    between atoms: C25_34  and  C27_36
REMARK   12  A    between atoms: C27_36  and  C28_37
REMARK   13  A    between atoms: C28_37  and  C29_38
REMARK   14  A    between atoms: C34_44  and  O7_45
ROOT
HETATM    1  C2  UNL     1     -13.335 -18.716 -52.746  1.00  0.00     0.155 C
HETATM    2  C3  UNL     1     -14.386 -17.694 -53.133  1.00  0.00     0.015 C
HETATM    3  C4  UNL     1     -15.692 -18.305 -53.549  1.00  0.00     0.012 C
HETATM    4  C5  UNL     1     -14.538 -16.778 -51.934  1.00  0.00     0.035 C
HETATM    5  C6  UNL     1     -13.446 -17.076 -50.980  1.00  0.00     0.115 C
HETATM    6  C7  UNL     1     -13.978 -17.619 -49.719  1.00  0.00     0.179 C
HETATM    7  O2  UNL     1     -13.795 -18.761 -49.272  1.00  0.00    -0.291 OA
HETATM    8  C8  UNL     1     -14.796 -16.692 -48.913  1.00  0.00     0.037 A
HETATM    9  C9  UNL     1     -15.928 -17.160 -48.297  1.00  0.00     0.042 A
HETATM   10  C12 UNL     1     -16.536 -16.327 -47.332  1.00  0.00     0.088 A
HETATM   11  C13 UNL     1     -15.932 -15.085 -47.096  1.00  0.00     0.006 A
HETATM   12  C14 UNL     1     -16.590 -14.200 -46.058  1.00  0.00     0.054 C
HETATM   13  C15 UNL     1     -14.812 -14.664 -47.744  1.00  0.00     0.082 A
HETATM   14  C16 UNL     1     -14.174 -15.452 -48.703  1.00  0.00     0.007 A
HETATM   15  C17 UNL     1     -12.999 -14.947 -49.418  1.00  0.00     0.059 C
HETATM   16  C33 UNL     1     -12.729 -15.822 -50.622  1.00  0.00     0.159 C
HETATM   17  O6  UNL     1     -11.855 -15.508 -51.382  1.00  0.00    -0.295 OA
HETATM   18  C34 UNL     1     -12.511 -18.057 -51.673  1.00  0.00     0.171 C
ENDROOT
BRANCH  15  19
HETATM   19  C18 UNL     1     -11.695 -15.062 -48.694  1.00  0.00     0.050 C
BRANCH  19  20
HETATM   20  C19 UNL     1     -11.319 -16.255 -47.998  1.00  0.00    -0.023 C
HETATM   21  C20 UNL     1     -10.128 -16.831 -48.251  1.00  0.00    -0.091 C
HETATM   22  C21 UNL     1      -9.681 -18.062 -47.568  1.00  0.00     0.042 C
HETATM   23  C22 UNL     1      -9.221 -16.207 -49.253  1.00  0.00     0.042 C
ENDBRANCH  19  20
ENDBRANCH  15  19
BRANCH  15  24
HETATM   24  C23 UNL     1     -13.283 -13.604 -50.052  1.00  0.00     0.050 C
BRANCH  24  25
HETATM   25  C24 UNL     1     -12.768 -12.413 -49.392  1.00  0.00    -0.023 C
HETATM   26  C25 UNL     1     -11.585 -11.908 -49.715  1.00  0.00    -0.087 C
HETATM   27  C26 UNL     1     -10.716 -12.500 -50.738  1.00  0.00     0.043 C
BRANCH  26  28
HETATM   28  C27 UNL     1     -11.123 -10.709 -48.981  1.00  0.00     0.037 C
BRANCH  28  29
HETATM   29  C28 UNL     1     -10.653  -9.562 -49.774  1.00  0.00     0.031 C
BRANCH  29  30
HETATM   30  C29 UNL     1      -9.441  -8.866 -49.398  1.00  0.00    -0.024 C
HETATM   31  C30 UNL     1      -8.317  -8.970 -50.136  1.00  0.00    -0.091 C
HETATM   32  C31 UNL     1      -8.312  -9.814 -51.361  1.00  0.00     0.042 C
HETATM   33  C32 UNL     1      -7.070  -8.239 -49.720  1.00  0.00     0.042 C
ENDBRANCH  29  30
ENDBRANCH  28  29
ENDBRANCH  26  28
ENDBRANCH  24  25
ENDBRANCH  15  24
BRANCH  13  34
HETATM   34  O5  UNL     1     -14.333 -13.426 -47.411  1.00  0.00    -0.359 OA
ATOM     35  H5  UNL     1     -14.856 -12.911 -46.808  1.00  0.00     0.217 HD
ENDBRANCH  13  34
BRANCH   9  36
HETATM   36  C10 UNL     1     -16.629 -18.382 -48.600  1.00  0.00     0.071 C
BRANCH  36  37
HETATM   37  O3  UNL     1     -16.584 -19.321 -47.697  1.00  0.00    -0.363 OA
ATOM     38  H3  UNL     1     -17.113 -19.190 -46.919  1.00  0.00     0.217 HD
ENDBRANCH  36  37
BRANCH  36  39
HETATM   39  C11 UNL     1     -17.427 -18.803 -49.735  1.00  0.00     0.179 C
HETATM   40 CL1  UNL     1     -16.575 -20.249 -50.529  1.00  0.00    -0.123 Cl
ENDBRANCH  36  39
ENDBRANCH   9  36
BRANCH  18  41
HETATM   41  O7  UNL     1     -11.953 -18.875 -50.742  1.00  0.00    -0.391 OA
ATOM     42  H7  UNL     1     -11.125 -18.595 -50.368  1.00  0.00     0.210 HD
ENDBRANCH  18  41
BRANCH  10  43
HETATM   43  O4  UNL     1     -17.619 -16.618 -46.637  1.00  0.00    -0.359 OA
ATOM     44  H4  UNL     1     -17.640 -17.108 -45.823  1.00  0.00     0.217 HD
ENDBRANCH  10  43
BRANCH   1  45
HETATM   45  O1  UNL     1     -13.793 -19.951 -52.469  1.00  0.00    -0.388 OA
HETATM   46  C1  UNL     1     -13.243 -21.012 -53.135  1.00  0.00     0.202 C
ENDBRANCH   1  45
TORSDOF 14
ENDMDL