MODEL 4
REMARK VINA RESULT: -8.640302118      2.256      2.799
REMARK  12 active torsions:
REMARK  status: ('A' for Active; 'I' for Inactive)
REMARK    1  A    between atoms: C2_2  and  C3_3
REMARK    2  A    between atoms: C3_3  and  C4_4
REMARK    3  A    between atoms: C3_3  and  C28_42
REMARK    4  A    between atoms: C4_4  and  C5_5
REMARK    5  A    between atoms: C5_5  and  C6_6
REMARK    6  A    between atoms: C9_10  and  O2_11
REMARK    7  A    between atoms: O2_11  and  C10_12
REMARK    8  A    between atoms: C10_12  and  C11_14
REMARK    9  A    between atoms: C11_14  and  N1_15
REMARK   10  A    between atoms: C11_14  and  C16_27
REMARK       I    between atoms: N1_15  and  C12_17
REMARK       I    between atoms: C12_17  and  N2_19
REMARK   11  A    between atoms: N2_19  and  C13_21
REMARK   12  A    between atoms: C27_39  and  O6_40
ROOT
HETATM    1  C6  UNL     1     -15.324 -14.448 -46.906  1.00  0.00     0.125 C
HETATM    2  O1  UNL     1     -14.518 -13.650 -47.661  1.00  0.00    -0.385 OA
HETATM    3  C7  UNL     1     -14.755 -13.522 -48.987  1.00  0.00     0.180 C
HETATM    4  C8  UNL     1     -13.516 -13.449 -49.859  1.00  0.00     0.095 C
HETATM    5  C9  UNL     1     -12.252 -13.587 -49.093  1.00  0.00     0.278 C
HETATM    6  O5  UNL     1     -11.886 -14.857 -48.737  1.00  0.00    -0.354 OA
HETATM    7  C19 UNL     1     -12.303 -15.902 -49.474  1.00  0.00     0.135 C
HETATM    8  C20 UNL     1     -13.352 -16.666 -48.678  1.00  0.00     0.033 C
HETATM    9  C21 UNL     1     -13.524 -16.135 -47.295  1.00  0.00     0.009 C
HETATM   10  C22 UNL     1     -14.971 -15.915 -46.901  1.00  0.00     0.011 C
HETATM   11  C23 UNL     1     -15.929 -16.784 -47.672  1.00  0.00     0.012 C
HETATM   12  C24 UNL     1     -12.730 -15.610 -50.879  1.00  0.00     0.005 C
HETATM   13  C25 UNL     1     -11.455 -15.518 -51.729  1.00  0.00     0.020 C
HETATM   14  C26 UNL     1     -13.484 -16.828 -51.385  1.00  0.00     0.020 C
HETATM   15  C27 UNL     1     -13.574 -14.391 -51.038  1.00  0.00     0.139 C
ENDROOT
BRANCH   5  16
HETATM   16  O2  UNL     1     -11.137 -12.990 -49.714  1.00  0.00    -0.287 OA
BRANCH  16  17
HETATM   17  C10 UNL     1     -10.443 -11.908 -49.243  1.00  0.00     0.284 C
HETATM   18  O3  UNL     1     -10.711 -11.534 -48.071  1.00  0.00    -0.263 OA
BRANCH  17  19
HETATM   19  C11 UNL     1      -9.446 -11.263 -50.107  1.00  0.00     0.189 C
BRANCH  19  20
HETATM   20  N1  UNL     1      -9.390 -11.857 -51.426  1.00  0.00    -0.329 N
HETATM   21  C12 UNL     1      -8.543 -12.942 -51.755  1.00  0.00     0.322 C
HETATM   22  O4  UNL     1      -7.765 -13.471 -50.896  1.00  0.00    -0.247 OA
HETATM   23  N2  UNL     1      -8.533 -13.477 -53.058  1.00  0.00    -0.289 N
ATOM     24  H2  UNL     1      -9.147 -13.076 -53.769  1.00  0.00     0.172 HD
ATOM     25  H1  UNL     1      -9.991 -11.475 -52.156  1.00  0.00     0.165 HD
BRANCH  23  26
HETATM   26  C13 UNL     1      -7.669 -14.583 -53.409  1.00  0.00     0.152 A
HETATM   27  N3  UNL     1      -6.362 -14.692 -53.219  1.00  0.00    -0.346 N
HETATM   28  C14 UNL     1      -5.743 -15.762 -53.598  1.00  0.00     0.097 A
ATOM     29  H3  UNL     1      -5.845 -13.933 -52.775  1.00  0.00     0.167 HD
HETATM   30  C15 UNL     1      -6.487 -16.753 -54.190  1.00  0.00     0.070 A
HETATM   31  S1  UNL     1      -8.055 -16.065 -54.160  1.00  0.00    -0.064 SA
ENDBRANCH  23  26
ENDBRANCH  19  20
BRANCH  19  32
HETATM   32  C16 UNL     1      -9.770  -9.783 -50.258  1.00  0.00     0.010 C
HETATM   33  C17 UNL     1      -8.795  -8.902 -49.548  1.00  0.00     0.012 C
HETATM   34  C18 UNL     1     -11.182  -9.472 -49.867  1.00  0.00     0.012 C
ENDBRANCH  19  32
ENDBRANCH  17  19
ENDBRANCH  16  17
ENDBRANCH   5  16
BRANCH  15  35
HETATM   35  O6  UNL     1     -14.919 -14.691 -51.325  1.00  0.00    -0.394 OA
ATOM     36  H6  UNL     1     -15.139 -15.534 -50.947  1.00  0.00     0.210 HD
ENDBRANCH  15  35
BRANCH   1  37
HETATM   37  C5  UNL     1     -16.807 -14.213 -47.053  1.00  0.00     0.033 C
BRANCH  37  38
HETATM   38  C4  UNL     1     -17.615 -14.564 -45.850  1.00  0.00     0.007 C
BRANCH  38  39
HETATM   39  C3  UNL     1     -19.017 -15.020 -46.042  1.00  0.00    -0.012 C
BRANCH  39  40
HETATM   40  C2  UNL     1     -20.105 -14.022 -46.010  1.00  0.00     0.000 C
HETATM   41  C1  UNL     1     -19.830 -12.599 -46.288  1.00  0.00     0.005 C
ENDBRANCH  39  40
BRANCH  39  42
HETATM   42  C28 UNL     1     -19.320 -16.189 -45.070  1.00  0.00    -0.019 C
HETATM   43  C29 UNL     1     -18.610 -17.436 -45.510  1.00  0.00     0.010 C
HETATM   44  C30 UNL     1     -20.784 -16.462 -44.977  1.00  0.00     0.010 C
ENDBRANCH  39  42
ENDBRANCH  38  39
ENDBRANCH  37  38
ENDBRANCH   1  37
TORSDOF 12
ENDMDL