MODEL 5
REMARK VINA RESULT: -8.526180284      1.536      2.175
REMARK  15 active torsions:
REMARK  status: ('A' for Active; 'I' for Inactive)
REMARK    1  A    between atoms: C2_2  and  C4_4
REMARK    2  A    between atoms: C4_4  and  O2_6
REMARK    3  A    between atoms: O2_6  and  C5_7
REMARK    4  A    between atoms: C5_7  and  C6_8
REMARK    5  A    between atoms: C6_8  and  C8_10
REMARK    6  A    between atoms: C8_10  and  N1_11
REMARK    7  A    between atoms: C8_10  and  C22_27
REMARK    8  A    between atoms: N1_11  and  C9_12
REMARK    9  A    between atoms: C9_12  and  C11_14
REMARK   10  A    between atoms: N2_15  and  C12_17
REMARK   11  A    between atoms: C13_18  and  C14_19
REMARK   12  A    between atoms: C15_20  and  C16_21
REMARK   13  A    between atoms: C22_27  and  O4_29
REMARK   14  A    between atoms: O4_29  and  C23_30
REMARK   15  A    between atoms: C29_36  and  O5_37
ROOT
HETATM    1  C8  UNL     1     -13.960  15.658  -8.779  1.00  0.00     0.268 C
ENDROOT
BRANCH   1   2
HETATM    2  C6  UNL     1     -15.068  15.027  -9.670  1.00  0.00     0.052 C
HETATM    3  C7  UNL     1     -15.940  16.185 -10.178  1.00  0.00     0.016 C
BRANCH   2   4
HETATM    4  C5  UNL     1     -15.890  14.050  -8.930  1.00  0.00     0.187 C
BRANCH   4   5
HETATM    5  O2  UNL     1     -16.356  14.546  -7.677  1.00  0.00    -0.317 OA
BRANCH   5   6
HETATM    6  C4  UNL     1     -17.547  14.231  -7.083  1.00  0.00     0.288 C
HETATM    7  O1  UNL     1     -17.534  13.500  -6.067  1.00  0.00    -0.260 OA
BRANCH   6   8
HETATM    8  C2  UNL     1     -18.838  14.706  -7.578  1.00  0.00     0.004 C
HETATM    9  C1  UNL     1     -18.933  15.944  -8.010  1.00  0.00     0.024 C
HETATM   10  C3  UNL     1     -20.039  13.820  -7.606  1.00  0.00     0.054 C
ENDBRANCH   6   8
ENDBRANCH   5   6
ENDBRANCH   4   5
ENDBRANCH   2   4
ENDBRANCH   1   2
BRANCH   1  11
HETATM   11  N1  UNL     1     -13.194  16.535  -9.463  1.00  0.00    -0.435 NA
BRANCH  11  12
HETATM   12  C9  UNL     1     -12.505  17.309 -10.067  1.00  0.00     0.090 C
HETATM   13  C10 UNL     1     -12.905  17.988 -11.368  1.00  0.00     0.086 C
BRANCH  12  14
HETATM   14  C11 UNL     1     -11.146  17.707  -9.587  1.00  0.00     0.126 C
HETATM   15  N2  UNL     1     -10.682  17.146  -8.551  1.00  0.00    -0.372 N
ATOM     16  H2  UNL     1     -11.277  16.449  -8.104  1.00  0.00     0.164 HD
BRANCH  15  17
HETATM   17  C12 UNL     1      -9.434  17.383  -7.954  1.00  0.00     0.087 C
HETATM   18  C13 UNL     1      -9.261  17.234  -6.608  1.00  0.00     0.017 C
BRANCH  18  19
HETATM   19  C14 UNL     1     -10.369  16.832  -5.814  1.00  0.00     0.002 C
HETATM   20  C15 UNL     1     -10.588  15.850  -5.039  1.00  0.00     0.011 C
BRANCH  20  21
HETATM   21  C16 UNL     1      -9.834  14.700  -4.611  1.00  0.00    -0.036 A
HETATM   22  C17 UNL     1      -9.712  13.623  -5.524  1.00  0.00     0.011 A
HETATM   23  C18 UNL     1      -8.993  12.501  -5.192  1.00  0.00     0.001 A
HETATM   24  C19 UNL     1      -8.362  12.356  -3.982  1.00  0.00     0.000 A
HETATM   25  C20 UNL     1      -8.476  13.394  -3.093  1.00  0.00     0.001 A
HETATM   26  C21 UNL     1      -9.203  14.544  -3.412  1.00  0.00     0.011 A
ENDBRANCH  20  21
ENDBRANCH  18  19
ENDBRANCH  15  17
ENDBRANCH  12  14
ENDBRANCH  11  12
ENDBRANCH   1  11
BRANCH   1  27
HETATM   27  C22 UNL     1     -13.112  14.538  -8.281  1.00  0.00     0.295 C
HETATM   28  O3  UNL     1     -12.822  14.324  -7.092  1.00  0.00    -0.262 OA
BRANCH  27  29
HETATM   29  O4  UNL     1     -12.558  13.603  -9.169  1.00  0.00    -0.311 OA
BRANCH  29  30
HETATM   30  C23 UNL     1     -11.270  13.083  -8.992  1.00  0.00     0.160 C
HETATM   31  C24 UNL     1     -10.476  13.500 -10.243  1.00  0.00     0.035 C
HETATM   32  C25 UNL     1      -9.137  14.117  -9.823  1.00  0.00     0.002 C
HETATM   33  C26 UNL     1      -8.430  13.267  -8.807  1.00  0.00     0.000 C
HETATM   34  C27 UNL     1      -8.676  11.816  -9.169  1.00  0.00     0.002 C
HETATM   35  C28 UNL     1      -9.804  11.187  -8.426  1.00  0.00     0.034 C
HETATM   36  C29 UNL     1     -11.174  11.606  -8.864  1.00  0.00     0.147 C
BRANCH  36  37
HETATM   37  O5  UNL     1     -11.489  10.942 -10.049  1.00  0.00    -0.393 OA
ATOM     38  H5  UNL     1     -11.001  10.135 -10.157  1.00  0.00     0.210 HD
ENDBRANCH  36  37
ENDBRANCH  29  30
ENDBRANCH  27  29
ENDBRANCH   1  27
TORSDOF 15
ENDMDL