MODEL 1
REMARK VINA RESULT: -8.661056606      0.000      0.000
REMARK  12 active torsions:
REMARK  status: ('A' for Active; 'I' for Inactive)
REMARK    1  A    between atoms: C2_2  and  C3_3
REMARK    2  A    between atoms: C3_3  and  O1_4
REMARK    3  A    between atoms: O1_4  and  C4_5
REMARK    4  A    between atoms: C9_10  and  O2_11
REMARK    5  A    between atoms: O2_11  and  C10_12
REMARK    6  A    between atoms: C10_12  and  C11_14
REMARK    7  A    between atoms: C13_16  and  C14_17
REMARK    8  A    between atoms: C14_17  and  C15_18
REMARK    9  A    between atoms: C15_18  and  C16_20
REMARK   10  A    between atoms: C19_24  and  C20_25
REMARK   11  A    between atoms: C20_25  and  C21_26
REMARK   12  A    between atoms: C25_30  and  O6_31
ROOT
HETATM    1  C4  UNL     1      -9.949   7.289 -12.572  1.00  0.00     0.160 C
HETATM    2  C5  UNL     1     -11.114   8.335 -12.325  1.00  0.00     0.079 C
HETATM    3  C6  UNL     1     -10.698   9.000 -11.064  1.00  0.00     0.012 A
HETATM    4  C7  UNL     1      -9.378   9.054 -10.643  1.00  0.00     0.081 A
HETATM    5  C8  UNL     1      -9.120   9.697  -9.460  1.00  0.00     0.075 A
HETATM    6  C9  UNL     1     -10.102  10.294  -8.662  1.00  0.00     0.091 A
HETATM    7  C19 UNL     1     -11.400  10.235  -9.089  1.00  0.00     0.013 A
HETATM    8  C25 UNL     1     -11.676   9.584 -10.290  1.00  0.00     0.084 A
HETATM    9  O7  UNL     1      -8.326   8.477 -11.391  1.00  0.00    -0.338 OA
HETATM   10  C26 UNL     1      -8.687   8.075 -12.725  1.00  0.00     0.087 C
HETATM   11  C27 UNL     1      -8.881   9.386 -13.480  1.00  0.00     0.049 C
HETATM   12  C28 UNL     1      -7.621   7.281 -13.402  1.00  0.00     0.049 C
ENDROOT
BRANCH   6  13
HETATM   13  O2  UNL     1      -9.705  10.924  -7.463  1.00  0.00    -0.276 OA
BRANCH  13  14
HETATM   14  C10 UNL     1      -9.055  12.145  -7.476  1.00  0.00     0.293 C
HETATM   15  O3  UNL     1      -8.144  12.320  -8.319  1.00  0.00    -0.262 OA
BRANCH  14  16
HETATM   16  C11 UNL     1      -9.357  13.269  -6.563  1.00  0.00     0.221 C
HETATM   17  C12 UNL     1     -10.435  14.179  -7.097  1.00  0.00     0.049 C
HETATM   18  C13 UNL     1     -10.791  14.951  -5.847  1.00  0.00     0.019 C
HETATM   19  C18 UNL     1     -10.272  14.071  -4.762  1.00  0.00     0.173 C
HETATM   20  O5  UNL     1      -9.871  12.877  -5.358  1.00  0.00    -0.375 OA
BRANCH  18  21
HETATM   21  C14 UNL     1     -10.111  16.290  -5.921  1.00  0.00     0.085 C
BRANCH  21  22
HETATM   22  C15 UNL     1     -10.407  17.016  -7.173  1.00  0.00     0.127 C
HETATM   23  O4  UNL     1     -11.548  17.271  -7.465  1.00  0.00    -0.298 OA
BRANCH  22  24
HETATM   24  C16 UNL     1      -9.310  17.434  -8.075  1.00  0.00     0.074 C
HETATM   25  C17 UNL     1      -9.811  17.827  -9.445  1.00  0.00     0.013 C
ENDBRANCH  22  24
ENDBRANCH  21  22
ENDBRANCH  18  21
ENDBRANCH  14  16
ENDBRANCH  13  14
ENDBRANCH   6  13
BRANCH   7  26
HETATM   26  C20 UNL     1     -12.520  10.861  -8.342  1.00  0.00     0.072 C
BRANCH  26  27
HETATM   27  C21 UNL     1     -12.742  12.271  -8.703  1.00  0.00    -0.020 C
HETATM   28  C22 UNL     1     -13.937  12.708  -9.024  1.00  0.00    -0.091 C
HETATM   29  C23 UNL     1     -14.165  14.158  -9.393  1.00  0.00     0.042 C
HETATM   30  C24 UNL     1     -15.115  11.810  -9.075  1.00  0.00     0.042 C
ENDBRANCH  26  27
ENDBRANCH   7  26
BRANCH   8  31
HETATM   31  O6  UNL     1     -13.028   9.549 -10.686  1.00  0.00    -0.359 OA
ATOM     32  H6  UNL     1     -13.724   9.538 -10.040  1.00  0.00     0.217 HD
ENDBRANCH   8  31
BRANCH   1  33
HETATM   33  O1  UNL     1     -10.311   6.424 -13.507  1.00  0.00    -0.379 OA
BRANCH  33  34
HETATM   34  C3  UNL     1     -10.617   5.164 -13.399  1.00  0.00     0.195 C
BRANCH  34  35
HETATM   35  C2  UNL     1      -9.871   4.287 -12.501  1.00  0.00    -0.011 C
HETATM   36  C1  UNL     1      -9.692   3.005 -12.512  1.00  0.00     0.009 C
ENDBRANCH  34  35
ENDBRANCH  33  34
ENDBRANCH   1  33
TORSDOF 12
ENDMDL