MODEL 2
REMARK VINA RESULT: -7.719027257      2.087      2.786
REMARK  10 active torsions:
REMARK  status: ('A' for Active; 'I' for Inactive)
REMARK    1  A    between atoms: O1_2  and  C2_3
REMARK    2  A    between atoms: C4_5  and  N1_6
REMARK       I    between atoms: N1_6  and  C5_7
REMARK    3  A    between atoms: N1_6  and  C10_16
REMARK    4  A    between atoms: C5_7  and  C6_9
REMARK    5  A    between atoms: C10_16  and  C11_17
REMARK    6  A    between atoms: C10_16  and  C15_21
REMARK    7  A    between atoms: C11_17  and  C12_18
REMARK       I    between atoms: C15_21  and  N3_23
REMARK    8  A    between atoms: N3_23  and  C16_25
REMARK    9  A    between atoms: C23_32  and  O5_33
REMARK   10  A    between atoms: C25_35  and  O6_36
ROOT
HETATM    1  N1  UNL     1     -11.683  12.675 -10.163  1.00  0.00    -0.299 N
HETATM    2  C5  UNL     1     -13.078  12.680 -10.185  1.00  0.00     0.277 C
HETATM    3  O2  UNL     1     -13.605  11.797 -10.977  1.00  0.00    -0.265 OA
ENDROOT
BRANCH   1   4
HETATM    4  C4  UNL     1     -11.051  11.654 -11.012  1.00  0.00     0.044 A
HETATM    5  C3  UNL     1     -10.922  10.357 -10.543  1.00  0.00     0.069 A
HETATM    6  C2  UNL     1     -10.344   9.367 -11.300  1.00  0.00     0.106 A
HETATM    7  C25 UNL     1      -9.888   9.688 -12.553  1.00  0.00     0.135 A
HETATM    8  C23 UNL     1     -10.009  10.983 -13.040  1.00  0.00     0.106 A
HETATM    9  C22 UNL     1     -10.595  11.975 -12.266  1.00  0.00     0.069 A
BRANCH   6  10
HETATM   10  O1  UNL     1     -10.241   8.094 -10.783  1.00  0.00    -0.353 OA
HETATM   11  C1  UNL     1     -10.324   7.769  -9.432  1.00  0.00     0.210 C
ENDBRANCH   6  10
BRANCH   7  12
HETATM   12  O6  UNL     1      -9.288   8.709 -13.365  1.00  0.00    -0.351 OA
HETATM   13  C26 UNL     1      -7.927   8.406 -13.202  1.00  0.00     0.210 C
ENDBRANCH   7  12
BRANCH   8  14
HETATM   14  O5  UNL     1      -9.539  11.254 -14.294  1.00  0.00    -0.353 OA
HETATM   15  C24 UNL     1      -8.395  12.000 -14.579  1.00  0.00     0.210 C
ENDBRANCH   8  14
ENDBRANCH   1   4
BRANCH   1  16
HETATM   16  C10 UNL     1     -10.765  13.513  -9.456  1.00  0.00     0.185 C
BRANCH  16  17
HETATM   17  C11 UNL     1     -10.805  14.969  -9.732  1.00  0.00     0.039 C
BRANCH  17  18
HETATM   18  C12 UNL     1      -9.432  15.557 -10.003  1.00  0.00    -0.020 C
HETATM   19  C13 UNL     1      -9.493  16.054 -11.456  1.00  0.00     0.009 C
HETATM   20  C14 UNL     1      -9.121  16.746  -9.144  1.00  0.00     0.009 C
ENDBRANCH  17  18
ENDBRANCH  16  17
BRANCH  16  21
HETATM   21  C15 UNL     1     -10.727  13.144  -8.036  1.00  0.00     0.241 C
HETATM   22  O4  UNL     1     -11.463  12.216  -7.554  1.00  0.00    -0.271 OA
HETATM   23  N3  UNL     1      -9.869  13.785  -7.078  1.00  0.00    -0.355 N
ATOM     24  H3  UNL     1      -9.253  14.534  -7.393  1.00  0.00     0.162 HD
BRANCH  23  25
HETATM   25  C16 UNL     1      -9.849  13.401  -5.677  1.00  0.00     0.084 C
HETATM   26  C17 UNL     1      -9.839  14.683  -4.869  1.00  0.00     0.025 C
HETATM   27  C18 UNL     1      -9.639  14.409  -3.404  1.00  0.00     0.002 C
HETATM   28  C19 UNL     1      -8.416  13.597  -3.102  1.00  0.00     0.000 C
HETATM   29  C20 UNL     1      -8.444  12.329  -3.916  1.00  0.00     0.002 C
HETATM   30  C21 UNL     1      -8.624  12.598  -5.399  1.00  0.00     0.025 C
ENDBRANCH  23  25
ENDBRANCH  16  21
ENDBRANCH   1  16
BRANCH   2  31
HETATM   31  C6  UNL     1     -14.040  13.501  -9.476  1.00  0.00     0.125 A
HETATM   32  C7  UNL     1     -15.084  14.228 -10.062  1.00  0.00     0.071 A
HETATM   33  C8  UNL     1     -15.756  14.863  -9.073  1.00  0.00     0.075 A
HETATM   34  C9  UNL     1     -16.954  15.755  -9.269  1.00  0.00     0.079 C
HETATM   35  O3  UNL     1     -15.193  14.568  -7.943  1.00  0.00    -0.242 OA
HETATM   36  N2  UNL     1     -14.200  13.781  -8.170  1.00  0.00    -0.256 N
ATOM     37  H2  UNL     1     -13.597  13.408  -7.437  1.00  0.00     0.195 HD
ENDBRANCH   2  31
TORSDOF 10
ENDMDL