MODEL 2
REMARK VINA RESULT: -8.364411075      2.754      6.234
REMARK  12 active torsions:
REMARK  status: ('A' for Active; 'I' for Inactive)
REMARK    1  A    between atoms: C2_2  and  O1_3
REMARK    2  A    between atoms: O1_3  and  C3_4
REMARK    3  A    between atoms: C3_4  and  C4_5
REMARK    4  A    between atoms: C4_5  and  O2_6
REMARK    5  A    between atoms: O2_6  and  C5_7
REMARK    6  A    between atoms: C5_7  and  C6_9
REMARK    7  A    between atoms: C7_11  and  C8_12
REMARK    8  A    between atoms: C8_12  and  C10_14
REMARK    9  A    between atoms: C10_14  and  C11_15
REMARK   10  A    between atoms: C11_15  and  C12_16
REMARK   11  A    between atoms: C12_16  and  C13_17
REMARK   12  A    between atoms: C24_30  and  O7_31
ROOT
HETATM    1  C6  UNL     1     -10.703  14.719  -8.901  1.00  0.00     0.185 C
HETATM    2  O4  UNL     1     -10.884  15.081  -7.624  1.00  0.00    -0.327 OA
HETATM    3  C7  UNL     1     -10.631  16.227  -7.053  1.00  0.00     0.198 A
HETATM    4  O5  UNL     1     -11.496  17.319  -7.578  1.00  0.00    -0.339 OA
HETATM    5  C16 UNL     1     -10.049  17.339  -7.554  1.00  0.00     0.211 A
HETATM    6  C17 UNL     1      -9.402  17.477  -8.903  1.00  0.00     0.205 C
HETATM    7  O6  UNL     1      -9.249  16.348  -9.642  1.00  0.00    -0.380 OA
HETATM    8  C18 UNL     1     -10.511  15.824  -9.904  1.00  0.00     0.167 C
HETATM    9  C19 UNL     1     -10.696  15.438 -11.327  1.00  0.00     0.036 C
HETATM   10  C20 UNL     1     -12.159  15.055 -11.508  1.00  0.00     0.009 C
HETATM   11  C21 UNL     1     -12.844  14.832 -10.198  1.00  0.00     0.003 C
HETATM   12  C22 UNL     1     -14.142  14.084 -10.376  1.00  0.00     0.015 C
HETATM   13  C23 UNL     1     -15.099  14.923 -11.204  1.00  0.00     0.013 C
HETATM   14  C24 UNL     1     -14.015  12.712 -10.930  1.00  0.00     0.122 C
HETATM   15  C25 UNL     1     -12.913  11.913 -10.357  1.00  0.00     0.033 C
HETATM   16  C26 UNL     1     -11.669  12.684 -10.022  1.00  0.00     0.016 C
HETATM   17  C27 UNL     1     -11.946  13.969  -9.324  1.00  0.00     0.004 C
HETATM   18  C28 UNL     1     -12.804  13.629  -8.096  1.00  0.00     0.019 C
ENDROOT
BRANCH   1  19
HETATM   19  C5  UNL     1      -9.460  13.851  -8.968  1.00  0.00     0.297 C
HETATM   20  O3  UNL     1      -8.964  13.350  -7.931  1.00  0.00    -0.262 OA
BRANCH  19  21
HETATM   21  O2  UNL     1      -8.811  13.558 -10.099  1.00  0.00    -0.317 OA
BRANCH  21  22
HETATM   22  C4  UNL     1      -7.572  13.360 -10.572  1.00  0.00     0.205 C
BRANCH  22  23
HETATM   23  C3  UNL     1      -6.946  12.029 -10.665  1.00  0.00     0.194 C
BRANCH  23  24
HETATM   24  O1  UNL     1      -7.159  11.083  -9.732  1.00  0.00    -0.389 OA
BRANCH  24  25
HETATM   25  C2  UNL     1      -7.940   9.999 -10.130  1.00  0.00     0.163 C
HETATM   26  C1  UNL     1      -9.267   9.941  -9.425  1.00  0.00     0.033 C
ENDBRANCH  24  25
ENDBRANCH  23  24
ENDBRANCH  22  23
ENDBRANCH  21  22
ENDBRANCH  19  21
ENDBRANCH   1  19
BRANCH   3  27
HETATM   27  C8  UNL     1     -10.857  16.166  -5.505  1.00  0.00     0.047 C
HETATM   28  C9  UNL     1      -9.829  17.005  -4.817  1.00  0.00     0.015 C
BRANCH  27  29
HETATM   29  C10 UNL     1     -10.776  14.742  -5.126  1.00  0.00     0.010 C
BRANCH  29  30
HETATM   30  C11 UNL     1     -10.370  14.329  -3.782  1.00  0.00     0.001 C
BRANCH  30  31
HETATM   31  C12 UNL     1      -8.971  14.002  -3.461  1.00  0.00     0.004 C
BRANCH  31  32
HETATM   32  C13 UNL     1      -8.695  12.526  -3.234  1.00  0.00    -0.023 C
HETATM   33  C14 UNL     1      -8.566  11.824  -4.584  1.00  0.00     0.009 C
HETATM   34  C15 UNL     1      -9.858  11.978  -2.433  1.00  0.00     0.009 C
ENDBRANCH  31  32
ENDBRANCH  30  31
ENDBRANCH  29  30
ENDBRANCH  27  29
ENDBRANCH   3  27
BRANCH  14  35
HETATM   35  O7  UNL     1     -15.221  12.038 -10.602  1.00  0.00    -0.395 OA
ATOM     36  H7  UNL     1     -15.409  11.459 -11.332  1.00  0.00     0.210 HD
ENDBRANCH  14  35
TORSDOF 12
ENDMDL