MODEL 4
REMARK VINA RESULT: -8.468991272      2.359      3.535
REMARK  13 active torsions:
REMARK  status: ('A' for Active; 'I' for Inactive)
REMARK    1  A    between atoms: C2_2  and  O2_4
REMARK    2  A    between atoms: O2_4  and  C3_5
REMARK    3  A    between atoms: C5_8  and  C6_9
REMARK    4  A    between atoms: C7_10  and  C8_11
REMARK    5  A    between atoms: C8_11  and  C9_12
REMARK    6  A    between atoms: C9_12  and  O5_14
REMARK    7  A    between atoms: O5_14  and  C10_15
REMARK    8  A    between atoms: C10_15  and  C12_17
REMARK    9  A    between atoms: C12_17  and  O6_19
REMARK   10  A    between atoms: C19_26  and  C21_28
REMARK   11  A    between atoms: C21_28  and  C22_29
REMARK   12  A    between atoms: C22_29  and  C23_31
REMARK   13  A    between atoms: C23_31  and  C25_33
ROOT
HETATM    1  C3  UNL     1     -11.762  15.968  -9.020  1.00  0.00     0.207 C
HETATM    2  C4  UNL     1     -10.937  16.415 -10.224  1.00  0.00     0.164 C
HETATM    3  O3  UNL     1     -11.092  17.365 -10.940  1.00  0.00    -0.294 OA
HETATM    4  C5  UNL     1      -9.853  15.364 -10.317  1.00  0.00     0.085 C
HETATM    5  C14 UNL     1      -9.463  15.348  -8.823  1.00  0.00     0.008 C
HETATM    6  C15 UNL     1      -8.939  16.701  -8.481  1.00  0.00     0.006 C
HETATM    7  C16 UNL     1      -9.306  17.153  -7.104  1.00  0.00     0.005 C
HETATM    8  C17 UNL     1      -9.760  16.040  -6.201  1.00  0.00    -0.010 C
HETATM    9  C18 UNL     1     -10.124  16.709  -4.895  1.00  0.00     0.011 C
HETATM   10  C19 UNL     1     -10.855  15.169  -6.743  1.00  0.00    -0.027 C
HETATM   11  C20 UNL     1     -12.175  15.613  -6.156  1.00  0.00     0.016 C
HETATM   12  C28 UNL     1     -10.875  15.127  -8.248  1.00  0.00     0.036 C
ENDROOT
BRANCH   4  13
HETATM   13  C6  UNL     1      -8.748  15.784 -11.156  1.00  0.00    -0.018 C
HETATM   14  C7  UNL     1      -8.168  14.995 -12.023  1.00  0.00    -0.020 C
BRANCH  14  15
HETATM   15  C8  UNL     1      -8.532  13.591 -12.278  1.00  0.00     0.138 C
BRANCH  15  16
HETATM   16  C9  UNL     1      -7.780  12.678 -11.347  1.00  0.00     0.262 C
HETATM   17  O4  UNL     1      -6.551  12.580 -11.498  1.00  0.00    -0.265 OA
BRANCH  16  18
HETATM   18  O5  UNL     1      -8.407  11.967 -10.355  1.00  0.00    -0.314 OA
BRANCH  18  19
HETATM   19  C10 UNL     1      -9.018  10.723 -10.533  1.00  0.00     0.156 C
HETATM   20  C11 UNL     1      -8.004   9.655 -10.185  1.00  0.00     0.042 C
BRANCH  19  21
HETATM   21  C12 UNL     1     -10.226  10.550  -9.649  1.00  0.00     0.143 C
HETATM   22  C13 UNL     1     -11.124  11.768  -9.644  1.00  0.00     0.042 C
BRANCH  21  23
HETATM   23  O6  UNL     1      -9.834  10.331  -8.332  1.00  0.00    -0.393 OA
ATOM     24  H6  UNL     1     -10.269   9.561  -7.982  1.00  0.00     0.210 HD
ENDBRANCH  21  23
ENDBRANCH  19  21
ENDBRANCH  18  19
ENDBRANCH  16  18
ENDBRANCH  15  16
ENDBRANCH  14  15
ENDBRANCH   4  13
BRANCH   1  25
HETATM   25  O2  UNL     1     -12.313  17.124  -8.519  1.00  0.00    -0.308 OA
BRANCH  25  26
HETATM   26  C2  UNL     1     -13.576  17.560  -8.941  1.00  0.00     0.255 C
HETATM   27  C1  UNL     1     -14.607  16.626  -9.456  1.00  0.00     0.126 C
HETATM   28  O1  UNL     1     -13.854  18.780  -8.887  1.00  0.00    -0.266 OA
ENDBRANCH  25  26
ENDBRANCH   1  25
BRANCH  10  29
HETATM   29  C21 UNL     1     -10.639  13.730  -6.326  1.00  0.00     0.088 C
BRANCH  29  30
HETATM   30  C22 UNL     1      -9.302  13.205  -6.223  1.00  0.00     0.131 C
HETATM   31  O7  UNL     1      -8.745  12.731  -7.199  1.00  0.00    -0.298 OA
BRANCH  30  32
HETATM   32  C23 UNL     1      -8.496  13.190  -4.971  1.00  0.00     0.054 C
HETATM   33  C24 UNL     1      -7.679  11.900  -4.866  1.00  0.00     0.018 C
BRANCH  32  34
HETATM   34  C25 UNL     1      -9.364  13.232  -3.728  1.00  0.00    -0.012 C
HETATM   35  C26 UNL     1      -8.770  14.206  -2.754  1.00  0.00     0.010 C
HETATM   36  C27 UNL     1      -9.509  11.858  -3.140  1.00  0.00     0.010 C
ENDBRANCH  32  34
ENDBRANCH  30  32
ENDBRANCH  29  30
ENDBRANCH  10  29
TORSDOF 13
ENDMDL