MODEL 4
REMARK VINA RESULT: -8.470411821      3.063      4.967
REMARK  14 active torsions:
REMARK  status: ('A' for Active; 'I' for Inactive)
REMARK    1  A    between atoms: C2_2  and  C3_3
REMARK    2  A    between atoms: C3_3  and  C4_4
REMARK    3  A    between atoms: C4_4  and  C5_5
REMARK    4  A    between atoms: C5_5  and  O2_7
REMARK    5  A    between atoms: O2_7  and  C6_8
REMARK    6  A    between atoms: C9_11  and  C10_12
REMARK    7  A    between atoms: C10_12  and  C11_13
REMARK    8  A    between atoms: C11_13  and  C12_14
REMARK    9  A    between atoms: C12_14  and  O3_15
REMARK   10  A    between atoms: O3_15  and  C13_16
REMARK   11  A    between atoms: C13_16  and  C14_18
REMARK   12  A    between atoms: C22_26  and  O5_27
REMARK   13  A    between atoms: C24_30  and  O6_31
REMARK   14  A    between atoms: O6_31  and  C25_32
ROOT
HETATM    1  C6  UNL     1     -10.252  13.836  -9.767  1.00  0.00     0.143 C
HETATM    2  C7  UNL     1     -10.338  14.105  -8.283  1.00  0.00     0.039 C
HETATM    3  C8  UNL     1      -9.550  15.317  -7.878  1.00  0.00    -0.003 C
HETATM    4  C9  UNL     1     -10.405  16.312  -7.142  1.00  0.00    -0.010 C
HETATM    5  C16 UNL     1     -10.639  17.453  -8.050  1.00  0.00     0.005 C
HETATM    6  C17 UNL     1      -9.798  17.201  -9.274  1.00  0.00     0.006 C
HETATM    7  C18 UNL     1      -8.895  16.059  -8.956  1.00  0.00    -0.001 C
HETATM    8  C19 UNL     1      -8.368  15.304 -10.122  1.00  0.00    -0.026 C
HETATM    9  C20 UNL     1      -8.804  16.065 -11.364  1.00  0.00     0.016 C
HETATM   10  C21 UNL     1      -6.850  15.349 -10.181  1.00  0.00     0.042 C
HETATM   11  C22 UNL     1      -6.318  14.653 -11.393  1.00  0.00     0.121 C
HETATM   12  C23 UNL     1      -6.995  13.395 -11.737  1.00  0.00     0.065 C
HETATM   13  C24 UNL     1      -8.525  13.401 -11.589  1.00  0.00     0.145 C
HETATM   14  C27 UNL     1      -8.818  13.851 -10.194  1.00  0.00     0.017 C
HETATM   15  C28 UNL     1      -8.002  12.955  -9.301  1.00  0.00     0.021 C
ENDROOT
BRANCH   4  16
HETATM   16  C10 UNL     1      -9.610  16.811  -5.935  1.00  0.00     0.007 C
BRANCH  16  17
HETATM   17  C11 UNL     1     -10.259  16.496  -4.625  1.00  0.00     0.027 C
BRANCH  17  18
HETATM   18  C12 UNL     1     -10.613  15.030  -4.613  1.00  0.00     0.178 C
BRANCH  18  19
HETATM   19  O3  UNL     1     -10.648  14.493  -3.352  1.00  0.00    -0.321 OA
BRANCH  19  20
HETATM   20  C13 UNL     1      -9.639  13.784  -2.765  1.00  0.00     0.258 C
HETATM   21  O4  UNL     1      -9.712  13.445  -1.564  1.00  0.00    -0.265 OA
BRANCH  20  22
HETATM   22  C14 UNL     1      -8.407  13.378  -3.522  1.00  0.00     0.106 C
HETATM   23  C15 UNL     1      -8.616  11.981  -4.039  1.00  0.00     0.015 C
ENDBRANCH  20  22
ENDBRANCH  19  20
ENDBRANCH  18  19
ENDBRANCH  17  18
ENDBRANCH  16  17
ENDBRANCH   4  16
BRANCH   1  24
HETATM   24  O2  UNL     1     -11.068  12.839 -10.211  1.00  0.00    -0.315 OA
BRANCH  24  25
HETATM   25  C5  UNL     1     -12.243  13.042 -10.862  1.00  0.00     0.259 C
HETATM   26  O1  UNL     1     -12.845  12.013 -11.194  1.00  0.00    -0.265 OA
BRANCH  25  27
HETATM   27  C4  UNL     1     -12.879  14.332 -11.219  1.00  0.00     0.111 C
BRANCH  27  28
HETATM   28  C3  UNL     1     -14.046  14.501 -10.254  1.00  0.00     0.009 C
BRANCH  28  29
HETATM   29  C2  UNL     1     -13.731  15.539  -9.200  1.00  0.00    -0.004 C
HETATM   30  C1  UNL     1     -13.785  14.956  -7.806  1.00  0.00     0.005 C
ENDBRANCH  28  29
ENDBRANCH  27  28
ENDBRANCH  25  27
ENDBRANCH  24  25
ENDBRANCH   1  24
BRANCH  13  31
HETATM   31  O6  UNL     1      -8.850  12.018 -11.830  1.00  0.00    -0.315 OA
BRANCH  31  32
HETATM   32  C25 UNL     1      -9.430  11.593 -13.009  1.00  0.00     0.255 C
HETATM   33  C26 UNL     1      -9.162  10.254 -13.597  1.00  0.00     0.126 C
HETATM   34  O7  UNL     1     -10.211  12.363 -13.608  1.00  0.00    -0.266 OA
ENDBRANCH  31  32
ENDBRANCH  13  31
BRANCH  11  35
HETATM   35  O5  UNL     1      -4.968  14.325 -11.098  1.00  0.00    -0.395 OA
ATOM     36  H5  UNL     1      -4.502  14.357 -11.925  1.00  0.00     0.210 HD
ENDBRANCH  11  35
TORSDOF 14
ENDMDL