MODEL 2
REMARK VINA RESULT: -9.396107891      3.727      7.663
REMARK  9 active torsions:
REMARK  status: ('A' for Active; 'I' for Inactive)
REMARK    1  A    between atoms: C4_4  and  C5_5
REMARK    2  A    between atoms: C5_5  and  C6_6
REMARK    3  A    between atoms: C5_5  and  N1_14
REMARK    4  A    between atoms: C6_6  and  C7_7
REMARK    5  A    between atoms: C7_7  and  C8_8
REMARK    6  A    between atoms: N1_14  and  C13_16
REMARK    7  A    between atoms: C13_16  and  C14_17
REMARK    8  A    between atoms: C13_16  and  C23_33
REMARK    9  A    between atoms: C16_19  and  C17_20
REMARK       I    between atoms: C17_20  and  N2_22
ROOT
HETATM    1  C17 UNL     1     -17.602  14.310  -7.638  1.00  0.00     0.281 C
HETATM    2  O2  UNL     1     -17.633  13.470  -6.661  1.00  0.00    -0.265 OA
HETATM    3  N2  UNL     1     -18.803  15.000  -7.888  1.00  0.00    -0.325 N
HETATM    4  C18 UNL     1     -19.021  15.966  -8.940  1.00  0.00     0.153 C
HETATM    5  C19 UNL     1     -20.525  16.280  -8.971  1.00  0.00     0.187 C
HETATM    6  O3  UNL     1     -21.236  15.101  -8.944  1.00  0.00    -0.387 OA
HETATM    7  C20 UNL     1     -21.251  14.634  -7.644  1.00  0.00     0.208 C
HETATM    8  C21 UNL     1     -19.921  14.741  -7.003  1.00  0.00     0.218 C
HETATM    9  C22 UNL     1     -19.935  15.776  -5.948  1.00  0.00     0.087 C
HETATM   10  N3  UNL     1     -19.957  16.605  -5.128  1.00  0.00    -0.195 NA
ENDROOT
BRANCH   1  11
HETATM   11  C16 UNL     1     -16.343  14.439  -8.351  1.00  0.00     0.168 A
HETATM   12  C15 UNL     1     -15.052  14.562  -7.908  1.00  0.00     0.074 A
HETATM   13  C14 UNL     1     -14.237  14.653  -9.026  1.00  0.00     0.058 A
HETATM   14  N4  UNL     1     -15.031  14.582 -10.069  1.00  0.00    -0.263 N
HETATM   15  O4  UNL     1     -16.248  14.458  -9.667  1.00  0.00    -0.232 OA
ATOM     16  H4  UNL     1     -14.732  14.618 -11.043  1.00  0.00     0.194 HD
BRANCH  13  17
HETATM   17  C13 UNL     1     -12.706  14.796  -8.976  1.00  0.00     0.133 C
BRANCH  17  18
HETATM   18  N1  UNL     1     -12.396  15.085  -7.674  1.00  0.00    -0.404 N
ATOM     19  H1  UNL     1     -13.149  14.934  -7.003  1.00  0.00     0.154 HD
BRANCH  18  20
HETATM   20  C5  UNL     1     -11.205  15.553  -7.135  1.00  0.00     0.100 C
BRANCH  20  21
HETATM   21  C4  UNL     1     -10.666  16.908  -7.200  1.00  0.00    -0.000 C
HETATM   22  C2  UNL     1      -9.934  17.471  -8.313  1.00  0.00    -0.089 C
HETATM   23  C1  UNL     1      -8.658  16.692  -8.674  1.00  0.00     0.042 C
HETATM   24  C3  UNL     1     -10.573  17.901  -9.541  1.00  0.00     0.042 C
ENDBRANCH  20  21
BRANCH  20  25
HETATM   25  C6  UNL     1     -11.414  15.277  -5.561  1.00  0.00     0.029 C
BRANCH  25  26
HETATM   26  C7  UNL     1     -10.214  15.590  -4.787  1.00  0.00     0.007 C
BRANCH  26  27
HETATM   27  C8  UNL     1      -9.543  14.370  -4.174  1.00  0.00    -0.010 C
HETATM   28  C9  UNL     1      -9.312  13.356  -5.294  1.00  0.00     0.031 C
HETATM   29  C10 UNL     1      -9.006  12.005  -4.674  1.00  0.00     0.168 C
HETATM   30  O1  UNL     1      -8.643  12.148  -3.334  1.00  0.00    -0.391 OA
HETATM   31  C11 UNL     1      -9.667  12.570  -2.525  1.00  0.00     0.168 C
HETATM   32  C12 UNL     1     -10.455  13.664  -3.181  1.00  0.00     0.031 C
ENDBRANCH  26  27
ENDBRANCH  25  26
ENDBRANCH  20  25
ENDBRANCH  18  20
ENDBRANCH  17  18
BRANCH  17  33
HETATM   33  C23 UNL     1     -12.117  13.590  -9.612  1.00  0.00     0.014 C
HETATM   34  C24 UNL     1     -10.718  13.790 -10.101  1.00  0.00     0.007 C
HETATM   35  C25 UNL     1      -9.799  12.941  -9.239  1.00  0.00     0.000 C
HETATM   36  C26 UNL     1     -10.655  12.071  -8.384  1.00  0.00     0.000 C
HETATM   37  C27 UNL     1     -12.094  12.379  -8.711  1.00  0.00     0.007 C
ENDBRANCH  17  33
ENDBRANCH  13  17
ENDBRANCH   1  11
TORSDOF 9
ENDMDL