MODEL 4
REMARK VINA RESULT: -8.189604426      1.222      1.888
REMARK  14 active torsions:
REMARK  status: ('A' for Active; 'I' for Inactive)
REMARK    1  A    between atoms: C2_2  and  C3_3
REMARK    2  A    between atoms: C3_3  and  C4_4
REMARK    3  A    between atoms: C4_4  and  C5_5
REMARK    4  A    between atoms: C5_5  and  N1_6
REMARK    5  A    between atoms: C5_5  and  C6_10
REMARK    6  A    between atoms: C6_10  and  O2_12
REMARK    7  A    between atoms: O2_12  and  C7_13
REMARK    8  A    between atoms: C8_14  and  O3_15
REMARK    9  A    between atoms: O3_15  and  C9_16
REMARK   10  A    between atoms: C9_16  and  C10_18
REMARK   11  A    between atoms: C10_18  and  C11_19
REMARK   12  A    between atoms: C25_33  and  C26_34
REMARK   13  A    between atoms: C26_34  and  O5_35
REMARK   14  A    between atoms: O5_35  and  C27_36
ROOT
HETATM    1  C7  UNL     1     -11.216  12.994  -7.692  1.00  0.00     0.175 C
HETATM    2  C8  UNL     1      -9.957  13.353  -6.891  1.00  0.00     0.185 C
HETATM    3  C14 UNL     1     -10.122  14.477  -5.971  1.00  0.00     0.010 C
HETATM    4  C15 UNL     1     -10.874  15.525  -5.834  1.00  0.00    -0.084 C
HETATM    5  C16 UNL     1     -10.535  16.320  -4.638  1.00  0.00     0.043 C
HETATM    6  C17 UNL     1     -11.987  16.126  -6.598  1.00  0.00     0.042 C
HETATM    7  C18 UNL     1     -11.456  16.405  -7.966  1.00  0.00     0.019 C
HETATM    8  C19 UNL     1     -12.239  17.469  -8.660  1.00  0.00     0.010 C
HETATM    9  C20 UNL     1     -11.525  17.969  -9.905  1.00  0.00     0.009 C
HETATM   10  C21 UNL     1     -10.572  16.974 -10.480  1.00  0.00     0.004 C
HETATM   11  C22 UNL     1      -9.135  17.407 -10.236  1.00  0.00     0.014 C
HETATM   12  C23 UNL     1     -10.823  15.566 -10.061  1.00  0.00    -0.019 C
HETATM   13  C24 UNL     1     -11.261  15.240  -8.821  1.00  0.00    -0.070 C
HETATM   14  C25 UNL     1     -11.349  13.759  -8.936  1.00  0.00     0.071 C
ENDROOT
BRANCH   1  15
HETATM   15  O2  UNL     1     -10.987  11.608  -8.012  1.00  0.00    -0.311 OA
BRANCH  15  16
HETATM   16  C6  UNL     1     -11.881  10.683  -8.392  1.00  0.00     0.290 C
HETATM   17  O1  UNL     1     -12.989  10.618  -7.805  1.00  0.00    -0.263 OA
BRANCH  16  18
HETATM   18  C5  UNL     1     -11.614   9.697  -9.518  1.00  0.00     0.282 C
BRANCH  18  19
HETATM   19  C4  UNL     1     -10.307  10.040 -10.108  1.00  0.00     0.043 C
BRANCH  19  20
HETATM   20  C3  UNL     1      -9.274   9.003 -10.266  1.00  0.00     0.002 C
BRANCH  20  21
HETATM   21  C2  UNL     1      -9.243   8.350 -11.609  1.00  0.00    -0.004 C
HETATM   22  C1  UNL     1     -10.096   7.070 -11.601  1.00  0.00     0.005 C
ENDBRANCH  20  21
ENDBRANCH  19  20
ENDBRANCH  18  19
BRANCH  18  23
HETATM   23  N1  UNL     1     -12.730   9.580 -10.376  1.00  0.00    -0.066 N
ATOM     24  H13 UNL     1     -13.335   8.834 -10.031  1.00  0.00     0.275 HD
ATOM     25  H12 UNL     1     -13.331  10.395 -10.250  1.00  0.00     0.275 HD
ATOM     26  H11 UNL     1     -12.566   9.439 -11.372  1.00  0.00     0.275 HD
ENDBRANCH  18  23
ENDBRANCH  16  18
ENDBRANCH  15  16
ENDBRANCH   1  15
BRANCH   2  27
HETATM   27  O3  UNL     1      -9.758  12.205  -6.035  1.00  0.00    -0.309 OA
BRANCH  27  28
HETATM   28  C9  UNL     1      -8.598  11.916  -5.387  1.00  0.00     0.259 C
HETATM   29  O4  UNL     1      -7.510  12.018  -5.996  1.00  0.00    -0.265 OA
BRANCH  28  30
HETATM   30  C10 UNL     1      -8.677  11.481  -3.953  1.00  0.00     0.115 C
BRANCH  30  31
HETATM   31  C11 UNL     1      -9.395  12.624  -3.229  1.00  0.00    -0.013 C
HETATM   32  C12 UNL     1      -8.411  13.719  -2.942  1.00  0.00     0.010 C
HETATM   33  C13 UNL     1     -10.087  12.094  -1.990  1.00  0.00     0.010 C
ENDBRANCH  30  31
ENDBRANCH  28  30
ENDBRANCH  27  28
ENDBRANCH   2  27
BRANCH  14  34
HETATM   34  C26 UNL     1     -12.644  13.467  -9.653  1.00  0.00     0.190 C
BRANCH  34  35
HETATM   35  O5  UNL     1     -12.721  12.863 -10.813  1.00  0.00    -0.321 OA
BRANCH  35  36
HETATM   36  C27 UNL     1     -12.418  12.522 -12.015  1.00  0.00     0.254 C
HETATM   37  C28 UNL     1     -11.183  13.001 -12.726  1.00  0.00     0.126 C
HETATM   38  O6  UNL     1     -13.189  11.745 -12.646  1.00  0.00    -0.266 OA
ENDBRANCH  35  36
ENDBRANCH  34  35
ENDBRANCH  14  34
TORSDOF 14
ENDMDL