MODEL 1
REMARK VINA RESULT: -8.605995170      0.000      0.000
REMARK  11 active torsions:
REMARK  status: ('A' for Active; 'I' for Inactive)
REMARK    1  A    between atoms: O1_2  and  C2_3
REMARK    2  A    between atoms: C2_3  and  O2_4
REMARK    3  A    between atoms: C2_3  and  C4_6
REMARK    4  A    between atoms: C4_6  and  C5_7
REMARK    5  A    between atoms: C5_7  and  C6_8
REMARK    6  A    between atoms: C6_8  and  O4_10
REMARK    7  A    between atoms: O4_10  and  C7_11
REMARK    8  A    between atoms: C7_11  and  C8_12
REMARK    9  A    between atoms: C11_15  and  N1_16
REMARK   10  A    between atoms: C13_18  and  C14_19
REMARK   11  A    between atoms: C15_20  and  C16_21
ROOT
HETATM    1  C8  UNL     1     -12.972  10.792 -11.093  1.00  0.00     0.026 C
HETATM    2  C9  UNL     1     -11.773  11.706 -10.794  1.00  0.00     0.022 C
HETATM    3  C10 UNL     1     -11.129  11.465  -9.501  1.00  0.00     0.006 C
HETATM    4  C11 UNL     1     -10.734  12.512  -8.814  1.00  0.00     0.030 C
HETATM    5  C18 UNL     1     -10.973  13.846  -9.393  1.00  0.00     0.059 C
HETATM    6  C19 UNL     1     -12.477  13.882  -9.702  1.00  0.00     0.012 C
HETATM    7  C20 UNL     1     -12.773  12.821 -10.665  1.00  0.00     0.002 C
HETATM    8  C21 UNL     1     -13.822  11.808 -10.367  1.00  0.00    -0.037 C
HETATM    9  C22 UNL     1     -14.022  11.374  -8.951  1.00  0.00     0.015 C
HETATM   10  C23 UNL     1     -15.127  12.181 -11.029  1.00  0.00     0.015 C
ENDROOT
BRANCH   1  11
HETATM   11  C7  UNL     1     -13.227  10.783 -12.556  1.00  0.00     0.184 C
BRANCH  11  12
HETATM   12  O4  UNL     1     -12.074  10.585 -13.343  1.00  0.00    -0.321 OA
BRANCH  12  13
HETATM   13  C6  UNL     1     -11.841   9.312 -13.826  1.00  0.00     0.259 C
HETATM   14  O3  UNL     1     -12.045   9.096 -15.090  1.00  0.00    -0.265 OA
BRANCH  13  15
HETATM   15  C5  UNL     1     -11.378   8.142 -13.086  1.00  0.00     0.125 C
BRANCH  15  16
HETATM   16  C4  UNL     1     -10.028   8.229 -12.432  1.00  0.00     0.018 C
HETATM   17  C24 UNL     1     -10.203   8.298 -10.943  1.00  0.00     0.015 C
HETATM   18  C25 UNL     1      -8.925   8.548 -10.205  1.00  0.00     0.001 C
HETATM   19  C26 UNL     1      -8.010   9.552 -10.798  1.00  0.00     0.000 C
HETATM   20  C27 UNL     1      -8.673  10.300 -11.909  1.00  0.00     0.001 C
HETATM   21  C28 UNL     1      -9.297   9.419 -12.945  1.00  0.00     0.015 C
BRANCH  16  22
HETATM   22  C2  UNL     1      -9.325   6.917 -12.815  1.00  0.00     0.267 C
BRANCH  22  23
HETATM   23  O1  UNL     1     -10.148   6.035 -13.480  1.00  0.00    -0.365 OA
HETATM   24  C1  UNL     1     -10.366   4.838 -12.825  1.00  0.00     0.204 C
ENDBRANCH  22  23
BRANCH  22  25
HETATM   25  O2  UNL     1      -8.251   7.179 -13.667  1.00  0.00    -0.365 OA
HETATM   26  C3  UNL     1      -7.225   6.263 -13.542  1.00  0.00     0.204 C
ENDBRANCH  22  25
ENDBRANCH  16  22
ENDBRANCH  15  16
ENDBRANCH  13  15
ENDBRANCH  12  13
ENDBRANCH  11  12
ENDBRANCH   1  11
BRANCH   4  27
HETATM   27  N1  UNL     1     -10.094  12.422  -7.542  1.00  0.00    -0.272 N
HETATM   28  C12 UNL     1      -9.801  13.391  -6.688  1.00  0.00     0.129 A
HETATM   29  C13 UNL     1      -9.155  12.882  -5.529  1.00  0.00    -0.002 A
HETATM   30  C17 UNL     1      -9.097  11.554  -5.769  1.00  0.00     0.120 A
HETATM   31  N2  UNL     1      -9.674  11.301  -6.998  1.00  0.00    -0.305 N
ATOM     32  H2  UNL     1      -9.761  10.378  -7.423  1.00  0.00     0.186 HD
BRANCH  29  33
HETATM   33  C14 UNL     1      -8.737  13.690  -4.446  1.00  0.00     0.021 C
HETATM   34  C15 UNL     1      -8.911  13.679  -3.187  1.00  0.00     0.085 C
BRANCH  34  35
HETATM   35  C16 UNL     1      -9.582  12.896  -2.203  1.00  0.00     0.198 C
HETATM   36  O5  UNL     1     -10.014  13.543  -1.155  1.00  0.00    -0.645 OA
HETATM   37  O6  UNL     1      -9.807  11.559  -2.262  1.00  0.00    -0.645 OA
ENDBRANCH  34  35
ENDBRANCH  29  33
ENDBRANCH   4  27
TORSDOF 11
ENDMDL