MODEL 4
REMARK VINA RESULT: -7.719208537      2.668      5.565
REMARK  11 active torsions:
REMARK  status: ('A' for Active; 'I' for Inactive)
REMARK    1  A    between atoms: C2_2  and  O1_3
REMARK    2  A    between atoms: O1_3  and  C3_4
REMARK    3  A    between atoms: C4_5  and  C5_6
REMARK    4  A    between atoms: C5_6  and  C6_7
REMARK    5  A    between atoms: C10_11  and  O2_13
REMARK    6  A    between atoms: C15_19  and  C16_20
REMARK    7  A    between atoms: C16_20  and  O4_21
REMARK    8  A    between atoms: O4_21  and  C17_22
REMARK    9  A    between atoms: C21_28  and  C22_29
REMARK   10  A    between atoms: C21_28  and  C28_35
REMARK   11  A    between atoms: C23_30  and  C24_31
ROOT
HETATM    1  C3  UNL     1     -11.150  11.041 -10.100  1.00  0.00     0.161 C
HETATM    2  C4  UNL     1     -12.195  11.169 -11.208  1.00  0.00     0.055 C
HETATM    3  C10 UNL     1     -13.552  11.332 -10.702  1.00  0.00     0.065 C
HETATM    4  C11 UNL     1     -14.723  10.721 -11.347  1.00  0.00     0.046 C
HETATM    5  C12 UNL     1     -13.812  12.878 -10.725  1.00  0.00     0.083 C
HETATM    6  C13 UNL     1     -13.165  13.393  -9.502  1.00  0.00     0.026 A
HETATM    7  C14 UNL     1     -11.936  13.160  -8.982  1.00  0.00     0.086 A
HETATM    8  O3  UNL     1     -11.632  13.760  -7.864  1.00  0.00    -0.315 OA
HETATM    9  C15 UNL     1     -12.439  14.567  -7.223  1.00  0.00     0.081 A
HETATM   10  C19 UNL     1     -13.676  14.830  -7.704  1.00  0.00     0.090 A
HETATM   11  C20 UNL     1     -14.089  14.245  -8.877  1.00  0.00     0.183 A
HETATM   12  O6  UNL     1     -15.209  14.440  -9.378  1.00  0.00    -0.288 OA
HETATM   13  C21 UNL     1     -10.792  12.323  -9.434  1.00  0.00     0.114 C
ENDROOT
BRANCH  13  14
HETATM   14  C22 UNL     1      -9.933  13.207 -10.241  1.00  0.00     0.000 C
HETATM   15  C23 UNL     1      -9.775  14.637 -10.140  1.00  0.00    -0.002 C
BRANCH  15  16
HETATM   16  C24 UNL     1      -9.336  15.355  -8.971  1.00  0.00     0.002 C
HETATM   17  C25 UNL     1      -9.745  16.581  -8.704  1.00  0.00    -0.088 C
HETATM   18  C26 UNL     1     -10.687  17.263  -9.622  1.00  0.00     0.043 C
HETATM   19  C27 UNL     1      -9.285  17.285  -7.484  1.00  0.00     0.043 C
ENDBRANCH  15  16
ENDBRANCH  13  14
BRANCH  13  20
HETATM   20  C28 UNL     1     -10.115  11.927  -8.136  1.00  0.00     0.144 C
HETATM   21  C29 UNL     1      -8.656  11.938  -7.952  1.00  0.00     0.092 C
HETATM   22  O7  UNL     1     -10.785  11.586  -7.205  1.00  0.00    -0.297 OA
ENDBRANCH  13  20
BRANCH   1  23
HETATM   23  O1  UNL     1     -11.407   9.992  -9.228  1.00  0.00    -0.356 OA
BRANCH  23  24
HETATM   24  C2  UNL     1     -11.154   8.658  -9.326  1.00  0.00     0.125 C
HETATM   25  C1  UNL     1      -9.994   8.038  -9.228  1.00  0.00     0.037 C
ENDBRANCH  23  24
ENDBRANCH   1  23
BRANCH   2  26
HETATM   26  C5  UNL     1     -11.876  10.209 -12.290  1.00  0.00     0.037 C
BRANCH  26  27
HETATM   27  C6  UNL     1     -10.478   9.971 -12.649  1.00  0.00    -0.024 C
HETATM   28  C7  UNL     1      -9.986   8.763 -12.895  1.00  0.00    -0.091 C
HETATM   29  C8  UNL     1     -10.870   7.584 -12.809  1.00  0.00     0.042 C
HETATM   30  C9  UNL     1      -8.561   8.611 -13.252  1.00  0.00     0.042 C
ENDBRANCH  26  27
ENDBRANCH   2  26
BRANCH   3  31
HETATM   31  O2  UNL     1     -13.637  11.008  -9.319  1.00  0.00    -0.389 OA
ATOM     32  H2  UNL     1     -14.490  10.653  -9.095  1.00  0.00     0.210 HD
ENDBRANCH   3  31
BRANCH   9  33
HETATM   33  C16 UNL     1     -11.957  15.181  -5.959  1.00  0.00     0.243 C
BRANCH  33  34
HETATM   34  O4  UNL     1     -11.620  14.200  -4.998  1.00  0.00    -0.315 OA
BRANCH  34  35
HETATM   35  C17 UNL     1     -10.438  14.263  -4.306  1.00  0.00     0.255 C
HETATM   36  C18 UNL     1      -9.214  13.508  -4.737  1.00  0.00     0.126 C
HETATM   37  O5  UNL     1     -10.408  14.996  -3.264  1.00  0.00    -0.266 OA
ENDBRANCH  34  35
ENDBRANCH  33  34
ENDBRANCH   9  33
TORSDOF 11
ENDMDL