MODEL 4
REMARK VINA RESULT: -7.142827909      1.357      2.051
REMARK  8 active torsions:
REMARK  status: ('A' for Active; 'I' for Inactive)
REMARK    1  A    between atoms: N1_2  and  C2_4
REMARK    2  A    between atoms: C4_6  and  S1_7
REMARK    3  A    between atoms: C8_14  and  S2_15
REMARK    4  A    between atoms: S2_15  and  C9_16
REMARK    5  A    between atoms: N2_18  and  C11_20
REMARK    6  A    between atoms: C11_20  and  C12_21
REMARK    7  A    between atoms: C11_20  and  C16_25
REMARK    8  A    between atoms: C12_21  and  C13_22
ROOT
HETATM    1  C9  UNL     1      -9.684   0.977 -15.461  1.00  0.00     0.120 A
HETATM    2  C10 UNL     1     -10.884   1.409 -16.159  1.00  0.00     0.143 A
HETATM    3  N2  UNL     1     -11.393   2.619 -15.813  1.00  0.00    -0.338 N
ATOM      4  H2  UNL     1     -10.943   3.247 -15.146  1.00  0.00     0.167 HD
HETATM    5  N3  UNL     1     -11.172   0.398 -16.966  1.00  0.00    -0.280 N
ATOM      6  H3  UNL     1     -11.967   0.384 -17.605  1.00  0.00     0.189 HD
HETATM    7  N4  UNL     1     -10.292  -0.605 -16.840  1.00  0.00    -0.259 N
HETATM    8  C17 UNL     1     -10.295  -1.893 -17.543  1.00  0.00     0.181 C
HETATM    9  C18 UNL     1      -9.379  -0.246 -15.916  1.00  0.00     0.282 A
HETATM   10  O3  UNL     1      -8.399  -1.037 -15.599  1.00  0.00    -0.265 OA
ENDROOT
BRANCH   1  11
HETATM   11  S2  UNL     1      -8.799   1.947 -14.238  1.00  0.00    -0.077 SA
BRANCH  11  12
HETATM   12  C8  UNL     1      -7.092   2.217 -14.697  1.00  0.00     0.054 A
HETATM   13  C2  UNL     1      -6.117   1.434 -14.136  1.00  0.00     0.048 A
HETATM   14  C3  UNL     1      -4.746   1.685 -14.363  1.00  0.00     0.054 A
HETATM   15  C4  UNL     1      -4.398   2.727 -15.168  1.00  0.00     0.062 A
HETATM   16  C6  UNL     1      -5.352   3.512 -15.753  1.00  0.00     0.048 A
HETATM   17  C7  UNL     1      -6.704   3.267 -15.530  1.00  0.00     0.054 A
HETATM   18 CL1  UNL     1      -7.922   4.157 -16.407  1.00  0.00    -0.083 Cl
BRANCH  13  19
HETATM   19  N1  UNL     1      -6.478   0.312 -13.353  1.00  0.00    -0.393 N
HETATM   20  C1  UNL     1      -5.550  -0.480 -12.585  1.00  0.00     0.146 C
ATOM     21  H1  UNL     1      -7.462   0.045 -13.330  1.00  0.00     0.159 HD
ENDBRANCH  13  19
BRANCH  15  22
HETATM   22  S1  UNL     1      -2.691   3.168 -15.379  1.00  0.00     0.172 S
HETATM   23  C5  UNL     1      -1.704   1.787 -14.802  1.00  0.00     0.167 C
HETATM   24  O1  UNL     1      -2.392   3.526 -16.758  1.00  0.00    -0.223 OA
HETATM   25  O2  UNL     1      -2.393   4.313 -14.467  1.00  0.00    -0.223 OA
ENDBRANCH  15  22
ENDBRANCH  11  12
ENDBRANCH   1  11
BRANCH   3  26
HETATM   26  C11 UNL     1     -12.886   2.993 -16.617  1.00  0.00     0.067 C
BRANCH  26  27
HETATM   27  C12 UNL     1     -12.202   3.341 -17.755  1.00  0.00     0.034 C
BRANCH  27  28
HETATM   28  C13 UNL     1     -12.717   3.067 -18.991  1.00  0.00    -0.085 C
HETATM   29  C14 UNL     1     -12.191   3.882 -20.086  1.00  0.00     0.043 C
HETATM   30  C15 UNL     1     -13.689   2.004 -19.222  1.00  0.00     0.043 C
ENDBRANCH  27  28
ENDBRANCH  26  27
BRANCH  26  31
HETATM   31  C16 UNL     1     -13.486   2.632 -15.571  1.00  0.00     0.130 C
HETATM   32 CL2  UNL     1     -13.581   3.250 -13.989  1.00  0.00    -0.068 Cl
HETATM   33 CL3  UNL     1     -14.476   1.102 -15.825  1.00  0.00    -0.068 Cl
ENDBRANCH  26  31
ENDBRANCH   3  26
TORSDOF 8
ENDMDL