MODEL 4
REMARK VINA RESULT: -7.945913309      3.440      7.838
REMARK  7 active torsions:
REMARK  status: ('A' for Active; 'I' for Inactive)
REMARK    1  A    between atoms: O1_1  and  C1_3
REMARK    2  A    between atoms: C1_3  and  C2_4
REMARK    3  A    between atoms: C1_3  and  C9_15
REMARK    4  A    between atoms: C2_4  and  O2_5
REMARK    5  A    between atoms: O2_5  and  C3_6
REMARK    6  A    between atoms: C9_15  and  N1_16
REMARK    7  A    between atoms: C10_17  and  C11_18
ROOT
HETATM    1  N1  UNL     1     -10.422   3.770 -15.793  1.00  0.00    -0.326 N
HETATM    2  C10 UNL     1     -11.634   4.323 -15.612  1.00  0.00     0.089 A
HETATM    3  N3  UNL     1     -11.493   5.646 -15.817  1.00  0.00    -0.343 N
ATOM      4  H3  UNL     1     -12.258   6.317 -15.746  1.00  0.00     0.167 HD
HETATM    5  C16 UNL     1     -10.221   5.983 -16.130  1.00  0.00     0.075 A
HETATM    6  C17 UNL     1      -9.504   7.092 -16.429  1.00  0.00    -0.015 A
HETATM    7  C18 UNL     1      -8.168   6.921 -16.687  1.00  0.00    -0.007 A
HETATM    8  S1  UNL     1      -7.964   5.238 -16.505  1.00  0.00    -0.074 SA
HETATM    9  C19 UNL     1      -9.561   4.794 -16.110  1.00  0.00     0.105 A
HETATM   10  C20 UNL     1      -7.279   8.093 -17.032  1.00  0.00     0.047 C
HETATM   11  C21 UNL     1      -7.614   9.326 -16.272  1.00  0.00     0.005 C
HETATM   12  C22 UNL     1      -8.990   9.369 -15.705  1.00  0.00     0.005 C
HETATM   13  C23 UNL     1      -9.952   8.549 -16.529  1.00  0.00     0.042 C
ENDROOT
BRANCH   1  14
HETATM   14  C9  UNL     1     -10.002   2.418 -15.707  1.00  0.00     0.165 C
BRANCH  14  15
HETATM   15  C1  UNL     1      -8.980   2.131 -14.626  1.00  0.00     0.160 C
BRANCH  15  16
HETATM   16  O1  UNL     1      -9.419   1.126 -13.765  1.00  0.00    -0.392 OA
ATOM     17  H1  UNL     1      -9.435   0.281 -14.199  1.00  0.00     0.210 HD
ENDBRANCH  15  16
BRANCH  15  18
HETATM   18  C2  UNL     1      -7.627   1.815 -15.187  1.00  0.00     0.209 C
BRANCH  18  19
HETATM   19  O2  UNL     1      -6.621   2.258 -14.299  1.00  0.00    -0.345 OA
BRANCH  19  20
HETATM   20  C3  UNL     1      -5.326   1.750 -14.370  1.00  0.00     0.112 A
HETATM   21  C4  UNL     1      -4.984   0.584 -13.717  1.00  0.00     0.070 A
HETATM   22 CL1  UNL     1      -6.263  -0.223 -12.798  1.00  0.00    -0.081 Cl
HETATM   23  C5  UNL     1      -3.713   0.053 -13.764  1.00  0.00     0.050 A
HETATM   24  C6  UNL     1      -2.717   0.689 -14.486  1.00  0.00     0.037 A
HETATM   25 CL2  UNL     1      -1.102   0.041 -14.564  1.00  0.00    -0.084 Cl
HETATM   26  C7  UNL     1      -3.057   1.857 -15.140  1.00  0.00     0.050 A
HETATM   27  C8  UNL     1      -4.331   2.384 -15.089  1.00  0.00     0.070 A
HETATM   28 CL3  UNL     1      -4.740   3.864 -15.924  1.00  0.00    -0.081 Cl
ENDBRANCH  19  20
ENDBRANCH  18  19
ENDBRANCH  15  18
ENDBRANCH  14  15
ENDBRANCH   1  14
BRANCH   2  29
HETATM   29  C11 UNL     1     -12.896   3.692 -15.260  1.00  0.00     0.057 C
HETATM   30  C12 UNL     1     -13.351   2.555 -16.146  1.00  0.00     0.031 C
HETATM   31  C13 UNL     1     -14.776   2.225 -15.674  1.00  0.00     0.114 C
HETATM   32  N2  UNL     1     -15.305   3.218 -14.778  1.00  0.00    -0.421 N
HETATM   33  C14 UNL     1     -14.598   3.354 -13.549  1.00  0.00     0.114 C
ATOM     34  H2  UNL     1     -16.125   3.781 -15.006  1.00  0.00     0.153 HD
HETATM   35  C15 UNL     1     -13.082   3.306 -13.826  1.00  0.00     0.031 C
ENDBRANCH   2  29
TORSDOF 7
ENDMDL