MODEL 2
REMARK VINA RESULT: -8.118360049      0.254      2.250
REMARK  8 active torsions:
REMARK  status: ('A' for Active; 'I' for Inactive)
REMARK    1  A    between atoms: O1_2  and  C2_3
REMARK    2  A    between atoms: C4_5  and  C5_6
REMARK       I    between atoms: C5_6  and  N1_8
REMARK    3  A    between atoms: N1_8  and  C6_10
REMARK    4  A    between atoms: C6_10  and  N2_12
REMARK    5  A    between atoms: N2_12  and  C7_14
REMARK    6  A    between atoms: C10_18  and  N3_19
REMARK    7  A    between atoms: C18_31  and  O3_32
REMARK    8  A    between atoms: C20_34  and  O4_35
ROOT
HETATM    1  C6  UNL     1      -8.276   4.628 -17.513  1.00  0.00     0.179 C
HETATM    2  S1  UNL     1      -8.573   3.829 -18.957  1.00  0.00    -0.040 SA
ENDROOT
BRANCH   1   3
HETATM    3  N1  UNL     1      -7.540   3.859 -16.588  1.00  0.00    -0.299 N
HETATM    4  C5  UNL     1      -6.175   3.905 -16.263  1.00  0.00     0.258 C
HETATM    5  O2  UNL     1      -5.397   4.696 -16.798  1.00  0.00    -0.267 OA
ATOM      6  H1  UNL     1      -8.083   3.162 -16.078  1.00  0.00     0.171 HD
BRANCH   4   7
HETATM    7  C4  UNL     1      -5.631   2.981 -15.245  1.00  0.00     0.037 A
HETATM    8  C3  UNL     1      -4.312   2.956 -14.925  1.00  0.00     0.057 A
HETATM    9  C2  UNL     1      -3.833   2.067 -13.954  1.00  0.00     0.105 A
HETATM   10  C20 UNL     1      -4.703   1.213 -13.320  1.00  0.00     0.135 A
HETATM   11  C18 UNL     1      -6.068   1.224 -13.634  1.00  0.00     0.105 A
HETATM   12  C17 UNL     1      -6.476   2.129 -14.606  1.00  0.00     0.057 A
BRANCH   9  13
HETATM   13  O1  UNL     1      -2.493   2.027 -13.617  1.00  0.00    -0.353 OA
HETATM   14  C1  UNL     1      -1.496   2.075 -14.612  1.00  0.00     0.210 C
ENDBRANCH   9  13
BRANCH  10  15
HETATM   15  O4  UNL     1      -4.320   0.308 -12.356  1.00  0.00    -0.351 OA
HETATM   16  C21 UNL     1      -3.875  -0.983 -12.650  1.00  0.00     0.210 C
ENDBRANCH  10  15
BRANCH  11  17
HETATM   17  O3  UNL     1      -6.983   0.388 -13.025  1.00  0.00    -0.353 OA
HETATM   18  C19 UNL     1      -7.912  -0.301 -13.835  1.00  0.00     0.210 C
ENDBRANCH  11  17
ENDBRANCH   4   7
ENDBRANCH   1   3
BRANCH   1  19
HETATM   19  N2  UNL     1      -8.796   5.897 -17.268  1.00  0.00    -0.330 N
ATOM     20  H2  UNL     1      -9.802   5.933 -17.101  1.00  0.00     0.168 HD
BRANCH  19  21
HETATM   21  C7  UNL     1      -8.132   7.133 -17.220  1.00  0.00     0.076 A
HETATM   22  C8  UNL     1      -7.001   7.501 -17.893  1.00  0.00     0.059 A
HETATM   23  C9  UNL     1      -6.375   8.746 -17.726  1.00  0.00     0.065 A
HETATM   24 CL1  UNL     1      -4.930   9.123 -18.638  1.00  0.00    -0.082 Cl
HETATM   25  C10 UNL     1      -6.882   9.672 -16.860  1.00  0.00     0.086 A
HETATM   26  C15 UNL     1      -8.020   9.322 -16.174  1.00  0.00     0.103 A
HETATM   27 CL2  UNL     1      -8.700  10.491 -15.066  1.00  0.00    -0.078 Cl
HETATM   28  C16 UNL     1      -8.636   8.109 -16.331  1.00  0.00     0.167 A
HETATM   29  F1  UNL     1      -9.775   7.813 -15.620  1.00  0.00    -0.202 F
BRANCH  25  30
HETATM   30  N3  UNL     1      -6.240  10.928 -16.675  1.00  0.00    -0.313 N
HETATM   31  C11 UNL     1      -6.505  12.062 -17.402  1.00  0.00     0.188 A
HETATM   32  N4  UNL     1      -5.721  13.050 -16.955  1.00  0.00    -0.354 N
HETATM   33  C12 UNL     1      -4.940  12.619 -15.955  1.00  0.00     0.022 A
ATOM     34  H4  UNL     1      -5.718  14.000 -17.324  1.00  0.00     0.166 HD
HETATM   35  C13 UNL     1      -3.940  13.424 -15.206  1.00  0.00     0.069 C
HETATM   36  C14 UNL     1      -5.289  11.292 -15.804  1.00  0.00     0.122 A
ENDBRANCH  25  30
ENDBRANCH  19  21
ENDBRANCH   1  19
TORSDOF 8
ENDMDL