MODEL 3
REMARK VINA RESULT: -9.064307356      1.869      2.815
REMARK  6 active torsions:
REMARK  status: ('A' for Active; 'I' for Inactive)
REMARK    1  A    between atoms: C3_3  and  C4_4
REMARK    2  A    between atoms: C5_5  and  N1_6
REMARK    3  A    between atoms: N1_6  and  C6_8
REMARK    4  A    between atoms: C10_13  and  C11_14
REMARK    5  A    between atoms: C11_14  and  N2_15
REMARK    6  A    between atoms: C23_32  and  O3_33
ROOT
HETATM    1  C1  UNL     1      -3.348  -1.829 -11.717  1.00  0.00     0.012 C
HETATM    2  C2  UNL     1      -3.743  -1.431 -12.788  1.00  0.00    -0.113 C
HETATM    3  C3  UNL     1      -4.207  -0.928 -14.084  1.00  0.00     0.135 C
ENDROOT
BRANCH   3   4
HETATM    4  C4  UNL     1      -4.035   0.547 -14.114  1.00  0.00     0.004 A
HETATM    5  C5  UNL     1      -5.153   1.349 -13.898  1.00  0.00     0.044 A
HETATM    6  C21 UNL     1      -4.932   2.702 -13.920  1.00  0.00     0.075 A
HETATM    7  C22 UNL     1      -3.655   3.248 -14.151  1.00  0.00     0.153 A
HETATM    8  F1  UNL     1      -3.504   4.577 -14.163  1.00  0.00    -0.203 F
HETATM    9  C23 UNL     1      -2.565   2.444 -14.363  1.00  0.00     0.129 A
HETATM   10  C25 UNL     1      -2.775   1.091 -14.340  1.00  0.00     0.079 A
HETATM   11 CL2  UNL     1      -1.420   0.015 -14.604  1.00  0.00    -0.081 Cl
BRANCH   5  12
HETATM   12  N1  UNL     1      -6.388   0.746 -13.625  1.00  0.00    -0.351 N
ATOM     13  H1  UNL     1      -6.391   0.101 -12.835  1.00  0.00     0.166 HD
BRANCH  12  14
HETATM   14  C6  UNL     1      -7.628   0.898 -14.279  1.00  0.00     0.110 A
HETATM   15  C7  UNL     1      -8.207   2.102 -14.570  1.00  0.00     0.052 A
HETATM   16  C8  UNL     1      -9.400   2.193 -15.282  1.00  0.00     0.025 A
HETATM   17  C9  UNL     1      -9.974   3.394 -15.567  1.00  0.00     0.058 A
HETATM   18  C19 UNL     1      -9.985   1.016 -15.690  1.00  0.00     0.115 A
HETATM   19 CL1  UNL     1      -9.194   4.849 -15.026  1.00  0.00    -0.082 Cl
HETATM   20  C10 UNL     1     -11.179   3.529 -16.283  1.00  0.00     0.004 A
HETATM   21  C17 UNL     1     -11.752   2.354 -16.685  1.00  0.00     0.044 A
HETATM   22  C18 UNL     1     -11.164   1.115 -16.394  1.00  0.00     0.082 A
HETATM   23  N4  UNL     1     -11.777  -0.102 -16.823  1.00  0.00    -0.099 NA
HETATM   24  O1  UNL     1      -9.431  -0.149 -15.414  1.00  0.00    -0.271 OA
HETATM   25  C20 UNL     1      -8.320  -0.227 -14.750  1.00  0.00     0.315 A
HETATM   26  O2  UNL     1      -7.801  -1.344 -14.492  1.00  0.00    -0.257 OA
BRANCH  20  27
HETATM   27  C11 UNL     1     -11.703   4.877 -16.582  1.00  0.00     0.098 C
BRANCH  27  28
HETATM   28  N2  UNL     1     -11.650   5.204 -17.943  1.00  0.00    -0.386 N
HETATM   29  C12 UNL     1     -12.800   5.069 -18.742  1.00  0.00     0.141 C
HETATM   30  C13 UNL     1     -12.629   5.880 -20.034  1.00  0.00     0.136 C
HETATM   31  N3  UNL     1     -11.558   5.291 -20.765  1.00  0.00    -0.414 N
HETATM   32  C14 UNL     1     -11.942   4.251 -21.669  1.00  0.00     0.143 C
HETATM   33  C15 UNL     1     -10.356   5.040 -20.046  1.00  0.00     0.136 C
HETATM   34  C16 UNL     1     -10.390   5.296 -18.580  1.00  0.00     0.141 C
ENDBRANCH  27  28
ENDBRANCH  20  27
ENDBRANCH  12  14
ENDBRANCH   5  12
BRANCH   9  35
HETATM   35  O3  UNL     1      -1.292   2.975 -14.593  1.00  0.00    -0.351 OA
HETATM   36  C24 UNL     1      -0.978   3.754 -15.719  1.00  0.00     0.210 C
ENDBRANCH   9  35
ENDBRANCH   3   4
TORSDOF 6
ENDMDL