MODEL 4
REMARK VINA RESULT: -8.243327563      1.281      1.525
REMARK  6 active torsions:
REMARK  status: ('A' for Active; 'I' for Inactive)
REMARK    1  A    between atoms: C5_6  and  C6_7
REMARK    2  A    between atoms: C9_14  and  C10_15
REMARK    3  A    between atoms: C10_15  and  N3_16
REMARK    4  A    between atoms: N3_16  and  C11_18
REMARK    5  A    between atoms: C11_18  and  C13_20
REMARK    6  A    between atoms: N7_26  and  C14_27
ROOT
HETATM    1  N3  UNL     1      -5.109   4.950 -16.476  1.00  0.00    -0.407 N
ATOM      2  H3  UNL     1      -4.650   5.838 -16.273  1.00  0.00     0.154 HD
ENDROOT
BRANCH   1   3
HETATM    3  C10 UNL     1      -6.303   4.866 -17.245  1.00  0.00     0.158 C
BRANCH   3   4
HETATM    4  C9  UNL     1      -7.458   5.610 -16.773  1.00  0.00     0.012 A
HETATM    5  C6  UNL     1      -8.628   4.972 -16.357  1.00  0.00     0.072 A
HETATM    6  N1  UNL     1      -9.461   5.964 -16.000  1.00  0.00    -0.299 N
HETATM    7  N2  UNL     1      -8.888   7.140 -16.170  1.00  0.00    -0.304 N
ATOM      8  H1  UNL     1     -10.408   5.827 -15.647  1.00  0.00     0.187 HD
HETATM    9  C7  UNL     1      -7.624   6.960 -16.656  1.00  0.00     0.032 A
ATOM     10  H2  UNL     1      -9.320   8.042 -15.970  1.00  0.00     0.186 HD
HETATM   11  C8  UNL     1      -6.697   8.078 -16.966  1.00  0.00     0.070 C
BRANCH   5  12
HETATM   12  C5  UNL     1      -8.915   3.542 -16.305  1.00  0.00     0.053 A
HETATM   13  C4  UNL     1      -9.008   2.745 -17.427  1.00  0.00     0.131 A
HETATM   14  C3  UNL     1      -9.280   1.395 -17.375  1.00  0.00     0.050 A
HETATM   15  F1  UNL     1      -8.821   3.330 -18.631  1.00  0.00    -0.205 F
HETATM   16  C2  UNL     1      -9.473   0.789 -16.148  1.00  0.00    -0.057 A
HETATM   17  C1  UNL     1      -9.764  -0.668 -16.117  1.00  0.00     0.048 C
HETATM   18  C20 UNL     1      -9.388   1.552 -15.005  1.00  0.00     0.031 A
HETATM   19  C19 UNL     1      -9.115   2.901 -15.094  1.00  0.00     0.050 A
HETATM   20 CL1  UNL     1      -9.003   3.893 -13.641  1.00  0.00    -0.083 Cl
ENDBRANCH   5  12
ENDBRANCH   3   4
ENDBRANCH   1   3
BRANCH   1  21
HETATM   21  C11 UNL     1      -4.604   3.707 -16.012  1.00  0.00     0.144 C
HETATM   22  C12 UNL     1      -3.617   3.078 -16.999  1.00  0.00     0.040 C
BRANCH  21  23
HETATM   23  C13 UNL     1      -4.063   3.679 -14.651  1.00  0.00     0.140 A
HETATM   24  N4  UNL     1      -3.418   4.763 -14.105  1.00  0.00    -0.273 N
HETATM   25  N5  UNL     1      -3.036   4.442 -12.902  1.00  0.00    -0.224 N
ATOM     26  H4  UNL     1      -3.265   5.663 -14.562  1.00  0.00     0.189 HD
HETATM   27  N6  UNL     1      -3.421   3.196 -12.686  1.00  0.00     0.002 NA
ATOM     28  H5  UNL     1      -2.533   5.041 -12.248  1.00  0.00     0.205 HD
HETATM   29  N7  UNL     1      -4.051   2.716 -13.749  1.00  0.00    -0.222 N
BRANCH  29  30
HETATM   30  C14 UNL     1      -4.568   1.418 -13.846  1.00  0.00     0.076 A
HETATM   31  C15 UNL     1      -5.912   1.152 -13.671  1.00  0.00     0.050 A
HETATM   32  C16 UNL     1      -6.378  -0.137 -13.792  1.00  0.00     0.090 A
HETATM   33  N8  UNL     1      -5.532  -1.134 -14.080  1.00  0.00    -0.374 N
HETATM   34  C17 UNL     1      -4.227  -0.883 -14.252  1.00  0.00     0.109 A
ATOM     35  H8  UNL     1      -5.882  -2.087 -14.169  1.00  0.00     0.164 HD
HETATM   36  C18 UNL     1      -3.721   0.381 -14.141  1.00  0.00     0.054 A
HETATM   37 BR1  UNL     1      -1.832   0.646 -14.405  1.00  0.00    -0.047 Br
ENDBRANCH  29  30
ENDBRANCH  21  23
ENDBRANCH   1  21
TORSDOF 6
ENDMDL