MODEL 4
REMARK VINA RESULT: -7.465651454      1.333      2.234
REMARK  7 active torsions:
REMARK  status: ('A' for Active; 'I' for Inactive)
REMARK    1  A    between atoms: O1_2  and  C2_3
REMARK    2  A    between atoms: C7_10  and  C8_11
REMARK    3  A    between atoms: C10_14  and  C11_15
REMARK    4  A    between atoms: N2_21  and  C14_22
REMARK    5  A    between atoms: C14_22  and  C15_23
REMARK    6  A    between atoms: C20_31  and  C21_32
REMARK    7  A    between atoms: C21_32  and  O5_33
ROOT
HETATM    1  C8  UNL     1      -9.101   5.624 -17.056  1.00  0.00    -0.007 A
HETATM    2  C9  UNL     1      -9.894   5.955 -15.994  1.00  0.00     0.063 A
HETATM    3  S1  UNL     1     -10.152   4.505 -15.205  1.00  0.00    -0.100 SA
HETATM    4  C10 UNL     1      -9.219   3.430 -16.267  1.00  0.00     0.030 A
HETATM    5  C20 UNL     1      -8.754   4.308 -17.179  1.00  0.00    -0.005 A
ENDROOT
BRANCH   4   6
HETATM    6  C11 UNL     1      -9.115   2.008 -15.971  1.00  0.00     0.057 A
HETATM    7  C12 UNL     1      -9.612   0.994 -16.700  1.00  0.00     0.094 A
HETATM    8  C13 UNL     1      -9.333  -0.314 -16.293  1.00  0.00     0.261 A
HETATM    9  O2  UNL     1      -9.791  -1.244 -16.969  1.00  0.00    -0.267 OA
HETATM   10  N1  UNL     1      -8.602  -0.607 -15.213  1.00  0.00    -0.261 N
HETATM   11  N2  UNL     1      -8.109   0.400 -14.482  1.00  0.00    -0.248 N
ATOM     12  H1  UNL     1      -8.423  -1.577 -14.952  1.00  0.00     0.190 HD
HETATM   13  C19 UNL     1      -8.350   1.654 -14.839  1.00  0.00     0.274 A
HETATM   14  O4  UNL     1      -7.897   2.611 -14.169  1.00  0.00    -0.266 OA
BRANCH  11  15
HETATM   15  C14 UNL     1      -7.313   0.096 -13.293  1.00  0.00     0.217 C
BRANCH  15  16
HETATM   16  C15 UNL     1      -5.904  -0.121 -13.624  1.00  0.00     0.074 A
HETATM   17  C16 UNL     1      -5.025   0.812 -14.108  1.00  0.00     0.060 A
HETATM   18  C17 UNL     1      -3.804   0.159 -14.272  1.00  0.00     0.058 A
HETATM   19 CL3  UNL     1      -2.328   0.889 -14.865  1.00  0.00    -0.082 Cl
HETATM   20  C18 UNL     1      -4.018  -1.141 -13.876  1.00  0.00     0.166 A
HETATM   21  O3  UNL     1      -5.255  -1.243 -13.510  1.00  0.00    -0.324 OA
ENDBRANCH  15  16
ENDBRANCH  11  15
ENDBRANCH   4   6
BRANCH   5  22
HETATM   22  C21 UNL     1      -7.746   3.955 -18.269  1.00  0.00     0.205 C
BRANCH  22  23
HETATM   23  O5  UNL     1      -8.216   3.495 -19.418  1.00  0.00    -0.396 OA
ATOM     24  H5  UNL     1      -8.476   2.583 -19.456  1.00  0.00     0.209 HD
ENDBRANCH  22  23
ENDBRANCH   5  22
BRANCH   1  25
HETATM   25  C7  UNL     1      -8.727   6.709 -18.016  1.00  0.00     0.012 A
HETATM   26  C2  UNL     1      -7.585   7.458 -17.760  1.00  0.00     0.101 A
HETATM   27  C3  UNL     1      -7.232   8.509 -18.571  1.00  0.00     0.069 A
HETATM   28 CL1  UNL     1      -5.794   9.426 -18.218  1.00  0.00    -0.081 Cl
HETATM   29  C4  UNL     1      -7.994   8.852 -19.664  1.00  0.00     0.050 A
HETATM   30  C5  UNL     1      -9.124   8.110 -19.918  1.00  0.00     0.036 A
HETATM   31 CL2  UNL     1     -10.131   8.519 -21.311  1.00  0.00    -0.084 Cl
HETATM   32  C6  UNL     1      -9.486   7.042 -19.093  1.00  0.00     0.039 A
BRANCH  26  33
HETATM   33  O1  UNL     1      -6.825   7.103 -16.655  1.00  0.00    -0.353 OA
HETATM   34  C1  UNL     1      -5.613   6.377 -16.770  1.00  0.00     0.210 C
ENDBRANCH  26  33
ENDBRANCH   1  25
TORSDOF 7
ENDMDL