MODEL 4
REMARK VINA RESULT: -8.556761146      2.631      3.078
REMARK  6 active torsions:
REMARK  status: ('A' for Active; 'I' for Inactive)
REMARK    1  A    between atoms: C2_2  and  O1_4
REMARK    2  A    between atoms: C2_2  and  S1_31
REMARK    3  A    between atoms: O1_4  and  C4_5
REMARK    4  A    between atoms: C7_8  and  O2_9
REMARK    5  A    between atoms: O2_9  and  C8_10
REMARK    6  A    between atoms: C11_15  and  C12_16
ROOT
HETATM    1  C12 UNL     1     -14.078   3.276 -14.751  1.00  0.00     0.003 A
HETATM    2  C13 UNL     1     -14.322   4.175 -13.730  1.00  0.00     0.038 A
HETATM    3  C14 UNL     1     -15.361   4.009 -12.876  1.00  0.00     0.036 A
HETATM    4 CL1  UNL     1     -15.716   5.119 -11.563  1.00  0.00    -0.084 Cl
HETATM    5  C15 UNL     1     -16.197   2.916 -13.029  1.00  0.00     0.052 A
HETATM    6  C16 UNL     1     -15.975   2.010 -14.036  1.00  0.00     0.069 A
HETATM    7  N2  UNL     1     -16.827   0.887 -14.200  1.00  0.00    -0.101 NA
HETATM    8  C17 UNL     1     -14.906   2.193 -14.903  1.00  0.00     0.080 A
HETATM    9  C18 UNL     1     -14.680   1.235 -15.930  1.00  0.00     0.102 C
HETATM   10  N3  UNL     1     -14.497   0.437 -16.751  1.00  0.00    -0.191 NA
ENDROOT
BRANCH   1  11
HETATM   11  C11 UNL     1     -12.945   3.536 -15.652  1.00  0.00     0.033 A
HETATM   12  C10 UNL     1     -12.974   4.566 -16.557  1.00  0.00     0.103 A
HETATM   13  N1  UNL     1     -11.883   4.759 -17.344  1.00  0.00    -0.372 N
HETATM   14  C9  UNL     1     -10.785   4.005 -17.290  1.00  0.00     0.128 A
ATOM     15  H1  UNL     1     -11.905   5.527 -18.016  1.00  0.00     0.164 HD
HETATM   16  C8  UNL     1     -10.710   2.967 -16.404  1.00  0.00     0.131 A
HETATM   17  C19 UNL     1     -11.815   2.751 -15.586  1.00  0.00     0.164 A
HETATM   18  F1  UNL     1     -11.790   1.723 -14.690  1.00  0.00    -0.202 F
BRANCH  16  19
HETATM   19  O2  UNL     1      -9.633   2.129 -16.258  1.00  0.00    -0.304 OA
BRANCH  19  20
HETATM   20  C7  UNL     1      -8.338   2.521 -15.974  1.00  0.00     0.098 A
HETATM   21  C6  UNL     1      -7.743   3.531 -16.731  1.00  0.00     0.042 A
HETATM   22  C5  UNL     1      -6.448   3.973 -16.502  1.00  0.00     0.039 A
HETATM   23  C4  UNL     1      -5.673   3.432 -15.506  1.00  0.00     0.072 A
HETATM   24  C21 UNL     1      -6.281   2.417 -14.751  1.00  0.00     0.063 A
HETATM   25  C20 UNL     1      -7.561   1.977 -14.975  1.00  0.00     0.070 A
HETATM   26 CL2  UNL     1      -8.242   0.658 -14.005  1.00  0.00    -0.081 Cl
BRANCH  23  27
HETATM   27  O1  UNL     1      -4.389   3.809 -15.210  1.00  0.00    -0.325 OA
BRANCH  27  28
HETATM   28  C2  UNL     1      -3.173   3.360 -15.653  1.00  0.00     0.162 C
HETATM   29  C1  UNL     1      -3.355   2.480 -16.874  1.00  0.00     0.063 C
HETATM   30  C3  UNL     1      -2.125   4.386 -15.925  1.00  0.00     0.063 C
BRANCH  28  31
HETATM   31  S1  UNL     1      -2.567   2.272 -14.318  1.00  0.00     0.173 S
HETATM   32  C22 UNL     1      -3.053   0.612 -14.606  1.00  0.00     0.164 C
HETATM   33  O3  UNL     1      -3.192   2.813 -13.061  1.00  0.00    -0.225 OA
HETATM   34  O4  UNL     1      -1.100   2.479 -14.252  1.00  0.00    -0.225 OA
ENDBRANCH  28  31
ENDBRANCH  27  28
ENDBRANCH  23  27
ENDBRANCH  19  20
ENDBRANCH  16  19
ENDBRANCH   1  11
TORSDOF 6
ENDMDL