MODEL 2
REMARK VINA RESULT: -6.980816863      2.985      5.777
REMARK  7 active torsions:
REMARK  status: ('A' for Active; 'I' for Inactive)
REMARK    1  A    between atoms: C5_7  and  S2_8
REMARK    2  A    between atoms: S2_8  and  N1_11
REMARK    3  A    between atoms: N1_11  and  C6_13
REMARK    4  A    between atoms: C12_22  and  O3_23
REMARK    5  A    between atoms: O3_23  and  C13_24
REMARK    6  A    between atoms: C16_28  and  C17_29
REMARK    7  A    between atoms: C17_29  and  O4_30
ROOT
HETATM    1  C1  UNL     1     -12.696   3.413 -19.433  1.00  0.00     0.018 C
HETATM    2  C2  UNL     1     -11.687   3.529 -18.787  1.00  0.00    -0.067 C
HETATM    3  C3  UNL     1     -10.451   3.661 -18.014  1.00  0.00     0.094 A
HETATM    4  S1  UNL     1      -9.181   4.766 -18.204  1.00  0.00    -0.064 SA
HETATM    5  C4  UNL     1      -8.167   4.248 -16.951  1.00  0.00     0.102 A
HETATM    6 CL1  UNL     1      -6.586   4.884 -16.446  1.00  0.00    -0.074 Cl
HETATM    7  C5  UNL     1      -8.851   3.193 -16.390  1.00  0.00     0.144 A
HETATM    8  C12 UNL     1     -10.053   2.887 -16.950  1.00  0.00     0.127 A
ENDROOT
BRANCH   8   9
HETATM    9  O3  UNL     1     -10.879   1.826 -16.496  1.00  0.00    -0.305 OA
BRANCH   9  10
HETATM   10  C13 UNL     1     -12.068   1.980 -15.849  1.00  0.00     0.099 A
HETATM   11  C14 UNL     1     -12.279   2.828 -14.776  1.00  0.00     0.063 A
HETATM   12  C15 UNL     1     -13.506   2.944 -14.168  1.00  0.00     0.045 A
HETATM   13 CL2  UNL     1     -13.789   4.044 -12.834  1.00  0.00    -0.084 Cl
HETATM   14  C16 UNL     1     -14.574   2.204 -14.617  1.00  0.00    -0.011 A
HETATM   15  C18 UNL     1     -14.367   1.360 -15.682  1.00  0.00     0.037 A
HETATM   16  C19 UNL     1     -13.155   1.229 -16.304  1.00  0.00     0.068 A
HETATM   17 CL3  UNL     1     -12.935   0.133 -17.669  1.00  0.00    -0.081 Cl
BRANCH  14  18
HETATM   18  C17 UNL     1     -15.903   2.325 -13.964  1.00  0.00     0.204 C
BRANCH  18  19
HETATM   19  O4  UNL     1     -16.112   1.305 -13.044  1.00  0.00    -0.396 OA
ATOM     20  H4  UNL     1     -16.828   1.510 -12.453  1.00  0.00     0.209 HD
ENDBRANCH  18  19
ENDBRANCH  14  18
ENDBRANCH   9  10
ENDBRANCH   8   9
BRANCH   7  21
HETATM   21  S2  UNL     1      -8.116   2.216 -15.079  1.00  0.00     0.268 S
HETATM   22  O1  UNL     1      -8.212   0.744 -15.495  1.00  0.00    -0.200 OA
HETATM   23  O2  UNL     1      -8.993   2.312 -13.849  1.00  0.00    -0.200 OA
BRANCH  21  24
HETATM   24  N1  UNL     1      -6.534   2.619 -14.767  1.00  0.00    -0.276 N
ATOM     25  H1  UNL     1      -6.327   3.616 -14.711  1.00  0.00     0.179 HD
BRANCH  24  26
HETATM   26  C6  UNL     1      -5.449   1.755 -14.573  1.00  0.00     0.090 A
HETATM   27  C7  UNL     1      -4.177   1.903 -15.146  1.00  0.00     0.051 A
HETATM   28  C8  UNL     1      -3.740   2.984 -16.089  1.00  0.00     0.072 C
HETATM   29  N2  UNL     1      -3.429   0.891 -14.688  1.00  0.00    -0.301 N
HETATM   30  N3  UNL     1      -4.100   0.103 -13.871  1.00  0.00    -0.299 N
ATOM     31  H2  UNL     1      -2.452   0.747 -14.941  1.00  0.00     0.187 HD
HETATM   32  C9  UNL     1      -3.600  -1.086 -13.166  1.00  0.00     0.177 C
HETATM   33  C10 UNL     1      -5.341   0.625 -13.796  1.00  0.00     0.053 A
HETATM   34  C11 UNL     1      -6.430   0.029 -12.964  1.00  0.00     0.072 C
ENDBRANCH  24  26
ENDBRANCH  21  24
ENDBRANCH   7  21
TORSDOF 7
ENDMDL