MODEL 5
REMARK VINA RESULT: -8.032149852      5.293      6.598
REMARK  8 active torsions:
REMARK  status: ('A' for Active; 'I' for Inactive)
REMARK    1  A    between atoms: C2_2  and  O1_4
REMARK    2  A    between atoms: O1_4  and  C4_5
REMARK    3  A    between atoms: C8_12  and  N2_13
REMARK    4  A    between atoms: N2_13  and  C9_15
REMARK    5  A    between atoms: C12_22  and  N5_23
REMARK    6  A    between atoms: N5_23  and  C13_25
REMARK    7  A    between atoms: C18_32  and  O2_33
REMARK    8  A    between atoms: O2_33  and  C19_34
ROOT
HETATM    1  C9  UNL     1      -9.335   4.501 -20.098  1.00  0.00     0.122 A
HETATM    2  C10 UNL     1      -8.109   5.047 -19.836  1.00  0.00     0.138 A
HETATM    3  N3  UNL     1      -7.537   4.781 -18.625  1.00  0.00    -0.346 N
ATOM      4  H3  UNL     1      -6.623   5.179 -18.409  1.00  0.00     0.167 HD
HETATM    5  C11 UNL     1      -8.148   4.008 -17.711  1.00  0.00     0.149 A
HETATM    6  N4  UNL     1      -7.607   3.728 -16.508  1.00  0.00    -0.174 N
ATOM      7  H4  UNL     1      -6.694   4.121 -16.280  1.00  0.00     0.186 HD
HETATM    8  C12 UNL     1      -8.217   2.960 -15.603  1.00  0.00     0.684 A
HETATM    9  N6  UNL     1      -9.418   2.413 -15.834  1.00  0.00    -0.199 N
ATOM     10  H6  UNL     1      -9.872   1.829 -15.132  1.00  0.00     0.183 HD
HETATM   11  C22 UNL     1     -10.008   2.657 -17.021  1.00  0.00     0.139 A
HETATM   12  C23 UNL     1      -9.388   3.453 -17.972  1.00  0.00     0.095 A
HETATM   13  N7  UNL     1      -9.954   3.713 -19.161  1.00  0.00    -0.337 N
ATOM     14  H7  UNL     1     -10.869   3.314 -19.374  1.00  0.00     0.167 HD
ENDROOT
BRANCH   1  15
HETATM   15  N2  UNL     1      -9.947   4.713 -21.220  1.00  0.00    -0.338 N
ATOM     16  H2  UNL     1     -10.755   4.143 -21.470  1.00  0.00     0.167 HD
BRANCH  15  17
HETATM   17  C8  UNL     1      -9.507   5.724 -22.096  1.00  0.00     0.083 A
HETATM   18  C4  UNL     1      -8.874   5.412 -23.271  1.00  0.00     0.100 A
HETATM   19  C5  UNL     1      -8.456   6.534 -24.064  1.00  0.00     0.081 A
HETATM   20  C6  UNL     1      -8.687   7.809 -23.652  1.00  0.00     0.106 A
HETATM   21 CL1  UNL     1      -8.181   9.184 -24.613  1.00  0.00    -0.064 Cl
HETATM   22  N1  UNL     1      -9.314   8.069 -22.489  1.00  0.00    -0.354 N
HETATM   23  C7  UNL     1      -9.725   7.063 -21.710  1.00  0.00     0.121 A
ATOM     24  H1  UNL     1      -9.476   9.034 -22.202  1.00  0.00     0.166 HD
BRANCH  18  25
HETATM   25  O1  UNL     1      -8.618   4.186 -23.731  1.00  0.00    -0.344 OA
BRANCH  25  26
HETATM   26  C2  UNL     1      -9.142   3.258 -24.524  1.00  0.00     0.120 C
HETATM   27  C1  UNL     1     -10.698   3.325 -24.587  1.00  0.00     0.040 C
HETATM   28  C3  UNL     1      -8.638   3.315 -25.979  1.00  0.00     0.040 C
ENDBRANCH  25  26
ENDBRANCH  18  25
ENDBRANCH  15  17
ENDBRANCH   1  15
BRANCH   8  29
HETATM   29  N5  UNL     1      -7.661   2.716 -14.455  1.00  0.00    -0.186 N
ATOM     30  H5  UNL     1      -7.967   3.271 -13.655  1.00  0.00     0.184 HD
BRANCH  29  31
HETATM   31  C13 UNL     1      -6.674   1.749 -14.232  1.00  0.00     0.121 A
HETATM   32  C14 UNL     1      -7.054   0.489 -13.796  1.00  0.00     0.148 A
HETATM   33  F1  UNL     1      -8.367   0.210 -13.575  1.00  0.00    -0.204 F
HETATM   34  C15 UNL     1      -6.116  -0.496 -13.576  1.00  0.00     0.068 A
HETATM   35  C16 UNL     1      -4.778  -0.255 -13.781  1.00  0.00     0.039 A
HETATM   36 CL2  UNL     1      -3.609  -1.542 -13.487  1.00  0.00    -0.084 Cl
HETATM   37  C17 UNL     1      -4.408   0.982 -14.207  1.00  0.00     0.063 A
HETATM   38  C18 UNL     1      -5.336   2.017 -14.445  1.00  0.00     0.101 A
BRANCH  38  39
HETATM   39  O2  UNL     1      -4.817   3.190 -14.864  1.00  0.00    -0.344 OA
BRANCH  39  40
HETATM   40  C19 UNL     1      -3.804   3.695 -15.585  1.00  0.00     0.120 C
HETATM   41  C20 UNL     1      -4.088   5.142 -16.069  1.00  0.00     0.040 C
HETATM   42  C21 UNL     1      -3.476   2.879 -16.840  1.00  0.00     0.040 C
ENDBRANCH  39  40
ENDBRANCH  38  39
ENDBRANCH  29  31
ENDBRANCH   8  29
TORSDOF 8
ENDMDL