MODEL 2
REMARK VINA RESULT: -8.886272294      2.501      3.300
REMARK  7 active torsions:
REMARK  status: ('A' for Active; 'I' for Inactive)
REMARK    1  A    between atoms: C2_2  and  C3_3
REMARK    2  A    between atoms: C2_2  and  N1_6
REMARK    3  A    between atoms: C5_9  and  C6_10
REMARK    4  A    between atoms: C6_10  and  C7_11
REMARK    5  A    between atoms: C10_14  and  O4_15
REMARK    6  A    between atoms: O4_15  and  C11_16
REMARK    7  A    between atoms: C16_26  and  C17_27
ROOT
HETATM    1  C7  UNL     1     -10.034   1.008 -15.028  1.00  0.00    -0.034 A
HETATM    2  C8  UNL     1      -9.806   0.013 -15.927  1.00  0.00     0.014 A
HETATM    3  C9  UNL     1     -10.783  -0.304 -16.898  1.00  0.00     0.039 A
HETATM    4  C10 UNL     1     -11.976   0.354 -16.984  1.00  0.00     0.095 A
HETATM    5  C16 UNL     1     -12.205   1.365 -16.070  1.00  0.00     0.075 A
HETATM    6  C18 UNL     1     -11.233   1.663 -15.122  1.00  0.00     0.032 A
ENDROOT
BRANCH   1   7
HETATM    7  C6  UNL     1      -9.025   1.342 -14.048  1.00  0.00     0.036 C
BRANCH   7   8
HETATM    8  C5  UNL     1      -7.739   1.153 -14.201  1.00  0.00     0.076 C
HETATM    9  C4  UNL     1      -6.955  -0.050 -14.025  1.00  0.00     0.267 C
HETATM   10  N1  UNL     1      -5.587   0.129 -13.883  1.00  0.00    -0.283 N
HETATM   11  O3  UNL     1      -7.532  -1.198 -14.007  1.00  0.00    -0.266 OA
HETATM   12  C19 UNL     1      -5.121   1.469 -13.927  1.00  0.00     0.149 C
HETATM   13  S1  UNL     1      -6.516   2.377 -14.660  1.00  0.00    -0.055 SA
HETATM   14  S2  UNL     1      -3.690   2.100 -13.450  1.00  0.00    -0.052 SA
BRANCH  10  15
HETATM   15  C2  UNL     1      -4.623  -0.979 -13.704  1.00  0.00     0.191 C
HETATM   16  C1  UNL     1      -3.305  -0.663 -14.332  1.00  0.00     0.044 C
BRANCH  15  17
HETATM   17  C3  UNL     1      -4.459  -1.133 -12.217  1.00  0.00     0.197 C
HETATM   18  O1  UNL     1      -5.401  -0.899 -11.426  1.00  0.00    -0.646 OA
HETATM   19  O2  UNL     1      -3.250  -1.543 -11.651  1.00  0.00    -0.646 OA
ENDBRANCH  15  17
ENDBRANCH  10  15
ENDBRANCH   7   8
ENDBRANCH   1   7
BRANCH   5  20
HETATM   20  C17 UNL     1     -13.427   2.123 -16.076  1.00  0.00     0.212 C
HETATM   21  O5  UNL     1     -13.462   3.243 -16.712  1.00  0.00    -0.644 OA
HETATM   22  O6  UNL     1     -14.580   1.770 -15.461  1.00  0.00    -0.644 OA
ENDBRANCH   5  20
BRANCH   4  23
HETATM   23  O4  UNL     1     -12.921   0.055 -17.916  1.00  0.00    -0.291 OA
BRANCH  23  24
HETATM   24  C11 UNL     1     -13.248  -1.114 -18.537  1.00  0.00     0.173 A
HETATM   25  N2  UNL     1     -12.541  -1.621 -19.577  1.00  0.00    -0.343 N
HETATM   26  C12 UNL     1     -12.786  -2.741 -20.237  1.00  0.00     0.117 A
ATOM     27  H2  UNL     1     -11.733  -1.079 -19.885  1.00  0.00     0.167 HD
HETATM   28  C13 UNL     1     -13.868  -3.533 -19.879  1.00  0.00     0.089 A
HETATM   29 CL1  UNL     1     -14.194  -5.007 -20.744  1.00  0.00    -0.080 Cl
HETATM   30  C14 UNL     1     -14.631  -3.102 -18.849  1.00  0.00     0.165 A
HETATM   31  F1  UNL     1     -15.713  -3.806 -18.421  1.00  0.00    -0.202 F
HETATM   32  C15 UNL     1     -14.333  -1.910 -18.181  1.00  0.00     0.125 A
HETATM   33 CL2  UNL     1     -15.358  -1.415 -16.866  1.00  0.00    -0.076 Cl
ENDBRANCH  23  24
ENDBRANCH   4  23
TORSDOF 7
ENDMDL