MODEL 2
REMARK VINA RESULT: -8.681934101      0.810      1.472
REMARK  7 active torsions:
REMARK  status: ('A' for Active; 'I' for Inactive)
REMARK    1  A    between atoms: O1_2  and  C2_3
REMARK    2  A    between atoms: C4_5  and  S1_6
REMARK    3  A    between atoms: S1_6  and  N1_9
REMARK    4  A    between atoms: N1_9  and  C5_11
REMARK    5  A    between atoms: C14_26  and  O5_27
REMARK    6  A    between atoms: O5_27  and  C15_28
REMARK    7  A    between atoms: C15_28  and  C16_29
ROOT
HETATM    1  S1  UNL     1      -7.181   4.360 -16.610  1.00  0.00     0.265 S
HETATM    2  O2  UNL     1      -6.258   4.784 -17.740  1.00  0.00    -0.200 OA
HETATM    3  O3  UNL     1      -7.677   5.614 -15.947  1.00  0.00    -0.200 OA
ENDROOT
BRANCH   1   4
HETATM    4  C4  UNL     1      -6.303   3.360 -15.473  1.00  0.00     0.084 A
HETATM    5  C3  UNL     1      -6.941   2.461 -14.646  1.00  0.00     0.065 A
HETATM    6  C2  UNL     1      -6.237   1.686 -13.763  1.00  0.00     0.104 A
HETATM    7  C14 UNL     1      -4.875   1.801 -13.691  1.00  0.00     0.120 A
HETATM    8  C13 UNL     1      -4.182   2.689 -14.500  1.00  0.00     0.048 A
HETATM    9  C12 UNL     1      -4.922   3.445 -15.370  1.00  0.00     0.047 A
HETATM   10 BR1  UNL     1      -2.301   2.847 -14.403  1.00  0.00    -0.048 Br
BRANCH   6  11
HETATM   11  O1  UNL     1      -6.852   0.766 -12.910  1.00  0.00    -0.353 OA
HETATM   12  C1  UNL     1      -7.771  -0.149 -13.482  1.00  0.00     0.210 C
ENDBRANCH   6  11
BRANCH   7  13
HETATM   13  O5  UNL     1      -4.117   1.038 -12.812  1.00  0.00    -0.337 OA
BRANCH  13  14
HETATM   14  C15 UNL     1      -4.074  -0.361 -13.041  1.00  0.00     0.288 C
BRANCH  14  15
HETATM   15  C16 UNL     1      -4.076  -1.092 -11.754  1.00  0.00     0.198 C
HETATM   16  O6  UNL     1      -5.058  -1.048 -10.989  1.00  0.00    -0.646 OA
HETATM   17  O7  UNL     1      -2.945  -1.828 -11.424  1.00  0.00    -0.646 OA
ENDBRANCH  14  15
ENDBRANCH  13  14
ENDBRANCH   7  13
ENDBRANCH   1   4
BRANCH   1  18
HETATM   18  N1  UNL     1      -8.441   3.443 -17.299  1.00  0.00    -0.245 N
ATOM     19  H1  UNL     1      -8.290   3.066 -18.234  1.00  0.00     0.182 HD
BRANCH  18  20
HETATM   20  C5  UNL     1      -9.558   3.190 -16.736  1.00  0.00     0.239 A
HETATM   21  N2  UNL     1     -10.403   2.208 -17.066  1.00  0.00    -0.319 N
HETATM   22  C6  UNL     1     -11.484   2.268 -16.232  1.00  0.00     0.071 A
ATOM     23  H2  UNL     1     -10.265   1.528 -17.814  1.00  0.00     0.169 HD
HETATM   24  C7  UNL     1     -12.629   1.511 -16.129  1.00  0.00     0.058 A
HETATM   25  C11 UNL     1     -11.214   3.338 -15.405  1.00  0.00     0.107 A
HETATM   26  C8  UNL     1     -13.542   1.848 -15.151  1.00  0.00     0.058 A
HETATM   27 CL1  UNL     1     -15.004   0.918 -14.987  1.00  0.00    -0.082 Cl
HETATM   28  C9  UNL     1     -13.314   2.907 -14.306  1.00  0.00     0.058 A
HETATM   29 CL2  UNL     1     -14.481   3.336 -13.058  1.00  0.00    -0.082 Cl
HETATM   30  C10 UNL     1     -12.165   3.630 -14.444  1.00  0.00     0.065 A
HETATM   31  O4  UNL     1     -10.061   3.860 -15.737  1.00  0.00    -0.277 OA
ENDBRANCH  18  20
ENDBRANCH   1  18
TORSDOF 7
ENDMDL