MODEL 3
REMARK VINA RESULT: -9.046232332      0.785      1.659
REMARK  7 active torsions:
REMARK  status: ('A' for Active; 'I' for Inactive)
REMARK    1  A    between atoms: C2_3  and  C3_4
REMARK    2  A    between atoms: C3_4  and  N2_5
REMARK    3  A    between atoms: C6_8  and  N3_9
REMARK    4  A    between atoms: C7_12  and  N5_13
REMARK    5  A    between atoms: N5_13  and  C8_15
REMARK    6  A    between atoms: C14_24  and  C15_25
REMARK    7  A    between atoms: C16_28  and  C17_29
ROOT
HETATM    1  N1  UNL     1      -5.991  10.731 -16.170  1.00  0.00    -0.197 NA
HETATM    2  C1  UNL     1      -5.641  10.043 -17.041  1.00  0.00     0.060 C
HETATM    3  C2  UNL     1      -5.196   9.166 -18.124  1.00  0.00     0.154 C
ENDROOT
BRANCH   3   4
HETATM    4  C3  UNL     1      -5.961   7.859 -18.160  1.00  0.00     0.286 C
BRANCH   4   5
HETATM    5  N2  UNL     1      -5.882   7.288 -16.823  1.00  0.00     0.089 N
HETATM    6  C4  UNL     1      -6.954   6.388 -16.532  1.00  0.00     0.274 C
HETATM    7  C5  UNL     1      -6.671   5.010 -16.991  1.00  0.00     0.057 C
HETATM    8  C6  UNL     1      -5.397   4.395 -16.364  1.00  0.00     0.111 C
HETATM    9  C22 UNL     1      -4.744   5.584 -15.627  1.00  0.00     0.057 C
HETATM   10  C23 UNL     1      -4.562   6.729 -16.640  1.00  0.00     0.274 C
BRANCH   8  11
HETATM   11  N3  UNL     1      -5.755   3.365 -15.440  1.00  0.00    -0.288 N
HETATM   12  N4  UNL     1      -7.071   3.064 -15.309  1.00  0.00    -0.282 N
HETATM   13  C7  UNL     1      -7.208   2.053 -14.463  1.00  0.00     0.138 A
ATOM     14  H4  UNL     1      -7.836   3.541 -15.787  1.00  0.00     0.189 HD
HETATM   15  C14 UNL     1      -5.916   1.691 -14.034  1.00  0.00     0.099 A
HETATM   16  C16 UNL     1      -5.018   2.558 -14.682  1.00  0.00     0.052 A
BRANCH  13  17
HETATM   17  N5  UNL     1      -8.264   1.462 -14.029  1.00  0.00    -0.336 N
ATOM     18  H5  UNL     1      -8.191   1.006 -13.119  1.00  0.00     0.168 HD
BRANCH  17  19
HETATM   19  C8  UNL     1      -9.500   1.378 -14.673  1.00  0.00     0.112 A
HETATM   20  C9  UNL     1     -10.510   2.283 -14.444  1.00  0.00     0.147 A
HETATM   21  F1  UNL     1     -10.294   3.281 -13.568  1.00  0.00    -0.204 F
HETATM   22  C10 UNL     1     -11.712   2.126 -15.129  1.00  0.00     0.064 A
HETATM   23  C11 UNL     1     -11.897   1.081 -16.029  1.00  0.00     0.017 A
HETATM   24 BR1  UNL     1     -13.562   0.947 -16.910  1.00  0.00    -0.051 Br
HETATM   25  C12 UNL     1     -10.888   0.169 -16.265  1.00  0.00     0.064 A
HETATM   26  C13 UNL     1      -9.703   0.341 -15.576  1.00  0.00     0.147 A
HETATM   27  F2  UNL     1      -8.700  -0.525 -15.779  1.00  0.00    -0.204 F
ENDBRANCH  17  19
ENDBRANCH  13  17
BRANCH  15  28
HETATM   28  C15 UNL     1      -5.641   0.622 -13.098  1.00  0.00     0.270 C
HETATM   29  N6  UNL     1      -6.276  -0.671 -13.265  1.00  0.00    -0.057 NA
HETATM   30  O1  UNL     1      -4.888   0.721 -12.140  1.00  0.00    -0.271 OA
ENDBRANCH  15  28
BRANCH  16  31
HETATM   31  C17 UNL     1      -3.564   2.451 -14.539  1.00  0.00     0.038 C
HETATM   32  C18 UNL     1      -2.791   3.543 -13.936  1.00  0.00     0.011 C
HETATM   33  C19 UNL     1      -1.829   4.029 -15.032  1.00  0.00     0.001 C
HETATM   34  C20 UNL     1      -1.488   2.640 -15.642  1.00  0.00     0.001 C
HETATM   35  C21 UNL     1      -2.908   2.206 -15.905  1.00  0.00     0.011 C
ENDBRANCH  16  31
ENDBRANCH   8  11
ENDBRANCH   4   5
ENDBRANCH   3   4
TORSDOF 7
ENDMDL