MODEL 5
REMARK VINA RESULT: -8.142448578      2.941      3.900
REMARK  11 active torsions:
REMARK  status: ('A' for Active; 'I' for Inactive)
REMARK    1  A    between atoms: C3_5  and  N2_6
REMARK    2  A    between atoms: N2_6  and  C4_8
REMARK    3  A    between atoms: C4_8  and  O1_9
REMARK    4  A    between atoms: C4_8  and  C5_11
REMARK    5  A    between atoms: C8_15  and  S1_16
REMARK    6  A    between atoms: S1_16  and  C9_17
REMARK    7  A    between atoms: C9_17  and  C10_18
REMARK    8  A    between atoms: C10_18  and  O2_19
REMARK    9  A    between atoms: C10_18  and  C11_21
REMARK   10  A    between atoms: C11_21  and  N3_22
REMARK   11  A    between atoms: N4_28  and  C16_29
ROOT
HETATM    1  C5  UNL     1     -11.233   0.378 -16.558  1.00  0.00     0.109 A
HETATM    2  C6  UNL     1     -10.418  -0.753 -16.803  1.00  0.00     0.068 A
HETATM    3 CL1  UNL     1     -10.751  -2.119 -17.884  1.00  0.00    -0.082 Cl
HETATM    4  C7  UNL     1      -9.294  -0.638 -16.055  1.00  0.00     0.063 A
HETATM    5  C8  UNL     1      -9.358   0.531 -15.336  1.00  0.00     0.075 A
HETATM    6  N4  UNL     1     -10.551   1.124 -15.662  1.00  0.00    -0.328 N
ENDROOT
BRANCH   1   7
HETATM    7  C4  UNL     1     -12.486   0.530 -17.260  1.00  0.00     0.171 C
BRANCH   7   8
HETATM    8  N2  UNL     1     -13.728  -0.059 -17.138  1.00  0.00    -0.321 N
ATOM      9  H2  UNL     1     -14.319   0.278 -16.379  1.00  0.00     0.169 HD
BRANCH   8  10
HETATM   10  C3  UNL     1     -14.211  -0.969 -17.866  1.00  0.00     0.116 A
HETATM   11  N1  UNL     1     -13.736  -1.239 -19.085  1.00  0.00    -0.344 N
HETATM   12  C2  UNL     1     -14.260  -2.206 -19.893  1.00  0.00     0.032 A
ATOM     13  H1  UNL     1     -12.945  -0.695 -19.428  1.00  0.00     0.167 HD
HETATM   14  C1  UNL     1     -13.709  -2.485 -21.229  1.00  0.00     0.070 C
HETATM   15  C23 UNL     1     -15.336  -2.947 -19.434  1.00  0.00     0.095 A
HETATM   16  C22 UNL     1     -15.851  -2.694 -18.175  1.00  0.00     0.149 A
HETATM   17 CL2  UNL     1     -16.001  -4.176 -20.471  1.00  0.00    -0.079 Cl
HETATM   18  C20 UNL     1     -15.288  -1.707 -17.395  1.00  0.00     0.022 A
HETATM   19  F1  UNL     1     -16.918  -3.436 -17.735  1.00  0.00    -0.204 F
HETATM   20  C21 UNL     1     -15.820  -1.405 -16.056  1.00  0.00     0.056 C
ENDBRANCH   8  10
ENDBRANCH   7   8
BRANCH   7  21
HETATM   21  O1  UNL     1     -12.458   1.432 -18.237  1.00  0.00    -0.344 OA
ATOM     22  H1  UNL     1     -11.663   1.951 -18.218  1.00  0.00     0.219 HD
ENDBRANCH   7  21
ENDBRANCH   1   7
BRANCH   6  23
HETATM   23  C16 UNL     1     -11.031   2.339 -15.092  1.00  0.00     0.027 C
HETATM   24  C17 UNL     1     -10.532   2.566 -13.688  1.00  0.00     0.038 C
HETATM   25  C18 UNL     1     -12.545   2.463 -14.975  1.00  0.00     0.038 C
HETATM   26  C19 UNL     1     -10.620   3.488 -16.029  1.00  0.00     0.038 C
ENDBRANCH   6  23
BRANCH   5  27
HETATM   27  S1  UNL     1      -8.116   1.132 -14.207  1.00  0.00    -0.110 SA
BRANCH  27  28
HETATM   28  C9  UNL     1      -7.368  -0.084 -13.182  1.00  0.00     0.114 C
BRANCH  28  29
HETATM   29  C10 UNL     1      -5.873  -0.006 -12.949  1.00  0.00     0.156 C
BRANCH  29  30
HETATM   30  O2  UNL     1      -5.471  -0.468 -11.767  1.00  0.00    -0.393 OA
ATOM     31  H2  UNL     1      -4.700  -0.038 -11.415  1.00  0.00     0.210 HD
ENDBRANCH  29  30
BRANCH  29  32
HETATM   32  C11 UNL     1      -5.263   1.174 -13.591  1.00  0.00     0.305 C
BRANCH  32  33
HETATM   33  N3  UNL     1      -3.894   1.519 -13.297  1.00  0.00     0.095 N
HETATM   34  C12 UNL     1      -3.757   2.964 -13.250  1.00  0.00     0.298 C
HETATM   35  C13 UNL     1      -2.608   3.580 -13.917  1.00  0.00     0.198 C
HETATM   36  O3  UNL     1      -1.493   2.711 -14.007  1.00  0.00    -0.388 OA
HETATM   37  C14 UNL     1      -1.950   1.720 -14.870  1.00  0.00     0.198 C
HETATM   38  C15 UNL     1      -2.961   0.889 -14.186  1.00  0.00     0.298 C
ENDBRANCH  32  33
ENDBRANCH  29  32
ENDBRANCH  28  29
ENDBRANCH  27  28
ENDBRANCH   5  27
TORSDOF 11
ENDMDL