MODEL 3
REMARK VINA RESULT: -10.399327316      4.203      6.600
REMARK  6 active torsions:
REMARK  status: ('A' for Active; 'I' for Inactive)
REMARK    1  A    between atoms: S1_2  and  C2_5
REMARK    2  A    between atoms: C2_5  and  C3_6
REMARK    3  A    between atoms: C3_6  and  C4_7
REMARK    4  A    between atoms: C4_7  and  N1_8
REMARK    5  A    between atoms: C7_16  and  S2_17
REMARK    6  A    between atoms: S2_17  and  C8_20
ROOT
HETATM    1  S2  UNL     1      -7.924   5.410 -16.536  1.00  0.00     0.226 S
HETATM    2  O3  UNL     1      -9.409   5.781 -16.256  1.00  0.00    -0.216 OA
HETATM    3  O4  UNL     1      -7.506   6.751 -16.003  1.00  0.00    -0.216 OA
ENDROOT
BRANCH   1   4
HETATM    4  C7  UNL     1      -7.895   5.350 -18.285  1.00  0.00     0.154 A
HETATM    5  N1  UNL     1      -8.051   6.268 -19.227  1.00  0.00    -0.280 N
HETATM    6  N2  UNL     1      -7.901   5.757 -20.472  1.00  0.00    -0.283 N
HETATM    7  C5  UNL     1      -7.637   4.460 -20.351  1.00  0.00     0.116 A
ATOM      8  H2  UNL     1      -7.977   6.275 -21.347  1.00  0.00     0.189 HD
HETATM    9  N3  UNL     1      -7.439   3.680 -21.361  1.00  0.00    -0.384 N
HETATM   10  C6  UNL     1      -7.623   4.174 -19.042  1.00  0.00     0.093 A
ATOM     11  H32 UNL     1      -7.449   3.899 -22.358  1.00  0.00     0.157 HD
ATOM     12  H31 UNL     1      -7.236   2.685 -21.269  1.00  0.00     0.157 HD
BRANCH   5  13
HETATM   13  C4  UNL     1      -8.329   7.718 -19.070  1.00  0.00     0.151 C
BRANCH  13  14
HETATM   14  C3  UNL     1      -7.065   8.454 -19.366  1.00  0.00     0.037 C
BRANCH  14  15
HETATM   15  C2  UNL     1      -6.806   9.649 -18.537  1.00  0.00     0.141 C
BRANCH  15  16
HETATM   16  S1  UNL     1      -5.307   9.646 -17.663  1.00  0.00     0.140 S
HETATM   17  C1  UNL     1      -5.327  10.473 -16.110  1.00  0.00     0.161 C
HETATM   18  O1  UNL     1      -4.171  10.193 -18.525  1.00  0.00    -0.228 OA
HETATM   19  O2  UNL     1      -4.888   8.208 -17.379  1.00  0.00    -0.228 OA
ENDBRANCH  15  16
ENDBRANCH  14  15
ENDBRANCH  13  14
ENDBRANCH   5  13
ENDBRANCH   1   4
BRANCH   1  20
HETATM   20  C8  UNL     1      -7.686   4.023 -15.622  1.00  0.00     0.101 A
HETATM   21  C9  UNL     1      -8.755   3.296 -15.025  1.00  0.00     0.058 A
HETATM   22 CL1  UNL     1     -10.364   3.983 -15.183  1.00  0.00    -0.083 Cl
HETATM   23  C10 UNL     1      -8.630   2.157 -14.315  1.00  0.00     0.050 A
HETATM   24  C11 UNL     1      -7.413   1.614 -14.121  1.00  0.00     0.046 A
HETATM   25 CL2  UNL     1      -7.224   0.152 -13.216  1.00  0.00    -0.083 Cl
HETATM   26  C12 UNL     1      -6.311   2.234 -14.650  1.00  0.00     0.001 A
HETATM   27  C13 UNL     1      -5.039   1.680 -14.435  1.00  0.00     0.022 A
HETATM   28  C17 UNL     1      -6.476   3.401 -15.373  1.00  0.00     0.039 A
HETATM   29  C14 UNL     1      -3.906   2.281 -14.936  1.00  0.00    -0.048 A
HETATM   30  C15 UNL     1      -4.047   3.445 -15.656  1.00  0.00    -0.012 A
HETATM   31  C21 UNL     1      -2.601   1.640 -14.670  1.00  0.00     0.039 C
HETATM   32  C16 UNL     1      -5.334   3.969 -15.850  1.00  0.00     0.136 A
HETATM   33  C18 UNL     1      -2.861   4.132 -16.215  1.00  0.00     0.042 C
HETATM   34  F1  UNL     1      -5.381   5.092 -16.516  1.00  0.00    -0.205 F
HETATM   35  C19 UNL     1      -1.710   3.884 -15.232  1.00  0.00     0.005 C
HETATM   36  C20 UNL     1      -1.444   2.404 -15.237  1.00  0.00     0.005 C
ENDBRANCH   1  20
TORSDOF 6
ENDMDL