MODEL 3
REMARK VINA RESULT: -8.551268113      4.348      6.355
REMARK  9 active torsions:
REMARK  status: ('A' for Active; 'I' for Inactive)
REMARK    1  A    between atoms: N2_5  and  C4_6
REMARK    2  A    between atoms: C7_9  and  N3_10
REMARK    3  A    between atoms: N3_10  and  C8_12
REMARK    4  A    between atoms: C10_18  and  N6_19
REMARK    5  A    between atoms: N6_19  and  C11_21
REMARK    6  A    between atoms: N7_24  and  C14_25
REMARK    7  A    between atoms: C14_25  and  C15_26
REMARK    8  A    between atoms: C15_26  and  C16_27
REMARK    9  A    between atoms: C19_30  and  C20_31
ROOT
HETATM    1  C8  UNL     1     -10.065   4.493 -15.269  1.00  0.00     0.679 A
HETATM    2  N4  UNL     1      -9.623   5.741 -15.522  1.00  0.00    -0.174 N
ATOM      3  H4  UNL     1     -10.264   6.523 -15.390  1.00  0.00     0.186 HD
HETATM    4  C9  UNL     1      -8.360   5.998 -15.945  1.00  0.00     0.165 A
HETATM    5  N5  UNL     1      -7.696   7.124 -16.257  1.00  0.00    -0.174 N
ATOM      6  H5  UNL     1      -8.076   8.070 -16.223  1.00  0.00     0.186 HD
HETATM    7  C10 UNL     1      -6.452   6.794 -16.620  1.00  0.00     0.682 A
HETATM    8  N7  UNL     1      -6.327   5.479 -16.539  1.00  0.00    -0.178 N
HETATM    9  C22 UNL     1      -7.485   4.959 -16.126  1.00  0.00     0.112 A
HETATM   10  C23 UNL     1      -7.946   3.678 -15.863  1.00  0.00     0.140 A
HETATM   11  N8  UNL     1      -9.217   3.471 -15.443  1.00  0.00    -0.200 N
ATOM     12  H8  UNL     1      -9.533   2.520 -15.255  1.00  0.00     0.183 HD
ENDROOT
BRANCH   1  13
HETATM   13  N3  UNL     1     -11.244   4.289 -14.875  1.00  0.00    -0.221 N
ATOM     14  H3  UNL     1     -11.668   5.047 -14.339  1.00  0.00     0.178 HD
BRANCH  13  15
HETATM   15  C7  UNL     1     -12.075   3.134 -15.078  1.00  0.00     0.099 C
HETATM   16  C6  UNL     1     -12.850   2.908 -13.796  1.00  0.00     0.028 C
HETATM   17  C5  UNL     1     -14.289   3.266 -13.973  1.00  0.00     0.027 C
HETATM   18  C4  UNL     1     -14.979   2.471 -15.066  1.00  0.00     0.079 C
HETATM   19  C25 UNL     1     -14.158   2.448 -16.318  1.00  0.00     0.027 C
HETATM   20  C24 UNL     1     -12.963   3.389 -16.253  1.00  0.00     0.028 C
BRANCH  18  21
HETATM   21  N2  UNL     1     -15.498   1.223 -14.655  1.00  0.00    -0.405 N
HETATM   22  C3  UNL     1     -15.822   0.360 -15.754  1.00  0.00     0.147 C
HETATM   23  C2  UNL     1     -16.110  -1.050 -15.288  1.00  0.00     0.291 C
HETATM   24  N1  UNL     1     -16.923  -1.088 -14.113  1.00  0.00     0.087 N
HETATM   25  C1  UNL     1     -17.238  -2.407 -13.664  1.00  0.00     0.310 C
HETATM   26  C27 UNL     1     -16.309  -0.304 -13.035  1.00  0.00     0.291 C
HETATM   27  C26 UNL     1     -16.355   1.143 -13.552  1.00  0.00     0.147 C
ENDBRANCH  18  21
ENDBRANCH  13  15
ENDBRANCH   1  13
BRANCH   7  28
HETATM   28  N6  UNL     1      -5.585   7.676 -16.985  1.00  0.00    -0.221 N
ATOM     29  H6  UNL     1      -4.604   7.494 -16.774  1.00  0.00     0.178 HD
BRANCH  28  30
HETATM   30  C11 UNL     1      -5.904   8.889 -17.666  1.00  0.00     0.099 A
HETATM   31  C12 UNL     1      -4.808   9.364 -18.646  1.00  0.00     0.028 A
HETATM   32  C13 UNL     1      -6.134   8.925 -19.133  1.00  0.00     0.028 A
ENDBRANCH  28  30
ENDBRANCH   7  28
BRANCH   8  33
HETATM   33  C14 UNL     1      -5.169   4.648 -16.809  1.00  0.00     0.148 C
BRANCH  33  34
HETATM   34  C15 UNL     1      -4.047   4.778 -15.856  1.00  0.00     0.025 C
BRANCH  34  35
HETATM   35  C16 UNL     1      -2.907   3.853 -15.945  1.00  0.00    -0.012 C
HETATM   36  C17 UNL     1      -2.235   3.848 -14.562  1.00  0.00     0.005 C
HETATM   37  C18 UNL     1      -3.126   2.943 -13.773  1.00  0.00     0.014 C
HETATM   38  C19 UNL     1      -3.387   1.802 -14.709  1.00  0.00     0.094 C
HETATM   39  C21 UNL     1      -3.270   2.398 -16.063  1.00  0.00     0.018 C
BRANCH  38  40
HETATM   40  C20 UNL     1      -2.455   0.636 -14.464  1.00  0.00     0.391 C
HETATM   41  F1  UNL     1      -1.145   0.988 -14.364  1.00  0.00    -0.171 F
HETATM   42  F2  UNL     1      -2.863   0.037 -13.273  1.00  0.00    -0.171 F
HETATM   43  F3  UNL     1      -2.587  -0.322 -15.448  1.00  0.00    -0.171 F
ENDBRANCH  38  40
ENDBRANCH  34  35
ENDBRANCH  33  34
ENDBRANCH   8  33
TORSDOF 9
ENDMDL