MODEL 1
REMARK VINA RESULT: -8.421037307      0.000      0.000
REMARK  13 active torsions:
REMARK  status: ('A' for Active; 'I' for Inactive)
REMARK    1  A    between atoms: C2_2  and  C4_4
REMARK    2  A    between atoms: C2_2  and  O4_39
REMARK    3  A    between atoms: C4_4  and  N1_5
REMARK    4  A    between atoms: N1_5  and  C5_8
REMARK    5  A    between atoms: C7_10  and  C8_11
REMARK    6  A    between atoms: C9_12  and  C10_13
REMARK    7  A    between atoms: C10_13  and  C11_14
REMARK    8  A    between atoms: C11_14  and  C12_15
REMARK    9  A    between atoms: C16_22  and  C17_23
REMARK   10  A    between atoms: C17_23  and  O1_24
REMARK   11  A    between atoms: C17_23  and  N2_26
REMARK   12  A    between atoms: C20_29  and  O2_30
REMARK   13  A    between atoms: O4_39  and  C27_40
ROOT
HETATM    1  C27 UNL     1      -8.531   0.987 -14.325  1.00  0.00     0.292 C
HETATM    2  C28 UNL     1      -7.510   0.239 -13.599  1.00  0.00     0.085 C
HETATM    3  N3  UNL     1      -6.697  -0.369 -13.042  1.00  0.00    -0.195 NA
ENDROOT
BRANCH   1   4
HETATM    4  O4  UNL     1      -9.567   1.453 -13.590  1.00  0.00    -0.366 OA
BRANCH   4   5
HETATM    5  C2  UNL     1     -10.224   2.571 -13.966  1.00  0.00     0.078 C
HETATM    6  C1  UNL     1     -11.004   2.188 -15.242  1.00  0.00     0.047 C
HETATM    7  C3  UNL     1     -11.251   3.119 -13.029  1.00  0.00     0.047 C
BRANCH   5   8
HETATM    8  C4  UNL     1      -9.330   3.720 -14.382  1.00  0.00     0.269 C
BRANCH   8   9
HETATM    9  N1  UNL     1     -10.016   4.675 -15.206  1.00  0.00    -0.068 N
ATOM     10  H12 UNL     1     -10.913   4.311 -15.525  1.00  0.00     0.277 HD
ATOM     11  H11 UNL     1     -10.349   5.466 -14.656  1.00  0.00     0.277 HD
BRANCH   9  12
HETATM   12  C5  UNL     1      -9.197   5.116 -16.323  1.00  0.00     0.194 C
HETATM   13  C6  UNL     1      -7.769   4.975 -15.943  1.00  0.00     0.085 C
HETATM   14  C7  UNL     1      -6.829   5.609 -16.945  1.00  0.00     0.127 C
HETATM   15  C13 UNL     1      -7.314   5.477 -18.332  1.00  0.00     0.056 C
HETATM   16  O3  UNL     1      -6.384   6.840 -16.581  1.00  0.00    -0.358 OA
HETATM   17  C14 UNL     1      -8.288   6.406 -18.894  1.00  0.00    -0.006 C
HETATM   18  C15 UNL     1      -7.669   7.604 -19.657  1.00  0.00     0.047 C
HETATM   19  C26 UNL     1      -9.497   6.785 -18.154  1.00  0.00     0.011 C
HETATM   20  C16 UNL     1      -7.346   8.734 -18.750  1.00  0.00    -0.008 C
HETATM   21  C22 UNL     1      -7.190   8.811 -17.409  1.00  0.00     0.016 C
HETATM   22  C23 UNL     1      -7.271   7.820 -16.315  1.00  0.00     0.147 C
HETATM   23  C24 UNL     1      -8.638   7.550 -15.929  1.00  0.00     0.042 C
HETATM   24  C25 UNL     1      -9.461   6.580 -16.668  1.00  0.00     0.019 C
BRANCH  14  25
HETATM   25  C8  UNL     1      -5.606   4.747 -16.865  1.00  0.00    -0.068 C
HETATM   26  C9  UNL     1      -4.621   4.031 -16.812  1.00  0.00    -0.103 C
BRANCH  26  27
HETATM   27  C10 UNL     1      -3.434   3.194 -16.763  1.00  0.00     0.103 C
BRANCH  27  28
HETATM   28  C11 UNL     1      -3.166   2.776 -15.326  1.00  0.00     0.129 C
BRANCH  28  29
HETATM   29  C12 UNL     1      -1.993   3.514 -14.747  1.00  0.00     0.388 C
HETATM   30  F1  UNL     1      -2.510   4.390 -13.788  1.00  0.00    -0.171 F
HETATM   31  F2  UNL     1      -1.397   4.243 -15.783  1.00  0.00    -0.171 F
HETATM   32  F3  UNL     1      -1.105   2.688 -14.124  1.00  0.00    -0.171 F
ENDBRANCH  28  29
ENDBRANCH  27  28
ENDBRANCH  26  27
ENDBRANCH  14  25
BRANCH  20  33
HETATM   33  C17 UNL     1      -7.149  10.014 -19.376  1.00  0.00     0.144 C
BRANCH  33  34
HETATM   34  O1  UNL     1      -8.200  10.790 -19.412  1.00  0.00    -0.346 OA
ATOM     35  H1  UNL     1      -8.326  11.343 -18.649  1.00  0.00     0.219 HD
ENDBRANCH  33  34
BRANCH  33  36
HETATM   36  N2  UNL     1      -6.014  10.571 -19.952  1.00  0.00    -0.359 N
HETATM   37  C18 UNL     1      -5.729  11.059 -21.249  1.00  0.00     0.127 C
HETATM   38  C19 UNL     1      -4.214  11.129 -21.423  1.00  0.00     0.053 C
HETATM   39  C20 UNL     1      -3.653  10.651 -20.101  1.00  0.00     0.137 C
HETATM   40  C21 UNL     1      -4.776  10.751 -19.116  1.00  0.00     0.156 C
BRANCH  39  41
HETATM   41  O2  UNL     1      -3.203   9.345 -20.249  1.00  0.00    -0.394 OA
ATOM     42  H2  UNL     1      -3.912   8.812 -20.590  1.00  0.00     0.210 HD
ENDBRANCH  39  41
ENDBRANCH  33  36
ENDBRANCH  20  33
ENDBRANCH   9  12
ENDBRANCH   8   9
ENDBRANCH   5   8
ENDBRANCH   4   5
ENDBRANCH   1   4
TORSDOF 13
ENDMDL