MODEL 3
REMARK VINA RESULT: -7.616852292      2.907      4.608
REMARK  10 active torsions:
REMARK  status: ('A' for Active; 'I' for Inactive)
REMARK    1  A    between atoms: C2_2  and  O1_4
REMARK    2  A    between atoms: O1_4  and  C4_5
REMARK    3  A    between atoms: C4_5  and  C5_6
REMARK    4  A    between atoms: C4_5  and  C26_36
REMARK    5  A    between atoms: C5_6  and  C6_7
REMARK    6  A    between atoms: C5_6  and  N1_29
REMARK    7  A    between atoms: C6_7  and  C7_8
REMARK    8  A    between atoms: C13_14  and  O2_15
REMARK    9  A    between atoms: C18_21  and  O3_22
REMARK   10  A    between atoms: O3_22  and  C19_23
REMARK       I    between atoms: N1_29  and  C23_31
REMARK       I    between atoms: C23_31  and  N2_33
ROOT
HETATM    1  C7  UNL     1     -10.017   2.142 -14.781  1.00  0.00     0.017 C
HETATM    2  C8  UNL     1      -9.852   1.038 -15.791  1.00  0.00     0.010 C
HETATM    3  C9  UNL     1     -11.298   0.705 -16.097  1.00  0.00     0.011 C
HETATM    4  C10 UNL     1     -12.030   2.044 -16.095  1.00  0.00    -0.026 C
HETATM    5  C11 UNL     1     -12.385   2.345 -17.516  1.00  0.00     0.016 C
HETATM    6  C12 UNL     1     -10.979   2.996 -15.594  1.00  0.00     0.031 C
HETATM    7  C13 UNL     1     -11.472   4.212 -14.947  1.00  0.00     0.124 C
HETATM    8  C14 UNL     1     -12.642   4.040 -14.019  1.00  0.00     0.042 C
HETATM    9  C15 UNL     1     -13.723   3.242 -14.634  1.00  0.00    -0.028 C
HETATM   10  C16 UNL     1     -14.604   3.933 -15.607  1.00  0.00     0.016 C
HETATM   11  C17 UNL     1     -14.669   2.625 -13.584  1.00  0.00     0.050 C
HETATM   12  C18 UNL     1     -15.357   1.581 -14.468  1.00  0.00     0.202 C
HETATM   13  C21 UNL     1     -14.336   1.215 -15.525  1.00  0.00     0.161 C
HETATM   14  O5  UNL     1     -14.606   0.471 -16.427  1.00  0.00    -0.295 OA
HETATM   15  C22 UNL     1     -13.127   1.948 -15.139  1.00  0.00     0.075 C
ENDROOT
BRANCH   1  16
HETATM   16  C6  UNL     1      -8.840   2.895 -14.408  1.00  0.00     0.006 C
BRANCH  16  17
HETATM   17  C5  UNL     1      -7.576   2.904 -15.175  1.00  0.00     0.048 C
BRANCH  17  18
HETATM   18  C4  UNL     1      -7.352   3.942 -16.201  1.00  0.00     0.285 C
BRANCH  18  19
HETATM   19  O1  UNL     1      -5.975   4.048 -16.451  1.00  0.00    -0.336 OA
BRANCH  19  20
HETATM   20  C2  UNL     1      -5.158   5.121 -16.333  1.00  0.00     0.034 C
HETATM   21  C1  UNL     1      -3.917   4.984 -15.889  1.00  0.00     0.045 C
HETATM   22  C3  UNL     1      -5.577   6.524 -16.687  1.00  0.00     0.075 C
ENDBRANCH  19  20
ENDBRANCH  18  19
BRANCH  18  23
HETATM   23  C26 UNL     1      -8.121   4.047 -17.432  1.00  0.00     0.419 C
HETATM   24  F1  UNL     1      -8.725   2.911 -17.918  1.00  0.00    -0.168 F
HETATM   25  F2  UNL     1      -9.013   5.124 -17.453  1.00  0.00    -0.168 F
HETATM   26  F3  UNL     1      -7.227   4.411 -18.451  1.00  0.00    -0.168 F
ENDBRANCH  18  23
ENDBRANCH  17  18
BRANCH  17  27
HETATM   27  N1  UNL     1      -6.408   2.568 -14.393  1.00  0.00    -0.310 N
HETATM   28  C23 UNL     1      -6.167   1.306 -13.805  1.00  0.00     0.322 C
HETATM   29  O6  UNL     1      -7.068   0.419 -13.996  1.00  0.00    -0.247 OA
HETATM   30  N2  UNL     1      -5.033   0.988 -13.048  1.00  0.00    -0.343 N
HETATM   31  C24 UNL     1      -4.012   1.990 -12.832  1.00  0.00     0.154 C
HETATM   32  C25 UNL     1      -4.860  -0.316 -12.483  1.00  0.00     0.154 C
ATOM     33  H1  UNL     1      -5.707   3.295 -14.255  1.00  0.00     0.170 HD
ENDBRANCH  17  27
ENDBRANCH  16  17
ENDBRANCH   1  16
BRANCH   7  34
HETATM   34  O2  UNL     1     -11.771   5.157 -15.965  1.00  0.00    -0.395 OA
ATOM     35  H2  UNL     1     -11.393   5.990 -15.710  1.00  0.00     0.210 HD
ENDBRANCH   7  34
BRANCH  12  36
HETATM   36  O3  UNL     1     -15.616   0.388 -13.757  1.00  0.00    -0.309 OA
BRANCH  36  37
HETATM   37  C19 UNL     1     -16.615   0.329 -12.788  1.00  0.00     0.255 C
HETATM   38  C20 UNL     1     -16.881  -0.981 -12.115  1.00  0.00     0.126 C
HETATM   39  O4  UNL     1     -17.238   1.374 -12.533  1.00  0.00    -0.266 OA
ENDBRANCH  36  37
ENDBRANCH  12  36
TORSDOF 10
ENDMDL