MODEL 2
REMARK VINA RESULT: -8.585562132      3.989      6.291
REMARK  7 active torsions:
REMARK  status: ('A' for Active; 'I' for Inactive)
REMARK    1  A    between atoms: O1_2  and  C2_3
REMARK    2  A    between atoms: C2_3  and  C3_5
REMARK    3  A    between atoms: C3_5  and  O3_6
REMARK    4  A    between atoms: O3_6  and  C4_7
REMARK    5  A    between atoms: C11_17  and  N2_18
REMARK    6  A    between atoms: C12_20  and  S1_21
REMARK    7  A    between atoms: S1_21  and  C13_24
ROOT
HETATM    1  C4  UNL     1      -7.365  -0.037 -14.169  1.00  0.00     0.146 A
HETATM    2  C5  UNL     1      -8.325  -0.725 -14.857  1.00  0.00     0.086 A
HETATM    3  C6  UNL     1      -9.402  -0.050 -15.409  1.00  0.00     0.051 A
HETATM    4  N1  UNL     1     -10.462  -0.456 -16.113  1.00  0.00    -0.349 N
ATOM      5  H1  UNL     1     -10.672  -1.417 -16.386  1.00  0.00     0.166 HD
HETATM    6  C7  UNL     1     -11.201   0.627 -16.399  1.00  0.00     0.087 A
HETATM    7 BR1  UNL     1     -12.835   0.603 -17.396  1.00  0.00    -0.031 Br
HETATM    8  C8  UNL     1     -10.585   1.760 -15.854  1.00  0.00    -0.012 A
HETATM    9  C9  UNL     1     -11.129   3.098 -15.984  1.00  0.00     0.052 C
HETATM   10  C10 UNL     1      -9.442   1.295 -15.230  1.00  0.00     0.043 A
HETATM   11  C11 UNL     1      -8.476   2.053 -14.529  1.00  0.00     0.120 A
HETATM   12  N3  UNL     1      -7.461   1.305 -14.026  1.00  0.00    -0.322 N
ATOM     13  H3  UNL     1      -6.725   1.784 -13.506  1.00  0.00     0.169 HD
ENDROOT
BRANCH  11  14
HETATM   14  N2  UNL     1      -8.627   3.253 -14.441  1.00  0.00    -0.342 N
HETATM   15  C12 UNL     1      -8.501   4.494 -14.876  1.00  0.00     0.205 C
ATOM     16  H2  UNL     1      -9.115   3.363 -13.553  1.00  0.00     0.167 HD
BRANCH  15  17
HETATM   17  S1  UNL     1      -7.803   4.871 -16.468  1.00  0.00     0.211 S
HETATM   18  O4  UNL     1      -8.195   3.819 -17.468  1.00  0.00    -0.217 OA
HETATM   19  O5  UNL     1      -8.187   6.196 -16.995  1.00  0.00    -0.217 OA
BRANCH  17  20
HETATM   20  C13 UNL     1      -6.062   4.753 -16.286  1.00  0.00     0.066 A
HETATM   21  C14 UNL     1      -5.286   5.865 -16.409  1.00  0.00     0.025 A
HETATM   22  C15 UNL     1      -3.894   5.768 -16.263  1.00  0.00     0.027 A
HETATM   23  C16 UNL     1      -3.352   4.521 -15.994  1.00  0.00     0.055 A
HETATM   24 CL1  UNL     1      -1.611   4.373 -15.806  1.00  0.00    -0.083 Cl
HETATM   25  C17 UNL     1      -4.142   3.405 -15.872  1.00  0.00     0.057 A
HETATM   26 CL2  UNL     1      -3.468   1.828 -15.534  1.00  0.00    -0.083 Cl
HETATM   27  C18 UNL     1      -5.513   3.530 -16.021  1.00  0.00     0.049 A
ENDBRANCH  17  20
ENDBRANCH  15  17
ENDBRANCH  11  14
BRANCH   1  28
HETATM   28  O3  UNL     1      -6.261  -0.662 -13.593  1.00  0.00    -0.326 OA
BRANCH  28  29
HETATM   29  C3  UNL     1      -5.409   0.136 -12.793  1.00  0.00     0.288 C
BRANCH  29  30
HETATM   30  C2  UNL     1      -4.659  -0.722 -11.836  1.00  0.00     0.282 C
HETATM   31  O2  UNL     1      -5.214  -1.110 -10.793  1.00  0.00    -0.263 OA
BRANCH  30  32
HETATM   32  O1  UNL     1      -3.360  -1.082 -12.104  1.00  0.00    -0.325 OA
HETATM   33  C1  UNL     1      -2.748  -0.675 -13.312  1.00  0.00     0.213 C
ENDBRANCH  30  32
ENDBRANCH  29  30
ENDBRANCH  28  29
ENDBRANCH   1  28
TORSDOF 7
ENDMDL