MODEL 4
REMARK VINA RESULT: -8.136192055      2.834      3.965
REMARK  7 active torsions:
REMARK  status: ('A' for Active; 'I' for Inactive)
REMARK    1  A    between atoms: C7_8  and  C8_9
REMARK    2  A    between atoms: C8_9  and  O1_10
REMARK    3  A    between atoms: O1_10  and  C9_11
REMARK    4  A    between atoms: C14_18  and  C15_19
REMARK    5  A    between atoms: C15_19  and  N3_23
REMARK    6  A    between atoms: N4_26  and  C18_27
REMARK    7  A    between atoms: C22_34  and  C23_35
ROOT
HETATM    1  N1  UNL     1      -2.440   0.180 -14.793  1.00  0.00    -0.197 NA
HETATM    2  C1  UNL     1      -3.139   1.114 -14.832  1.00  0.00     0.064 C
HETATM    3  C2  UNL     1      -4.062   2.299 -14.886  1.00  0.00     0.099 C
HETATM    4  C3  UNL     1      -3.790   3.108 -13.642  1.00  0.00     0.020 C
HETATM    5  C4  UNL     1      -2.687   4.092 -13.786  1.00  0.00     0.001 C
HETATM    6  C5  UNL     1      -1.813   3.738 -14.940  1.00  0.00     0.001 C
HETATM    7  C6  UNL     1      -2.502   3.589 -16.244  1.00  0.00     0.008 C
HETATM    8  C7  UNL     1      -3.909   3.010 -16.163  1.00  0.00     0.028 C
ENDROOT
BRANCH   8   9
HETATM    9  C8  UNL     1      -4.857   4.108 -16.527  1.00  0.00     0.181 C
BRANCH   9  10
HETATM   10  O1  UNL     1      -6.055   4.265 -16.017  1.00  0.00    -0.350 OA
BRANCH  10  11
HETATM   11  C9  UNL     1      -7.260   3.797 -15.717  1.00  0.00     0.084 A
HETATM   12  C10 UNL     1      -7.520   2.633 -15.011  1.00  0.00     0.064 A
HETATM   13  C11 UNL     1      -8.796   2.243 -14.754  1.00  0.00     0.075 A
HETATM   14 CL1  UNL     1      -9.137   0.767 -13.856  1.00  0.00    -0.081 Cl
HETATM   15  C12 UNL     1      -9.893   2.996 -15.186  1.00  0.00     0.139 A
HETATM   16  F1  UNL     1     -11.157   2.599 -14.924  1.00  0.00    -0.204 F
HETATM   17  C13 UNL     1      -9.646   4.146 -15.884  1.00  0.00     0.062 A
HETATM   18  C14 UNL     1      -8.358   4.564 -16.160  1.00  0.00     0.044 A
BRANCH  18  19
HETATM   19  C15 UNL     1      -8.147   5.796 -16.910  1.00  0.00     0.110 C
HETATM   20  N2  UNL     1      -7.766   6.836 -16.285  1.00  0.00    -0.385 N
ATOM     21  H22 UNL     1      -7.616   6.787 -15.277  1.00  0.00     0.157 HD
ATOM     22  H21 UNL     1      -7.618   7.698 -16.810  1.00  0.00     0.157 HD
BRANCH  19  23
HETATM   23  N3  UNL     1      -8.357   5.864 -18.317  1.00  0.00    -0.364 N
HETATM   24  C16 UNL     1      -7.508   5.056 -19.147  1.00  0.00     0.144 C
HETATM   25  C17 UNL     1      -8.166   4.693 -20.457  1.00  0.00     0.143 C
HETATM   26  N4  UNL     1      -8.990   5.769 -20.996  1.00  0.00    -0.376 N
HETATM   27  C24 UNL     1     -10.013   6.291 -20.114  1.00  0.00     0.143 C
HETATM   28  C25 UNL     1      -9.398   6.723 -18.826  1.00  0.00     0.144 C
BRANCH  26  29
HETATM   29  C18 UNL     1      -8.757   6.270 -22.321  1.00  0.00     0.070 A
HETATM   30  C19 UNL     1      -7.877   7.336 -22.500  1.00  0.00     0.076 A
HETATM   31 CL2  UNL     1      -7.053   8.036 -21.149  1.00  0.00    -0.080 Cl
HETATM   32  C20 UNL     1      -7.612   7.875 -23.748  1.00  0.00     0.113 A
HETATM   33  N5  UNL     1      -8.203   7.377 -24.818  1.00  0.00    -0.372 N
HETATM   34  C21 UNL     1      -9.049   6.362 -24.686  1.00  0.00     0.106 A
ATOM     35  H5  UNL     1      -8.013   7.770 -25.740  1.00  0.00     0.164 HD
HETATM   36  C22 UNL     1      -9.362   5.768 -23.451  1.00  0.00     0.072 A
BRANCH  36  37
HETATM   37  C23 UNL     1     -10.287   4.681 -23.464  1.00  0.00     0.268 C
HETATM   38  N6  UNL     1     -11.541   4.614 -22.861  1.00  0.00    -0.057 NA
HETATM   39  O2  UNL     1      -9.956   3.610 -24.104  1.00  0.00    -0.271 OA
ENDBRANCH  36  37
ENDBRANCH  26  29
ENDBRANCH  19  23
ENDBRANCH  18  19
ENDBRANCH  10  11
ENDBRANCH   9  10
ENDBRANCH   8   9
TORSDOF 7
ENDMDL