MODEL 5
REMARK VINA RESULT: -8.168250604      5.665      8.335
REMARK  6 active torsions:
REMARK  status: ('A' for Active; 'I' for Inactive)
REMARK    1  A    between atoms: C2_2  and  C3_3
REMARK    2  A    between atoms: C2_2  and  N4_17
REMARK    3  A    between atoms: C3_3  and  N1_4
REMARK    4  A    between atoms: C8_12  and  C9_13
REMARK    5  A    between atoms: C13_22  and  O1_23
REMARK    6  A    between atoms: O1_23  and  C14_24
ROOT
HETATM    1  C9  UNL     1      -4.103   0.472 -12.900  1.00  0.00     0.113 C
HETATM    2  C10 UNL     1      -2.706   0.043 -13.281  1.00  0.00     0.027 C
HETATM    3  C11 UNL     1      -4.612  -0.405 -11.851  1.00  0.00     0.065 C
HETATM    4  N3  UNL     1      -4.999  -1.096 -11.003  1.00  0.00    -0.197 NA
ENDROOT
BRANCH   1   5
HETATM    5  C8  UNL     1      -5.032   0.484 -14.126  1.00  0.00     0.126 C
HETATM    6  N1  UNL     1      -5.555   1.773 -14.264  1.00  0.00    -0.382 N
HETATM    7  C4  UNL     1      -6.861   2.110 -13.928  1.00  0.00     0.091 C
HETATM    8  C5  UNL     1      -7.754   0.960 -13.619  1.00  0.00     0.220 C
HETATM    9  C6  UNL     1      -8.628   0.648 -14.829  1.00  0.00     0.046 C
HETATM   10  N2  UNL     1      -7.115  -0.237 -13.194  1.00  0.00    -0.065 N
HETATM   11  C7  UNL     1      -6.031  -0.619 -14.050  1.00  0.00     0.259 C
ATOM     12  H22 UNL     1      -6.808  -0.164 -12.225  1.00  0.00     0.278 HD
ATOM     13  H21 UNL     1      -7.789  -0.996 -13.096  1.00  0.00     0.278 HD
BRANCH   6  14
HETATM   14  C3  UNL     1      -4.647   2.821 -14.625  1.00  0.00     0.147 C
BRANCH  14  15
HETATM   15  C2  UNL     1      -4.701   3.168 -16.093  1.00  0.00     0.113 C
HETATM   16  C1  UNL     1      -3.288   3.054 -16.703  1.00  0.00     0.034 C
BRANCH  15  17
HETATM   17  N4  UNL     1      -5.267   4.364 -16.414  1.00  0.00    -0.220 N
HETATM   18  C12 UNL     1      -6.221   5.136 -16.393  1.00  0.00     0.680 A
HETATM   19  N5  UNL     1      -6.142   6.375 -16.981  1.00  0.00    -0.169 N
HETATM   20  N6  UNL     1      -7.401   4.846 -15.809  1.00  0.00    -0.201 N
HETATM   21  C13 UNL     1      -7.153   7.253 -16.989  1.00  0.00     0.181 A
ATOM     22  H5  UNL     1      -5.268   6.639 -17.436  1.00  0.00     0.186 HD
HETATM   23  C20 UNL     1      -8.341   6.918 -16.381  1.00  0.00     0.078 A
HETATM   24 BR1  UNL     1      -9.851   8.108 -16.338  1.00  0.00    -0.045 Br
HETATM   25  C21 UNL     1      -8.456   5.675 -15.777  1.00  0.00     0.129 A
ATOM     26  H6  UNL     1      -7.499   3.935 -15.361  1.00  0.00     0.183 HD
ATOM     27  H4  UNL     1      -4.540   4.866 -16.922  1.00  0.00     0.178 HD
BRANCH  21  28
HETATM   28  O1  UNL     1      -7.035   8.491 -17.592  1.00  0.00    -0.290 OA
BRANCH  28  29
HETATM   29  C14 UNL     1      -6.246   9.550 -17.286  1.00  0.00     0.099 A
HETATM   30  C15 UNL     1      -6.323  10.098 -15.995  1.00  0.00     0.041 A
HETATM   31  C16 UNL     1      -5.581  11.162 -15.578  1.00  0.00     0.026 A
HETATM   32  C17 UNL     1      -4.691  11.776 -16.423  1.00  0.00     0.035 A
HETATM   33 CL1  UNL     1      -3.758  13.135 -15.851  1.00  0.00    -0.084 Cl
HETATM   34  C18 UNL     1      -4.580  11.276 -17.694  1.00  0.00     0.050 A
HETATM   35  C19 UNL     1      -5.345  10.183 -18.115  1.00  0.00     0.069 A
HETATM   36 CL2  UNL     1      -5.147   9.587 -19.745  1.00  0.00    -0.081 Cl
ENDBRANCH  28  29
ENDBRANCH  21  28
ENDBRANCH  15  17
ENDBRANCH  14  15
ENDBRANCH   6  14
ENDBRANCH   1   5
TORSDOF 6
ENDMDL