MODEL 3
REMARK VINA RESULT: -6.566976353      2.208      6.203
REMARK  5 active torsions:
REMARK  status: ('A' for Active; 'I' for Inactive)
REMARK    1  A    between atoms: N1_1  and  N2_4
REMARK    2  A    between atoms: N2_4  and  C1_5
REMARK    3  A    between atoms: C1_5  and  C2_6
REMARK       I    between atoms: C2_6  and  N3_8
REMARK    4  A    between atoms: C10_25  and  C11_26
REMARK    5  A    between atoms: C12_31  and  O4_32
ROOT
HETATM    1  C2  UNL     1      14.495  21.576  17.110  1.00  0.00     0.238 C
HETATM    2  O1  UNL     1      15.383  22.410  16.709  1.00  0.00    -0.272 OA
HETATM    3  N3  UNL     1      13.185  21.912  17.418  1.00  0.00    -0.324 N
ATOM      4  H3  UNL     1      12.846  21.739  18.364  1.00  0.00     0.169 HD
HETATM    5  C3  UNL     1      12.356  22.446  16.540  1.00  0.00     0.089 C
HETATM    6  C4  UNL     1      12.947  22.654  15.203  1.00  0.00     0.293 C
HETATM    7  N4  UNL     1      13.460  21.445  14.642  1.00  0.00    -0.068 N
ATOM      8  H41 UNL     1      12.799  20.675  14.734  1.00  0.00     0.277 HD
ATOM      9  H42 UNL     1      14.222  21.061  15.202  1.00  0.00     0.277 HD
HETATM   10  C5  UNL     1      13.856  21.650  13.268  1.00  0.00     0.251 C
HETATM   11  C6  UNL     1      12.801  21.194  12.283  1.00  0.00     0.141 C
HETATM   12  N5  UNL     1      11.675  22.093  12.206  1.00  0.00    -0.418 N
ATOM     13  H5  UNL     1      11.783  23.106  12.173  1.00  0.00     0.153 HD
HETATM   14  C7  UNL     1      10.401  21.456  12.179  1.00  0.00     0.133 C
HETATM   15  C8  UNL     1       9.655  21.624  13.476  1.00  0.00     0.140 C
HETATM   16  N6  UNL     1       9.946  20.536  14.386  1.00  0.00    -0.375 N
ATOM     17  H6  UNL     1      10.724  19.938  14.110  1.00  0.00     0.160 HD
HETATM   18  C9  UNL     1       9.325  20.183  15.582  1.00  0.00     0.146 C
HETATM   19  N7  UNL     1       8.780  18.824  15.600  1.00  0.00    -0.080 NA
HETATM   20  C10 UNL     1       9.213  20.925  16.712  1.00  0.00     0.152 C
HETATM   21  N8  UNL     1       9.761  22.231  16.882  1.00  0.00    -0.327 N
ATOM     22  H8  UNL     1       9.037  22.948  16.893  1.00  0.00     0.168 HD
HETATM   23  C12 UNL     1      11.032  22.773  17.038  1.00  0.00     0.165 C
ENDROOT
BRANCH  23  24
HETATM   24  O4  UNL     1      11.128  23.858  17.833  1.00  0.00    -0.345 OA
ATOM     25  H4  UNL     1      11.911  23.775  18.364  1.00  0.00     0.219 HD
ENDBRANCH  23  24
BRANCH   1  26
HETATM   26  C1  UNL     1      15.026  20.174  17.219  1.00  0.00     0.237 C
BRANCH  26  27
HETATM   27  N2  UNL     1      15.798  19.801  16.082  1.00  0.00    -0.139 NA
BRANCH  27  28
HETATM   28  N1  UNL     1      17.176  19.873  16.305  1.00  0.00    -0.348 N
ATOM     29  H12 UNL     1      17.796  19.073  16.179  1.00  0.00     0.172 HD
ATOM     30  H11 UNL     1      17.486  20.798  16.603  1.00  0.00     0.172 HD
ENDBRANCH  27  28
ENDBRANCH  26  27
ENDBRANCH   1  26
BRANCH  20  31
HETATM   31  C11 UNL     1       8.479  20.254  17.801  1.00  0.00     0.230 C
HETATM   32  O2  UNL     1       9.055  19.500  18.589  1.00  0.00    -0.643 OA
HETATM   33  O3  UNL     1       7.133  20.445  17.971  1.00  0.00    -0.643 OA
ENDBRANCH  20  31
TORSDOF 5
ENDMDL