MODEL 1
REMARK VINA RESULT: -6.268641013      0.000      0.000
REMARK  9 active torsions:
REMARK  status: ('A' for Active; 'I' for Inactive)
REMARK    1  A    between atoms: N1_1  and  C1_5
REMARK    2  A    between atoms: C1_5  and  C2_6
REMARK       I    between atoms: C2_6  and  N2_8
REMARK    3  A    between atoms: N2_8  and  C3_10
REMARK    4  A    between atoms: C4_15  and  N5_16
REMARK    5  A    between atoms: N5_16  and  C5_18
REMARK    6  A    between atoms: C5_18  and  C6_24
REMARK    7  A    between atoms: N6_19  and  N7_21
REMARK    8  A    between atoms: C6_24  and  N8_25
REMARK    9  A    between atoms: C6_24  and  N9_29
ROOT
HETATM    1  C3  UNL     1      13.324  21.212  16.502  1.00  0.00     0.114 C
HETATM    2  N3  UNL     1      13.668  22.387  16.915  1.00  0.00    -0.289 N
ATOM      3  H3  UNL     1      14.635  22.495  17.221  1.00  0.00     0.188 HD
HETATM    4  N4  UNL     1      12.871  23.509  16.986  1.00  0.00    -0.294 N
ATOM      5  H4  UNL     1      12.945  24.008  17.873  1.00  0.00     0.184 HD
HETATM    6  C4  UNL     1      11.960  24.114  16.059  1.00  0.00     0.314 C
HETATM    7  N10 UNL     1      11.296  23.180  15.194  1.00  0.00    -0.279 N
ATOM      8  H10 UNL     1      11.177  23.318  14.190  1.00  0.00     0.176 HD
HETATM    9  S1  UNL     1      10.724  21.804  16.046  1.00  0.00     0.236 S
HETATM   10  O2  UNL     1      10.249  22.105  17.415  1.00  0.00    -0.205 OA
HETATM   11  O3  UNL     1       9.573  21.210  15.265  1.00  0.00    -0.205 OA
HETATM   12  C7  UNL     1      12.072  20.645  16.013  1.00  0.00     0.240 C
ENDROOT
BRANCH   6  13
HETATM   13  N5  UNL     1      12.691  25.036  15.225  1.00  0.00    -0.336 N
ATOM     14  H5  UNL     1      12.226  25.449  14.416  1.00  0.00     0.164 HD
BRANCH  13  15
HETATM   15  C5  UNL     1      14.056  25.387  15.503  1.00  0.00     0.153 C
HETATM   16  N6  UNL     1      14.306  26.161  16.482  1.00  0.00    -0.292 N
ATOM     17  H6  UNL     1      13.514  26.499  17.029  1.00  0.00     0.187 HD
BRANCH  16  18
HETATM   18  N7  UNL     1      15.561  26.577  16.858  1.00  0.00    -0.344 N
ATOM     19  H72 UNL     1      16.142  25.890  17.338  1.00  0.00     0.176 HD
ATOM     20  H71 UNL     1      15.944  27.509  16.694  1.00  0.00     0.176 HD
ENDBRANCH  16  18
BRANCH  15  21
HETATM   21  C6  UNL     1      15.072  24.800  14.602  1.00  0.00     0.445 C
BRANCH  21  22
HETATM   22  N8  UNL     1      14.676  23.596  13.950  1.00  0.00    -0.043 N
ATOM     23  H83 UNL     1      14.979  22.786  14.492  1.00  0.00     0.277 HD
ATOM     24  H82 UNL     1      13.664  23.481  14.008  1.00  0.00     0.277 HD
ATOM     25  H81 UNL     1      14.986  23.509  12.983  1.00  0.00     0.277 HD
ENDBRANCH  21  22
BRANCH  21  26
HETATM   26  N9  UNL     1      15.477  25.838  13.657  1.00  0.00    -0.043 N
ATOM     27  H93 UNL     1      14.827  26.623  13.626  1.00  0.00     0.277 HD
ATOM     28  H92 UNL     1      16.300  26.357  13.965  1.00  0.00     0.277 HD
ATOM     29  H91 UNL     1      15.607  25.395  12.747  1.00  0.00     0.277 HD
ENDBRANCH  21  26
ENDBRANCH  15  21
ENDBRANCH  13  15
ENDBRANCH   6  13
BRANCH   1  30
HETATM   30  N2  UNL     1      14.382  20.233  16.540  1.00  0.00    -0.313 N
HETATM   31  C2  UNL     1      15.605  20.268  15.921  1.00  0.00     0.248 C
HETATM   32  O1  UNL     1      16.001  21.198  15.198  1.00  0.00    -0.271 OA
ATOM     33  H2  UNL     1      14.195  19.403  17.103  1.00  0.00     0.170 HD
BRANCH  31  34
HETATM   34  C1  UNL     1      16.564  19.131  16.093  1.00  0.00     0.332 C
BRANCH  34  35
HETATM   35  N1  UNL     1      17.908  19.619  15.978  1.00  0.00    -0.071 N
ATOM     36  H13 UNL     1      18.155  20.253  16.738  1.00  0.00     0.274 HD
ATOM     37  H12 UNL     1      18.599  18.893  16.164  1.00  0.00     0.274 HD
ATOM     38  H11 UNL     1      18.035  20.048  15.061  1.00  0.00     0.274 HD
ENDBRANCH  34  35
ENDBRANCH  31  34
ENDBRANCH   1  30
TORSDOF 9
ENDMDL