MODEL 2
REMARK VINA RESULT: -6.665367259      6.061      9.267
REMARK  8 active torsions:
REMARK  status: ('A' for Active; 'I' for Inactive)
REMARK    1  A    between atoms: N1_1  and  N2_4
REMARK    2  A    between atoms: N2_4  and  C1_5
REMARK    3  A    between atoms: C1_5  and  O1_6
REMARK    4  A    between atoms: C1_5  and  C2_8
REMARK    5  A    between atoms: C2_8  and  O2_9
REMARK    6  A    between atoms: C2_8  and  C3_11
REMARK    7  A    between atoms: C3_11  and  N3_12
REMARK    8  A    between atoms: C5_14  and  N4_15
ROOT
HETATM    1  N3  UNL     1      15.573  24.653  11.959  1.00  0.00    -0.305 N
HETATM    2  C4  UNL     1      14.509  24.684  12.769  1.00  0.00     0.131 A
HETATM    3  C5  UNL     1      14.557  25.340  13.982  1.00  0.00     0.118 A
HETATM    4  C10 UNL     1      15.763  25.962  14.311  1.00  0.00     0.277 A
HETATM    5  O4  UNL     1      15.898  26.587  15.401  1.00  0.00    -0.266 OA
HETATM    6  N7  UNL     1      16.798  25.895  13.455  1.00  0.00    -0.273 N
ATOM      7  H7  UNL     1      17.672  26.355  13.711  1.00  0.00     0.173 HD
HETATM    8  C11 UNL     1      16.736  25.251  12.276  1.00  0.00     0.329 A
HETATM    9  O5  UNL     1      17.740  25.218  11.503  1.00  0.00    -0.246 OA
ENDROOT
BRANCH   1  10
HETATM   10  C3  UNL     1      15.506  23.962  10.695  1.00  0.00     0.168 C
BRANCH  10  11
HETATM   11  C2  UNL     1      14.260  24.297   9.915  1.00  0.00     0.182 C
BRANCH  11  12
HETATM   12  C1  UNL     1      14.702  24.805   8.553  1.00  0.00     0.261 C
BRANCH  12  13
HETATM   13  N2  UNL     1      15.220  26.161   8.658  1.00  0.00    -0.114 NA
BRANCH  13  14
HETATM   14  N1  UNL     1      15.220  26.759   7.414  1.00  0.00    -0.346 N
ATOM     15  H12 UNL     1      14.383  26.922   6.855  1.00  0.00     0.172 HD
ATOM     16  H11 UNL     1      16.174  27.007   7.150  1.00  0.00     0.172 HD
ENDBRANCH  13  14
ENDBRANCH  12  13
BRANCH  12  17
HETATM   17  O1  UNL     1      13.652  24.830   7.648  1.00  0.00    -0.375 OA
ATOM     18  H1  UNL     1      13.120  24.060   7.808  1.00  0.00     0.211 HD
ENDBRANCH  12  17
ENDBRANCH  11  12
BRANCH  11  19
HETATM   19  O2  UNL     1      13.417  23.211   9.768  1.00  0.00    -0.390 OA
ATOM     20  H2  UNL     1      13.313  22.761  10.599  1.00  0.00     0.210 HD
ENDBRANCH  11  19
ENDBRANCH  10  11
ENDBRANCH   1  10
BRANCH   3  21
HETATM   21  N4  UNL     1      13.467  25.404  14.879  1.00  0.00    -0.333 N
HETATM   22  C6  UNL     1      13.170  24.508  15.759  1.00  0.00     0.171 C
HETATM   23  N5  UNL     1      12.032  24.682  16.621  1.00  0.00    -0.370 N
HETATM   24  C9  UNL     1      13.941  23.276  15.950  1.00  0.00     0.285 C
HETATM   25  C7  UNL     1      11.314  23.493  17.031  1.00  0.00     0.141 C
ATOM     26  H5  UNL     1      11.741  25.609  16.933  1.00  0.00     0.161 HD
HETATM   27  C8  UNL     1      12.268  22.547  17.703  1.00  0.00     0.142 C
HETATM   28  N6  UNL     1      13.481  22.384  16.970  1.00  0.00    -0.353 N
ATOM     29  H6  UNL     1      14.061  21.575  17.188  1.00  0.00     0.162 HD
HETATM   30  O3  UNL     1      14.939  23.042  15.250  1.00  0.00    -0.264 OA
ATOM     31  H4  UNL     1      12.865  26.226  14.826  1.00  0.00     0.168 HD
ENDBRANCH   3  21
TORSDOF 8
ENDMDL