MODEL 3
REMARK VINA RESULT: -6.596389689      5.316      8.891
REMARK  7 active torsions:
REMARK  status: ('A' for Active; 'I' for Inactive)
REMARK    1  A    between atoms: N1_1  and  C1_5
REMARK    2  A    between atoms: C1_5  and  O1_6
REMARK    3  A    between atoms: O1_6  and  C2_7
REMARK    4  A    between atoms: C2_7  and  C3_9
REMARK    5  A    between atoms: C3_9  and  N2_10
REMARK    6  A    between atoms: C4_17  and  N4_18
REMARK    7  A    between atoms: N4_18  and  N5_20
REMARK       I    between atoms: C5_22  and  N7_24
REMARK       I    between atoms: N7_24  and  C6_26
ROOT
HETATM    1  C3  UNL     1      13.750  23.696  13.924  1.00  0.00     0.424 C
HETATM    2  N3  UNL     1      13.486  23.043  15.197  1.00  0.00     0.006 N
ATOM      3  H31 UNL     1      13.259  23.715  15.931  1.00  0.00     0.284 HD
ATOM      4  H32 UNL     1      14.333  22.652  15.608  1.00  0.00     0.284 HD
HETATM    5  C4  UNL     1      12.460  22.055  15.040  1.00  0.00     0.395 C
HETATM    6  C7  UNL     1      11.343  22.571  14.203  1.00  0.00     0.276 C
HETATM    7  O3  UNL     1      10.385  21.829  13.874  1.00  0.00    -0.269 OA
HETATM    8  N9  UNL     1      11.321  23.919  13.748  1.00  0.00    -0.290 N
ATOM      9  H9  UNL     1      10.452  24.376  13.470  1.00  0.00     0.172 HD
HETATM   10  C8  UNL     1      12.571  24.598  13.700  1.00  0.00     0.297 C
HETATM   11  O4  UNL     1      12.668  25.830  13.489  1.00  0.00    -0.268 OA
ENDROOT
BRANCH   1  12
HETATM   12  C2  UNL     1      14.974  24.490  13.954  1.00  0.00     0.189 C
HETATM   13  S1  UNL     1      15.780  24.693  12.549  1.00  0.00    -0.052 SA
BRANCH  12  14
HETATM   14  O1  UNL     1      15.492  25.074  15.076  1.00  0.00    -0.313 OA
BRANCH  14  15
HETATM   15  C1  UNL     1      15.393  26.432  15.411  1.00  0.00     0.405 C
BRANCH  15  16
HETATM   16  N1  UNL     1      15.352  26.528  16.864  1.00  0.00    -0.058 N
ATOM     17  H13 UNL     1      15.186  27.478  17.194  1.00  0.00     0.276 HD
ATOM     18  H12 UNL     1      14.519  26.099  17.266  1.00  0.00     0.276 HD
ATOM     19  H11 UNL     1      16.219  26.128  17.224  1.00  0.00     0.276 HD
ENDBRANCH  15  16
ENDBRANCH  14  15
ENDBRANCH  12  14
ENDBRANCH   1  12
BRANCH   1  20
HETATM   20  N2  UNL     1      13.695  22.699  12.910  1.00  0.00    -0.029 N
ATOM     21  H23 UNL     1      14.407  22.880  12.203  1.00  0.00     0.278 HD
ATOM     22  H22 UNL     1      14.027  21.808  13.278  1.00  0.00     0.278 HD
ATOM     23  H21 UNL     1      12.784  22.577  12.466  1.00  0.00     0.278 HD
ENDBRANCH   1  20
BRANCH   5  24
HETATM   24  N4  UNL     1      11.902  21.670  16.319  1.00  0.00    -0.296 N
ATOM     25  H4  UNL     1      12.218  20.805  16.758  1.00  0.00     0.183 HD
BRANCH  24  26
HETATM   26  N5  UNL     1      10.940  22.451  16.969  1.00  0.00    -0.275 N
HETATM   27  C5  UNL     1       9.809  21.990  17.349  1.00  0.00     0.210 C
HETATM   28  N6  UNL     1       9.511  20.624  17.105  1.00  0.00    -0.062 NA
HETATM   29  N7  UNL     1       8.869  22.823  18.002  1.00  0.00    -0.284 N
HETATM   30  C6  UNL     1       7.614  22.317  18.427  1.00  0.00     0.335 C
ATOM     31  H7  UNL     1       9.099  23.802  18.170  1.00  0.00     0.172 HD
HETATM   32  N8  UNL     1       6.652  23.112  19.079  1.00  0.00    -0.040 NA
HETATM   33  O2  UNL     1       7.345  21.116  18.214  1.00  0.00    -0.251 OA
ATOM     34  H5  UNL     1      11.150  23.433  17.146  1.00  0.00     0.189 HD
ENDBRANCH  24  26
ENDBRANCH   5  24
TORSDOF 7
ENDMDL