MODEL 1
REMARK VINA RESULT: -6.761612376      0.000      0.000
REMARK  6 active torsions:
REMARK  status: ('A' for Active; 'I' for Inactive)
REMARK    1  A    between atoms: N1_1  and  O1_4
REMARK    2  A    between atoms: O1_4  and  C1_5
REMARK    3  A    between atoms: C8_22  and  N5_23
REMARK       I    between atoms: N5_23  and  C9_25
REMARK    4  A    between atoms: C9_25  and  C10_27
REMARK    5  A    between atoms: C10_27  and  N6_28
REMARK    6  A    between atoms: C10_27  and  C11_32
ROOT
HETATM    1  C1  UNL     1      18.459  25.709  10.424  1.00  0.00     0.379 C
HETATM    2  N2  UNL     1      18.634  24.287  10.476  1.00  0.00    -0.042 N
ATOM      3  H21 UNL     1      18.863  23.987  11.423  1.00  0.00     0.280 HD
ATOM      4  H22 UNL     1      19.492  24.013   9.998  1.00  0.00     0.280 HD
HETATM    5  C2  UNL     1      17.508  23.546   9.965  1.00  0.00     0.263 C
HETATM    6  C3  UNL     1      17.559  23.348   8.474  1.00  0.00     0.260 C
HETATM    7  N3  UNL     1      18.193  24.421   7.773  1.00  0.00    -0.072 N
ATOM      8  H31 UNL     1      18.692  25.026   8.425  1.00  0.00     0.277 HD
ATOM      9  H32 UNL     1      17.496  25.079   7.423  1.00  0.00     0.277 HD
HETATM   10  C4  UNL     1      19.061  24.002   6.714  1.00  0.00     0.252 C
HETATM   11  C5  UNL     1      20.362  23.544   7.332  1.00  0.00     0.150 C
HETATM   12  N4  UNL     1      21.292  24.588   7.607  1.00  0.00    -0.353 N
ATOM     13  H4  UNL     1      21.664  25.084   6.797  1.00  0.00     0.162 HD
HETATM   14  C6  UNL     1      21.763  25.019   8.879  1.00  0.00     0.289 C
HETATM   15  O2  UNL     1      23.037  25.110   9.089  1.00  0.00    -0.264 OA
HETATM   16  C7  UNL     1      20.905  25.379  10.001  1.00  0.00     0.243 C
HETATM   17  O3  UNL     1      21.147  24.831  11.134  1.00  0.00    -0.285 OA
HETATM   18  C8  UNL     1      19.770  26.319   9.978  1.00  0.00     0.223 C
ENDROOT
BRANCH  18  19
HETATM   19  N5  UNL     1      20.124  27.382  10.930  1.00  0.00    -0.343 N
HETATM   20  C9  UNL     1      19.943  28.740  10.643  1.00  0.00     0.260 C
HETATM   21  O4  UNL     1      19.460  29.073   9.532  1.00  0.00    -0.271 OA
ATOM     22  H5  UNL     1      20.516  27.120  11.834  1.00  0.00     0.163 HD
BRANCH  20  23
HETATM   23  C10 UNL     1      20.310  29.806  11.625  1.00  0.00     0.374 C
BRANCH  23  24
HETATM   24  N6  UNL     1      19.728  29.567  12.913  1.00  0.00    -0.056 N
ATOM     25  H63 UNL     1      20.055  30.248  13.600  1.00  0.00     0.275 HD
ATOM     26  H62 UNL     1      18.734  29.798  12.920  1.00  0.00     0.275 HD
ATOM     27  H61 UNL     1      19.889  28.612  13.232  1.00  0.00     0.275 HD
ENDBRANCH  23  24
BRANCH  23  28
HETATM   28  C11 UNL     1      19.883  31.127  11.143  1.00  0.00     0.214 C
HETATM   29  O5  UNL     1      20.665  31.839  10.490  1.00  0.00    -0.646 OA
HETATM   30  O6  UNL     1      18.612  31.574  11.418  1.00  0.00    -0.646 OA
ENDBRANCH  23  28
ENDBRANCH  20  23
ENDBRANCH  18  19
BRANCH   1  31
HETATM   31  O1  UNL     1      18.087  26.228  11.680  1.00  0.00    -0.251 OA
BRANCH  31  32
HETATM   32  N1  UNL     1      18.334  25.390  12.690  1.00  0.00    -0.309 N
ATOM     33  H12 UNL     1      17.705  24.627  12.937  1.00  0.00     0.184 HD
ATOM     34  H11 UNL     1      19.207  25.595  13.177  1.00  0.00     0.184 HD
ENDBRANCH  31  32
ENDBRANCH   1  31
TORSDOF 6
ENDMDL