MODEL 5
REMARK VINA RESULT: -7.337004710      1.496      2.344
REMARK  9 active torsions:
REMARK  status: ('A' for Active; 'I' for Inactive)
REMARK    1  A    between atoms: N1_1  and  N2_4
REMARK    2  A    between atoms: C1_6  and  C2_8
REMARK    3  A    between atoms: C3_9  and  C4_10
REMARK    4  A    between atoms: C4_10  and  N4_11
REMARK    5  A    between atoms: C4_10  and  N5_15
REMARK    6  A    between atoms: N7_21  and  O1_22
REMARK    7  A    between atoms: C5_24  and  C6_25
REMARK    8  A    between atoms: N8_26  and  N9_28
REMARK    9  A    between atoms: N9_28  and  C7_30
ROOT
HETATM    1  C2  UNL     1      19.314  30.097  10.605  1.00  0.00     0.067 A
HETATM    2  C3  UNL     1      19.699  30.856  11.681  1.00  0.00     0.101 A
HETATM    3  N6  UNL     1      19.926  30.030  12.761  1.00  0.00    -0.274 N
ATOM      4  H6  UNL     1      20.223  30.329  13.689  1.00  0.00     0.189 HD
HETATM    5  N7  UNL     1      19.695  28.798  12.393  1.00  0.00    -0.161 N
HETATM    6  C5  UNL     1      19.316  28.786  11.074  1.00  0.00     0.113 A
ENDROOT
BRANCH   6   7
HETATM    7  C6  UNL     1      18.983  27.597  10.338  1.00  0.00     0.142 C
HETATM    8  N8  UNL     1      19.618  26.494  10.613  1.00  0.00    -0.295 N
ATOM      9  H8  UNL     1      20.332  26.508  11.342  1.00  0.00     0.186 HD
BRANCH   8  10
HETATM   10  N9  UNL     1      19.368  25.315   9.964  1.00  0.00    -0.132 N
ATOM     11  H9  UNL     1      18.390  25.029   9.928  1.00  0.00     0.205 HD
BRANCH  10  12
HETATM   12  C7  UNL     1      20.189  24.533   9.400  1.00  0.00     0.704 A
HETATM   13  N10 UNL     1      19.941  23.299   8.949  1.00  0.00    -0.139 N
HETATM   14  C8  UNL     1      20.877  22.533   8.358  1.00  0.00     0.342 A
ATOM     15  H10 UNL     1      19.000  22.921   9.057  1.00  0.00     0.189 HD
HETATM   16  O2  UNL     1      20.613  21.358   7.935  1.00  0.00    -0.246 OA
HETATM   17  N11 UNL     1      22.128  23.020   8.206  1.00  0.00    -0.260 N
HETATM   18  C9  UNL     1      22.424  24.265   8.648  1.00  0.00     0.342 A
ATOM     19  H11 UNL     1      22.848  22.451   7.760  1.00  0.00     0.175 HD
HETATM   20  O3  UNL     1      23.586  24.706   8.502  1.00  0.00    -0.246 OA
HETATM   21  N12 UNL     1      21.464  25.001   9.233  1.00  0.00    -0.139 N
ATOM     22  H12 UNL     1      21.692  25.938   9.563  1.00  0.00     0.189 HD
ENDBRANCH  10  12
ENDBRANCH   8  10
ENDBRANCH   6   7
BRANCH   1  23
HETATM   23  C1  UNL     1      19.000  30.600   9.293  1.00  0.00     0.145 C
HETATM   24  N2  UNL     1      18.901  29.865   8.249  1.00  0.00    -0.294 N
ATOM     25  H2  UNL     1      19.054  28.862   8.354  1.00  0.00     0.187 HD
HETATM   26  N3  UNL     1      18.766  32.002   9.042  1.00  0.00    -0.080 NA
BRANCH  24  27
HETATM   27  N1  UNL     1      18.599  30.349   6.987  1.00  0.00    -0.344 N
ATOM     28  H12 UNL     1      18.050  31.206   6.939  1.00  0.00     0.176 HD
ATOM     29  H11 UNL     1      18.893  29.900   6.119  1.00  0.00     0.176 HD
ENDBRANCH  24  27
ENDBRANCH   1  23
BRANCH   5  30
HETATM   30  O1  UNL     1      19.801  27.643  13.168  1.00  0.00    -0.267 OA
ATOM     31  H1  UNL     1      20.595  27.222  13.478  1.00  0.00     0.247 HD
ENDBRANCH   5  30
BRANCH   2  32
HETATM   32  C4  UNL     1      19.872  32.304  11.814  1.00  0.00     0.429 C
BRANCH  32  33
HETATM   33  N4  UNL     1      18.571  32.959  12.096  1.00  0.00    -0.045 N
ATOM     34  H43 UNL     1      18.694  33.883  12.510  1.00  0.00     0.277 HD
ATOM     35  H42 UNL     1      18.093  33.238  11.239  1.00  0.00     0.277 HD
ATOM     36  H41 UNL     1      17.987  32.358  12.677  1.00  0.00     0.277 HD
ENDBRANCH  32  33
BRANCH  32  37
HETATM   37  N5  UNL     1      20.677  32.532  13.007  1.00  0.00    -0.045 N
ATOM     38  H53 UNL     1      21.666  32.670  12.803  1.00  0.00     0.277 HD
ATOM     39  H52 UNL     1      20.505  33.441  13.438  1.00  0.00     0.277 HD
ATOM     40  H51 UNL     1      20.504  31.751  13.640  1.00  0.00     0.277 HD
ENDBRANCH  32  37
ENDBRANCH   2  32
TORSDOF 9
ENDMDL