MODEL 4
REMARK VINA RESULT: -6.862756871      3.192      4.526
REMARK  7 active torsions:
REMARK  status: ('A' for Active; 'I' for Inactive)
REMARK    1  A    between atoms: C1_2  and  C2_4
REMARK    2  A    between atoms: C2_4  and  N2_5
REMARK    3  A    between atoms: C2_4  and  C7_17
REMARK    4  A    between atoms: N2_5  and  C3_7
REMARK    5  A    between atoms: C9_22  and  N6_23
REMARK    6  A    between atoms: C10_27  and  O5_28
REMARK    7  A    between atoms: N7_30  and  N8_31
ROOT
HETATM    1  C7  UNL     1      17.658  26.119   8.401  1.00  0.00     0.213 C
HETATM    2  N5  UNL     1      17.679  24.837   7.747  1.00  0.00    -0.338 N
ATOM      3  H5  UNL     1      18.555  24.336   7.597  1.00  0.00     0.164 HD
HETATM    4  C8  UNL     1      16.424  24.289   7.313  1.00  0.00     0.253 C
HETATM    5  O4  UNL     1      16.416  23.422   6.434  1.00  0.00    -0.271 OA
HETATM    6  C9  UNL     1      15.148  24.751   7.910  1.00  0.00     0.319 C
HETATM    7  C10 UNL     1      15.299  25.923   8.821  1.00  0.00     0.253 C
HETATM    8  N7  UNL     1      16.592  26.117   9.393  1.00  0.00    -0.181 NA
ENDROOT
BRANCH   1   9
HETATM    9  C2  UNL     1      18.910  26.532   9.068  1.00  0.00     0.211 C
BRANCH   9  10
HETATM   10  C1  UNL     1      20.142  25.798   8.712  1.00  0.00     0.257 C
HETATM   11  N1  UNL     1      21.071  25.339   9.672  1.00  0.00    -0.060 NA
HETATM   12  O1  UNL     1      20.454  25.524   7.494  1.00  0.00    -0.274 OA
ENDBRANCH   9  10
BRANCH   9  13
HETATM   13  N2  UNL     1      19.178  27.939   9.062  1.00  0.00    -0.360 N
ATOM     14  H2  UNL     1      19.172  28.382   8.143  1.00  0.00     0.162 HD
BRANCH  13  15
HETATM   15  C3  UNL     1      19.445  28.789  10.134  1.00  0.00     0.111 A
HETATM   16  C4  UNL     1      19.711  30.127   9.915  1.00  0.00     0.122 A
HETATM   17  C5  UNL     1      19.989  31.006  10.943  1.00  0.00     0.252 A
HETATM   18  O2  UNL     1      20.230  32.217  10.747  1.00  0.00    -0.268 OA
HETATM   19  N3  UNL     1      20.002  30.538  12.197  1.00  0.00    -0.275 N
HETATM   20  C6  UNL     1      19.744  29.242  12.399  1.00  0.00     0.328 A
ATOM     21  H3  UNL     1      20.205  31.156  12.982  1.00  0.00     0.173 HD
HETATM   22  O3  UNL     1      19.751  28.780  13.584  1.00  0.00    -0.247 OA
HETATM   23  N4  UNL     1      19.466  28.359  11.396  1.00  0.00    -0.294 N
ATOM     24  H4  UNL     1      19.276  27.379  11.610  1.00  0.00     0.172 HD
ENDBRANCH  13  15
ENDBRANCH   9  13
ENDBRANCH   1   9
BRANCH   8  25
HETATM   25  N8  UNL     1      16.859  25.246  10.449  1.00  0.00    -0.359 NA
ATOM     26  H82 UNL     1      16.332  25.468  11.294  1.00  0.00     0.171 HD
ATOM     27  H81 UNL     1      16.774  24.268  10.172  1.00  0.00     0.171 HD
ENDBRANCH   8  25
BRANCH   7  28
HETATM   28  O5  UNL     1      14.866  27.117   8.243  1.00  0.00    -0.377 OA
ATOM     29  H5  UNL     1      13.980  27.062   7.904  1.00  0.00     0.211 HD
ENDBRANCH   7  28
BRANCH   6  30
HETATM   30  N6  UNL     1      14.286  25.111   6.784  1.00  0.00    -0.063 N
ATOM     31  H63 UNL     1      13.380  24.643   6.800  1.00  0.00     0.275 HD
ATOM     32  H62 UNL     1      13.932  26.066   6.831  1.00  0.00     0.275 HD
ATOM     33  H61 UNL     1      14.829  24.918   5.942  1.00  0.00     0.275 HD
ENDBRANCH   6  30
TORSDOF 7
ENDMDL