MODEL 4
REMARK VINA RESULT: -8.473469557      1.139      1.150
REMARK  5 active torsions:
REMARK  status: ('A' for Active; 'I' for Inactive)
REMARK    1  A    between atoms: C1_2  and  C2_3
REMARK       I    between atoms: C1_2  and  N5_19
REMARK    2  A    between atoms: C2_3  and  N1_4
REMARK    3  A    between atoms: N5_19  and  N6_21
REMARK    4  A    between atoms: N6_21  and  C8_22
REMARK    5  A    between atoms: C10_28  and  O6_29
ROOT
HETATM    1  N1  UNL     1      19.601  28.266  11.050  1.00  0.00    -0.246 N
HETATM    2  N2  UNL     1      19.775  29.119  12.042  1.00  0.00    -0.279 N
ATOM      3  H2  UNL     1      20.051  28.848  12.986  1.00  0.00     0.189 HD
HETATM    4  C3  UNL     1      19.548  30.378  11.663  1.00  0.00     0.145 A
HETATM    5  N3  UNL     1      19.589  31.579  12.281  1.00  0.00    -0.292 N
ATOM      6  H3  UNL     1      19.844  31.624  13.267  1.00  0.00     0.172 HD
HETATM    7  C4  UNL     1      19.297  32.732  11.615  1.00  0.00     0.328 A
HETATM    8  O2  UNL     1      19.359  33.821  12.262  1.00  0.00    -0.247 OA
HETATM    9  N4  UNL     1      18.956  32.712  10.315  1.00  0.00    -0.275 N
ATOM     10  H4  UNL     1      18.736  33.570   9.810  1.00  0.00     0.173 HD
HETATM   11  C5  UNL     1      18.917  31.512   9.707  1.00  0.00     0.269 A
HETATM   12  O3  UNL     1      18.604  31.441   8.492  1.00  0.00    -0.267 OA
HETATM   13  C6  UNL     1      19.205  30.319  10.341  1.00  0.00     0.147 A
HETATM   14  C7  UNL     1      19.245  28.998   9.982  1.00  0.00     0.282 A
HETATM   15  O4  UNL     1      18.995  28.538   8.862  1.00  0.00    -0.265 OA
ENDROOT
BRANCH   1  16
HETATM   16  C2  UNL     1      19.778  26.846  11.177  1.00  0.00     0.256 C
BRANCH  16  17
HETATM   17  C1  UNL     1      18.930  26.356  12.303  1.00  0.00     0.253 C
HETATM   18  O1  UNL     1      19.149  26.788  13.461  1.00  0.00    -0.270 OA
HETATM   19  N5  UNL     1      17.889  25.422  12.106  1.00  0.00    -0.272 N
ATOM     20  H5  UNL     1      17.693  25.062  11.172  1.00  0.00     0.185 HD
BRANCH  19  21
HETATM   21  N6  UNL     1      17.132  24.998  13.194  1.00  0.00    -0.120 NA
BRANCH  21  22
HETATM   22  C8  UNL     1      15.821  25.587  13.085  1.00  0.00     0.238 C
HETATM   23  C9  UNL     1      15.360  26.168  14.370  1.00  0.00     0.258 C
HETATM   24  O5  UNL     1      15.985  26.607  15.361  1.00  0.00    -0.270 OA
HETATM   25  N7  UNL     1      13.933  26.135  14.277  1.00  0.00    -0.270 N
HETATM   26  N8  UNL     1      13.547  25.343  13.168  1.00  0.00    -0.104 NA
ATOM     27  H7  UNL     1      13.291  26.608  14.913  1.00  0.00     0.185 HD
HETATM   28  C10 UNL     1      14.730  24.566  12.832  1.00  0.00     0.261 C
BRANCH  28  29
HETATM   29  O6  UNL     1      14.721  24.160  11.502  1.00  0.00    -0.376 OA
ATOM     30  H6  UNL     1      13.964  23.617  11.315  1.00  0.00     0.211 HD
ENDBRANCH  28  29
ENDBRANCH  21  22
ENDBRANCH  19  21
ENDBRANCH  16  17
ENDBRANCH   1  16
TORSDOF 5
ENDMDL