MODEL 3
REMARK VINA RESULT: -6.877846998      5.966      8.926
REMARK  7 active torsions:
REMARK  status: ('A' for Active; 'I' for Inactive)
REMARK       I    between atoms: C1_4  and  N2_5
REMARK       I    between atoms: C1_4  and  N4_10
REMARK    1  A    between atoms: N2_5  and  N3_7
REMARK    2  A    between atoms: N4_10  and  N5_12
REMARK       I    between atoms: N5_12  and  C2_14
REMARK       I    between atoms: C2_14  and  N6_16
REMARK    3  A    between atoms: N6_16  and  C3_18
REMARK    4  A    between atoms: N9_28  and  C7_29
REMARK    5  A    between atoms: C7_29  and  O4_30
REMARK    6  A    between atoms: O4_30  and  C8_31
REMARK    7  A    between atoms: C8_31  and  O5_32
ROOT
HETATM    1  C3  UNL     1      16.412  24.669  10.322  1.00  0.00     0.691 A
HETATM    2  N7  UNL     1      15.345  24.182   9.682  1.00  0.00    -0.154 N
ATOM      3  H7  UNL     1      14.886  23.335  10.018  1.00  0.00     0.187 HD
HETATM    4  C4  UNL     1      14.879  24.822   8.585  1.00  0.00     0.290 A
HETATM    5  O2  UNL     1      13.877  24.344   8.001  1.00  0.00    -0.265 OA
HETATM    6  C5  UNL     1      15.484  25.965   8.116  1.00  0.00     0.151 A
HETATM    7  N8  UNL     1      15.271  26.812   7.096  1.00  0.00    -0.300 N
ATOM      8  H8  UNL     1      14.522  26.719   6.410  1.00  0.00     0.171 HD
HETATM    9  C6  UNL     1      16.188  27.808   7.105  1.00  0.00     0.330 A
HETATM   10  O3  UNL     1      16.281  28.764   6.301  1.00  0.00    -0.246 OA
HETATM   11  N9  UNL     1      16.999  27.585   8.152  1.00  0.00    -0.260 N
HETATM   12  C9  UNL     1      16.581  26.459   8.782  1.00  0.00     0.161 A
HETATM   13  N10 UNL     1      17.031  25.807   9.874  1.00  0.00    -0.173 N
ATOM     14  H10 UNL     1      17.844  26.166  10.375  1.00  0.00     0.186 HD
ENDROOT
BRANCH   1  15
HETATM   15  N6  UNL     1      16.885  24.084  11.364  1.00  0.00    -0.140 N
HETATM   16  C2  UNL     1      16.438  24.470  12.652  1.00  0.00     0.353 C
HETATM   17  N5  UNL     1      15.161  24.048  13.083  1.00  0.00    -0.237 N
HETATM   18  O1  UNL     1      17.202  25.177  13.360  1.00  0.00    -0.245 OA
ATOM     19  H5  UNL     1      14.591  23.479  12.457  1.00  0.00     0.192 HD
ATOM     20  H6  UNL     1      17.580  23.343  11.264  1.00  0.00     0.189 HD
BRANCH  17  21
HETATM   21  N4  UNL     1      14.660  24.381  14.328  1.00  0.00    -0.127 N
HETATM   22  C1  UNL     1      14.093  25.681  14.505  1.00  0.00     0.704 C
HETATM   23  N1  UNL     1      12.961  26.045  14.043  1.00  0.00    -0.232 N
HETATM   24  N2  UNL     1      14.862  26.607  15.249  1.00  0.00    -0.138 N
ATOM     25  H12 UNL     1      12.556  26.972  14.169  1.00  0.00     0.174 HD
ATOM     26  H11 UNL     1      12.407  25.377  13.506  1.00  0.00     0.174 HD
ATOM     27  H2  UNL     1      15.150  27.503  14.854  1.00  0.00     0.205 HD
ATOM     28  H4  UNL     1      14.695  23.716  15.100  1.00  0.00     0.206 HD
BRANCH  24  29
HETATM   29  N3  UNL     1      15.208  26.235  16.555  1.00  0.00    -0.331 N
ATOM     30  H32 UNL     1      14.956  26.825  17.348  1.00  0.00     0.177 HD
ATOM     31  H31 UNL     1      15.716  25.358  16.663  1.00  0.00     0.177 HD
ENDBRANCH  24  29
ENDBRANCH  17  21
ENDBRANCH   1  15
BRANCH  11  32
HETATM   32  C7  UNL     1      18.119  28.368   8.593  1.00  0.00     0.307 C
BRANCH  32  33
HETATM   33  O4  UNL     1      17.757  29.632   9.057  1.00  0.00    -0.348 OA
BRANCH  33  34
HETATM   34  C8  UNL     1      18.553  30.621   8.510  1.00  0.00     0.336 C
BRANCH  34  35
HETATM   35  O5  UNL     1      18.642  30.542   7.121  1.00  0.00    -0.377 OA
ATOM     36  H5  UNL     1      19.502  30.775   6.791  1.00  0.00     0.212 HD
ENDBRANCH  34  35
ENDBRANCH  33  34
ENDBRANCH  32  33
ENDBRANCH  11  32
TORSDOF 7
ENDMDL