MODEL 3
REMARK VINA RESULT: -6.065648040      2.564      6.404
REMARK  9 active torsions:
REMARK  status: ('A' for Active; 'I' for Inactive)
REMARK    1  A    between atoms: C3_6  and  O1_7
REMARK    2  A    between atoms: C3_6  and  C4_9
REMARK    3  A    between atoms: C4_9  and  O2_10
REMARK    4  A    between atoms: C4_9  and  C5_12
REMARK       I    between atoms: C5_12  and  N2_14
REMARK    5  A    between atoms: N2_14  and  C6_16
REMARK    6  A    between atoms: C8_20  and  S1_21
REMARK    7  A    between atoms: S1_21  and  N4_22
REMARK    8  A    between atoms: N5_27  and  N6_28
REMARK    9  A    between atoms: N6_28  and  N7_30
ROOT
HETATM    1  C6  UNL     1      19.533  28.413  10.452  1.00  0.00     0.708 A
HETATM    2  N3  UNL     1      19.578  28.169  11.774  1.00  0.00    -0.197 N
ATOM      3  H3  UNL     1      19.478  27.250  12.206  1.00  0.00     0.183 HD
HETATM    4  C7  UNL     1      19.773  29.315  12.435  1.00  0.00     0.152 A
HETATM    5  C8  UNL     1      19.854  30.323  11.514  1.00  0.00     0.206 A
HETATM    6  N5  UNL     1      19.704  29.741  10.315  1.00  0.00    -0.058 N
ENDROOT
BRANCH   1   7
HETATM    7  N2  UNL     1      19.358  27.521   9.542  1.00  0.00    -0.155 N
HETATM    8  C5  UNL     1      18.051  27.292   9.046  1.00  0.00     0.269 C
HETATM    9  O3  UNL     1      17.493  28.233   8.426  1.00  0.00    -0.270 OA
ATOM     10  H2  UNL     1      20.149  26.986   9.182  1.00  0.00     0.187 HD
BRANCH   8  11
HETATM   11  C4  UNL     1      17.318  26.011   9.220  1.00  0.00     0.276 C
BRANCH  11  12
HETATM   12  C3  UNL     1      16.099  25.918   8.362  1.00  0.00     0.287 A
HETATM   13  C2  UNL     1      15.779  24.538   7.829  1.00  0.00     0.251 A
HETATM   14  C1  UNL     1      16.830  23.462   7.919  1.00  0.00     0.045 C
HETATM   15  N1  UNL     1      16.228  25.673   6.947  1.00  0.00    -0.029 N
ATOM     16  H12 UNL     1      16.985  25.791   6.274  1.00  0.00     0.281 HD
ATOM     17  H11 UNL     1      15.843  26.117   6.113  1.00  0.00     0.281 HD
BRANCH  12  18
HETATM   18  O1  UNL     1      14.980  26.690   8.706  1.00  0.00    -0.361 OA
ATOM     19  H1  UNL     1      14.915  26.910   9.629  1.00  0.00     0.212 HD
ENDBRANCH  12  18
ENDBRANCH  11  12
BRANCH  11  20
HETATM   20  O2  UNL     1      16.920  25.835  10.551  1.00  0.00    -0.381 OA
ATOM     21  H2  UNL     1      17.670  25.517  11.040  1.00  0.00     0.210 HD
ENDBRANCH  11  20
ENDBRANCH   8  11
ENDBRANCH   1   7
BRANCH   6  22
HETATM   22  N6  UNL     1      19.721  30.401   9.077  1.00  0.00    -0.227 N
ATOM     23  H6  UNL     1      20.555  30.329   8.494  1.00  0.00     0.209 HD
BRANCH  22  24
HETATM   24  N7  UNL     1      18.654  31.144   8.620  1.00  0.00    -0.330 N
ATOM     25  H72 UNL     1      17.812  30.642   8.340  1.00  0.00     0.178 HD
ATOM     26  H71 UNL     1      18.682  32.162   8.555  1.00  0.00     0.178 HD
ENDBRANCH  22  24
ENDBRANCH   6  22
BRANCH   5  27
HETATM   27  S1  UNL     1      20.103  32.011  11.864  1.00  0.00     0.276 S
HETATM   28  O4  UNL     1      21.041  32.155  13.025  1.00  0.00    -0.199 OA
HETATM   29  O5  UNL     1      20.700  32.733  10.682  1.00  0.00    -0.199 OA
BRANCH  27  30
HETATM   30  N4  UNL     1      18.636  32.788  12.265  1.00  0.00    -0.323 N
ATOM     31  H42 UNL     1      18.340  33.675  11.858  1.00  0.00     0.169 HD
ATOM     32  H41 UNL     1      18.107  32.254  12.955  1.00  0.00     0.169 HD
ENDBRANCH  27  30
ENDBRANCH   5  27
TORSDOF 9
ENDMDL