MODEL 1
REMARK VINA RESULT: -7.092832433      0.000      0.000
REMARK  4 active torsions:
REMARK  status: ('A' for Active; 'I' for Inactive)
REMARK    1  A    between atoms: C5_5  and  O1_6
REMARK    2  A    between atoms: O1_6  and  C6_7
REMARK    3  A    between atoms: C9_10  and  C10_11
REMARK    4  A    between atoms: C11_12  and  C12_13
ROOT
HETATM    1  C10 UNL     1       2.930  18.271   9.292  1.00  0.00     0.075 A
HETATM    2  C11 UNL     1       3.415  19.458   8.967  1.00  0.00     0.062 A
HETATM    3  C20 UNL     1       4.398  19.333   7.885  1.00  0.00     0.260 A
HETATM    4  O2  UNL     1       5.075  20.237   7.309  1.00  0.00    -0.267 OA
HETATM    5  N2  UNL     1       4.492  17.958   7.552  1.00  0.00    -0.289 N
ATOM      6  H2  UNL     1       5.088  17.540   6.838  1.00  0.00     0.172 HD
HETATM    7  C21 UNL     1       3.597  17.289   8.406  1.00  0.00     0.261 A
HETATM    8  O3  UNL     1       3.392  16.031   8.415  1.00  0.00    -0.267 OA
ENDROOT
BRANCH   1   9
HETATM    9  C9  UNL     1       1.937  17.928  10.303  1.00  0.00     0.051 A
HETATM   10  C8  UNL     1       0.660  17.488  10.110  1.00  0.00     0.035 A
HETATM   11  C7  UNL     1       0.034  17.339  11.361  1.00  0.00     0.059 A
HETATM   12  C6  UNL     1       0.974  17.704  12.282  1.00  0.00     0.148 A
HETATM   13  N3  UNL     1       2.096  18.048  11.627  1.00  0.00    -0.336 N
ATOM     14  H3  UNL     1       2.956  18.360  12.079  1.00  0.00     0.168 HD
BRANCH  12  15
HETATM   15  O1  UNL     1       0.764  17.708  13.658  1.00  0.00    -0.294 OA
BRANCH  15  16
HETATM   16  C5  UNL     1       1.196  18.757  14.445  1.00  0.00     0.077 A
HETATM   17  C4  UNL     1       2.413  18.594  15.085  1.00  0.00     0.038 A
HETATM   18  C3  UNL     1       2.918  19.602  15.893  1.00  0.00     0.009 A
HETATM   19  C2  UNL     1       2.224  20.794  16.079  1.00  0.00    -0.062 A
HETATM   20  C1  UNL     1       2.820  21.836  16.954  1.00  0.00     0.048 C
HETATM   21  C23 UNL     1       1.018  20.928  15.432  1.00  0.00     0.009 A
HETATM   22  C22 UNL     1       0.504  19.926  14.622  1.00  0.00     0.038 A
ENDBRANCH  15  16
ENDBRANCH  12  15
ENDBRANCH   1   9
BRANCH   2  23
HETATM   23  C12 UNL     1       3.044  20.704   9.585  1.00  0.00     0.009 A
HETATM   24  C13 UNL     1       2.215  21.667   9.011  1.00  0.00     0.101 A
HETATM   25  N1  UNL     1       2.098  22.707   9.847  1.00  0.00    -0.364 N
HETATM   26  C14 UNL     1       2.846  22.423  10.958  1.00  0.00     0.043 A
ATOM     27  H1  UNL     1       1.553  23.554   9.686  1.00  0.00     0.165 HD
HETATM   28  C15 UNL     1       3.084  23.133  12.106  1.00  0.00     0.030 A
HETATM   29  C19 UNL     1       3.439  21.183  10.808  1.00  0.00     0.003 A
HETATM   30  C16 UNL     1       3.897  22.637  13.106  1.00  0.00     0.002 A
HETATM   31  C17 UNL     1       4.482  21.405  12.950  1.00  0.00     0.001 A
HETATM   32  C18 UNL     1       4.265  20.680  11.824  1.00  0.00     0.014 A
ENDBRANCH   2  23
TORSDOF 4
ENDMDL