MODEL 4
REMARK VINA RESULT: -6.558963588      2.974      4.390
REMARK  6 active torsions:
REMARK  status: ('A' for Active; 'I' for Inactive)
REMARK    1  A    between atoms: C5_6  and  N2_7
REMARK    2  A    between atoms: N2_7  and  C6_9
REMARK    3  A    between atoms: C6_9  and  N3_11
REMARK    4  A    between atoms: N3_11  and  N4_13
REMARK    5  A    between atoms: C7_15  and  C8_16
REMARK    6  A    between atoms: C9_17  and  C10_18
ROOT
HETATM    1  N1  UNL     1       3.408  23.393  15.159  1.00  0.00    -0.191 NA
HETATM    2  C1  UNL     1       2.611  22.585  15.368  1.00  0.00     0.099 C
HETATM    3  C2  UNL     1       1.610  21.587  15.648  1.00  0.00     0.044 A
HETATM    4  C3  UNL     1       0.296  21.922  15.873  1.00  0.00     0.025 A
HETATM    5  C4  UNL     1      -0.663  20.933  16.146  1.00  0.00     0.031 A
HETATM    6  C5  UNL     1      -0.348  19.603  16.203  1.00  0.00     0.034 A
HETATM    7  C22 UNL     1       1.002  19.273  15.971  1.00  0.00     0.031 A
HETATM    8  C23 UNL     1       1.922  20.246  15.706  1.00  0.00     0.025 A
ENDROOT
BRANCH   6   9
HETATM    9  N2  UNL     1      -1.257  18.556  16.507  1.00  0.00    -0.332 N
ATOM     10  H2  UNL     1      -1.414  18.379  17.499  1.00  0.00     0.168 HD
BRANCH   9  11
HETATM   11  C6  UNL     1      -1.968  17.732  15.620  1.00  0.00     0.191 C
HETATM   12  S1  UNL     1      -3.584  17.788  15.551  1.00  0.00    -0.039 SA
BRANCH  11  13
HETATM   13  N3  UNL     1      -1.285  16.804  14.787  1.00  0.00    -0.276 N
ATOM     14  H3  UNL     1      -1.095  15.863  15.133  1.00  0.00     0.189 HD
BRANCH  13  15
HETATM   15  N4  UNL     1      -0.879  17.157  13.523  1.00  0.00    -0.309 N
HETATM   16  C7  UNL     1      -1.017  18.334  13.010  1.00  0.00     0.121 C
ATOM     17  H4  UNL     1      -0.437  16.439  12.949  1.00  0.00     0.186 HD
BRANCH  16  18
HETATM   18  C8  UNL     1      -0.561  18.628  11.667  1.00  0.00     0.021 A
HETATM   19  C9  UNL     1       0.716  18.934  11.265  1.00  0.00     0.055 A
HETATM   20  N5  UNL     1       0.625  19.013   9.901  1.00  0.00    -0.354 N
HETATM   21  C16 UNL     1      -0.597  18.782   9.470  1.00  0.00     0.043 A
ATOM     22  H5  UNL     1       1.413  19.225   9.290  1.00  0.00     0.166 HD
HETATM   23  C17 UNL     1      -1.107  18.767   8.168  1.00  0.00     0.030 A
HETATM   24  C21 UNL     1      -1.406  18.529  10.549  1.00  0.00     0.004 A
HETATM   25  C18 UNL     1      -2.436  18.499   7.937  1.00  0.00     0.002 A
HETATM   26  C19 UNL     1      -3.253  18.246   9.013  1.00  0.00     0.001 A
HETATM   27  C20 UNL     1      -2.719  18.266  10.300  1.00  0.00     0.014 A
BRANCH  19  28
HETATM   28  C10 UNL     1       1.962  19.114  11.975  1.00  0.00    -0.009 A
HETATM   29  C11 UNL     1       2.551  17.987  12.588  1.00  0.00     0.014 A
HETATM   30  C12 UNL     1       3.759  18.076  13.217  1.00  0.00     0.001 A
HETATM   31  C13 UNL     1       4.456  19.259  13.286  1.00  0.00     0.000 A
HETATM   32  C14 UNL     1       3.872  20.348  12.686  1.00  0.00     0.001 A
HETATM   33  C15 UNL     1       2.638  20.294  12.031  1.00  0.00     0.014 A
ENDBRANCH  19  28
ENDBRANCH  16  18
ENDBRANCH  13  15
ENDBRANCH  11  13
ENDBRANCH   9  11
ENDBRANCH   6   9
TORSDOF 6
ENDMDL