MODEL 2
REMARK VINA RESULT: -8.126213285      0.078      1.232
REMARK  6 active torsions:
REMARK  status: ('A' for Active; 'I' for Inactive)
REMARK    1  A    between atoms: C4_4  and  C5_5
REMARK    2  A    between atoms: C5_5  and  N1_6
REMARK    3  A    between atoms: N1_6  and  C6_8
REMARK    4  A    between atoms: C9_17  and  N5_18
REMARK    5  A    between atoms: N5_18  and  C10_20
REMARK    6  A    between atoms: C13_23  and  C14_24
ROOT
HETATM    1  C6  UNL     1       4.063  18.107  11.987  1.00  0.00     0.680 A
HETATM    2  N2  UNL     1       3.596  17.006  11.374  1.00  0.00    -0.174 N
ATOM      3  H2  UNL     1       3.146  16.224  11.849  1.00  0.00     0.186 HD
HETATM    4  C7  UNL     1       3.803  17.078  10.042  1.00  0.00     0.153 A
HETATM    5  N3  UNL     1       3.557  16.303   8.976  1.00  0.00    -0.336 N
ATOM      6  H3  UNL     1       3.095  15.406   9.120  1.00  0.00     0.168 HD
HETATM    7  C8  UNL     1       3.897  16.661   7.720  1.00  0.00     0.183 A
HETATM    8  N4  UNL     1       4.515  17.845   7.467  1.00  0.00    -0.337 N
ATOM      9  H4  UNL     1       4.771  18.116   6.518  1.00  0.00     0.168 HD
HETATM   10  C9  UNL     1       4.777  18.646   8.518  1.00  0.00     0.138 A
HETATM   11  C22 UNL     1       4.429  18.282   9.812  1.00  0.00     0.137 A
HETATM   12  N6  UNL     1       4.572  18.881  11.005  1.00  0.00    -0.184 N
ATOM     13  H6  UNL     1       5.004  19.793  11.149  1.00  0.00     0.184 HD
ENDROOT
BRANCH  10  14
HETATM   14  N5  UNL     1       5.361  19.795   8.398  1.00  0.00    -0.340 N
ATOM     15  H5  UNL     1       4.880  20.647   8.686  1.00  0.00     0.167 HD
BRANCH  14  16
HETATM   16  C10 UNL     1       6.694  19.866   7.855  1.00  0.00     0.033 A
HETATM   17  C11 UNL     1       7.746  19.209   8.462  1.00  0.00     0.030 A
HETATM   18  C12 UNL     1       9.028  19.250   7.981  1.00  0.00     0.014 A
HETATM   19  C13 UNL     1       9.283  19.984   6.834  1.00  0.00    -0.026 A
HETATM   20  C20 UNL     1       8.250  20.652   6.204  1.00  0.00     0.014 A
HETATM   21  C21 UNL     1       6.971  20.589   6.717  1.00  0.00     0.030 A
BRANCH  19  22
HETATM   22  C14 UNL     1      10.651  20.029   6.319  1.00  0.00    -0.026 A
HETATM   23  C15 UNL     1      11.553  18.996   6.461  1.00  0.00     0.012 A
HETATM   24  C16 UNL     1      12.835  19.075   5.961  1.00  0.00     0.001 A
HETATM   25  C17 UNL     1      13.263  20.188   5.303  1.00  0.00     0.000 A
HETATM   26  C18 UNL     1      12.381  21.237   5.145  1.00  0.00     0.001 A
HETATM   27  C19 UNL     1      11.097  21.147   5.650  1.00  0.00     0.012 A
ENDBRANCH  19  22
ENDBRANCH  14  16
ENDBRANCH  10  14
BRANCH   1  28
HETATM   28  N1  UNL     1       4.044  18.403  13.262  1.00  0.00    -0.222 N
ATOM     29  H1  UNL     1       4.924  18.443  13.777  1.00  0.00     0.178 HD
BRANCH  28  30
HETATM   30  C5  UNL     1       2.806  18.675  13.960  1.00  0.00     0.176 C
BRANCH  30  31
HETATM   31  C4  UNL     1       2.787  19.998  14.598  1.00  0.00    -0.040 A
HETATM   32  C3  UNL     1       2.811  21.136  13.820  1.00  0.00     0.009 A
HETATM   33  C2  UNL     1       2.792  22.390  14.409  1.00  0.00     0.001 A
HETATM   34  C1  UNL     1       2.750  22.495  15.777  1.00  0.00     0.000 A
HETATM   35  C24 UNL     1       2.727  21.379  16.569  1.00  0.00     0.001 A
HETATM   36  C23 UNL     1       2.745  20.125  15.988  1.00  0.00     0.009 A
ENDBRANCH  30  31
ENDBRANCH  28  30
ENDBRANCH   1  28
TORSDOF 6
ENDMDL