MODEL 1
REMARK VINA RESULT: -6.960597955      0.000      0.000
REMARK  4 active torsions:
REMARK  status: ('A' for Active; 'I' for Inactive)
REMARK    1  A    between atoms: S1_2  and  N1_4
REMARK    2  A    between atoms: S1_2  and  C15_22
REMARK    3  A    between atoms: N1_4  and  C1_6
REMARK    4  A    between atoms: C6_11  and  C7_12
ROOT
HETATM    1  C1  UNL     1       2.135  20.720  14.977  1.00  0.00     0.053 A
HETATM    2  C2  UNL     1       1.580  21.439  16.028  1.00  0.00     0.031 A
HETATM    3  C3  UNL     1       0.424  20.946  16.590  1.00  0.00     0.002 A
HETATM    4  C4  UNL     1      -0.156  19.783  16.128  1.00  0.00     0.001 A
HETATM    5  C5  UNL     1       0.412  19.088  15.086  1.00  0.00     0.014 A
HETATM    6  C6  UNL     1       1.591  19.554  14.482  1.00  0.00     0.001 A
ENDROOT
BRANCH   1   7
HETATM    7  N1  UNL     1       3.313  21.218  14.357  1.00  0.00    -0.280 N
ATOM      8  H1  UNL     1       4.204  20.828  14.663  1.00  0.00     0.179 HD
BRANCH   7   9
HETATM    9  S1  UNL     1       3.360  22.421  13.136  1.00  0.00     0.263 S
HETATM   10  O1  UNL     1       2.076  23.252  13.223  1.00  0.00    -0.200 OA
HETATM   11  O2  UNL     1       4.506  23.379  13.272  1.00  0.00    -0.200 OA
BRANCH   9  12
HETATM   12  C15 UNL     1       3.408  21.735  11.524  1.00  0.00     0.080 A
HETATM   13  C16 UNL     1       2.402  22.022  10.636  1.00  0.00     0.027 A
HETATM   14  C17 UNL     1       2.456  21.479   9.369  1.00  0.00     0.033 A
HETATM   15  C18 UNL     1       3.469  20.649   8.928  1.00  0.00     0.059 A
HETATM   16  N3  UNL     1       3.743  20.013   7.779  1.00  0.00    -0.300 N
HETATM   17  C20 UNL     1       4.472  20.373   9.838  1.00  0.00     0.010 A
HETATM   18  N4  UNL     1       4.876  19.339   7.916  1.00  0.00    -0.311 N
ATOM     19  H3  UNL     1       3.171  20.043   6.935  1.00  0.00     0.187 HD
HETATM   20  C19 UNL     1       5.344  19.538   9.155  1.00  0.00     0.120 A
ATOM     21  H4  UNL     1       5.318  18.765   7.197  1.00  0.00     0.186 HD
HETATM   22  C21 UNL     1       4.429  20.913  11.110  1.00  0.00     0.040 A
ENDBRANCH   9  12
ENDBRANCH   7   9
ENDBRANCH   1   7
BRANCH   6  23
HETATM   23  C7  UNL     1       2.184  18.775  13.392  1.00  0.00    -0.023 A
HETATM   24  C8  UNL     1       3.382  18.112  13.497  1.00  0.00     0.014 A
HETATM   25  C9  UNL     1       3.892  17.387  12.429  1.00  0.00     0.031 A
HETATM   26  C10 UNL     1       3.228  17.301  11.220  1.00  0.00     0.042 A
HETATM   27  N2  UNL     1       3.487  16.682  10.048  1.00  0.00    -0.365 N
HETATM   28  C13 UNL     1       2.026  17.965  11.111  1.00  0.00    -0.007 A
HETATM   29  C11 UNL     1       2.500  16.914   9.170  1.00  0.00     0.089 A
ATOM     30  H2  UNL     1       4.316  16.118   9.857  1.00  0.00     0.165 HD
HETATM   31  C12 UNL     1       1.585  17.712   9.821  1.00  0.00     0.030 A
HETATM   32  C14 UNL     1       1.523  18.686  12.186  1.00  0.00     0.026 A
ENDBRANCH   6  23
TORSDOF 4
ENDMDL