MODEL 1
REMARK VINA RESULT: -7.332983905      0.000      0.000
REMARK  6 active torsions:
REMARK  status: ('A' for Active; 'I' for Inactive)
REMARK    1  A    between atoms: O1_1  and  C1_3
REMARK    2  A    between atoms: C8_12  and  N2_13
REMARK    3  A    between atoms: N2_13  and  N3_15
REMARK    4  A    between atoms: C9_17  and  C10_18
REMARK    5  A    between atoms: N4_20  and  C12_21
REMARK    6  A    between atoms: C12_21  and  C13_22
ROOT
HETATM    1  C10 UNL     1       1.895  17.547  11.278  1.00  0.00     0.007 A
HETATM    2  C11 UNL     1       1.284  17.531  12.499  1.00  0.00     0.104 A
HETATM    3  N4  UNL     1      -0.043  17.786  12.678  1.00  0.00    -0.361 N
HETATM    4  C19 UNL     1      -0.796  18.066  11.621  1.00  0.00     0.103 A
HETATM    5  C20 UNL     1      -0.259  18.104  10.335  1.00  0.00    -0.009 A
HETATM    6  C21 UNL     1      -1.058  18.393   9.253  1.00  0.00     0.013 A
HETATM    7  C22 UNL     1      -0.579  18.440   7.968  1.00  0.00     0.001 A
HETATM    8  C23 UNL     1       0.757  18.183   7.801  1.00  0.00     0.001 A
HETATM    9  C24 UNL     1       1.573  17.889   8.890  1.00  0.00     0.013 A
HETATM   10  C25 UNL     1       1.074  17.846  10.172  1.00  0.00    -0.012 A
ENDROOT
BRANCH   1  11
HETATM   11  C9  UNL     1       3.291  17.301  11.095  1.00  0.00     0.120 C
HETATM   12  N3  UNL     1       4.261  17.658  11.787  1.00  0.00    -0.310 N
ATOM     13  H3  UNL     1       5.131  17.318  11.380  1.00  0.00     0.186 HD
BRANCH  12  14
HETATM   14  N2  UNL     1       4.511  18.353  12.908  1.00  0.00    -0.296 N
ATOM     15  H2  UNL     1       4.964  17.874  13.685  1.00  0.00     0.187 HD
BRANCH  14  16
HETATM   16  C8  UNL     1       4.176  19.718  13.063  1.00  0.00     0.111 A
HETATM   17  C1  UNL     1       4.374  20.701  12.086  1.00  0.00     0.170 A
HETATM   18  N1  UNL     1       3.938  21.867  12.575  1.00  0.00    -0.334 N
HETATM   19  C2  UNL     1       3.464  21.704  13.822  1.00  0.00     0.046 A
ATOM     20  H1  UNL     1       3.961  22.754  12.073  1.00  0.00     0.168 HD
HETATM   21  C3  UNL     1       2.917  22.577  14.726  1.00  0.00     0.030 A
HETATM   22  C7  UNL     1       3.608  20.361  14.135  1.00  0.00     0.023 A
HETATM   23  C4  UNL     1       2.498  22.148  15.960  1.00  0.00     0.002 A
HETATM   24  C5  UNL     1       2.647  20.817  16.256  1.00  0.00     0.001 A
HETATM   25  C6  UNL     1       3.189  19.921  15.376  1.00  0.00     0.016 A
BRANCH  17  26
HETATM   26  O1  UNL     1       4.928  20.519  10.812  1.00  0.00    -0.344 OA
ATOM     27  H1  UNL     1       5.110  19.677  10.411  1.00  0.00     0.219 HD
ENDBRANCH  17  26
ENDBRANCH  14  16
ENDBRANCH  12  14
ENDBRANCH   1  11
BRANCH   3  28
HETATM   28  C12 UNL     1      -0.579  17.750  14.005  1.00  0.00     0.166 C
BRANCH  28  29
HETATM   29  C13 UNL     1      -0.698  19.117  14.545  1.00  0.00    -0.040 A
HETATM   30  C14 UNL     1      -0.968  19.260  15.889  1.00  0.00     0.009 A
HETATM   31  C15 UNL     1      -1.095  20.518  16.455  1.00  0.00     0.001 A
HETATM   32  C16 UNL     1      -0.959  21.672  15.714  1.00  0.00     0.000 A
HETATM   33  C17 UNL     1      -0.689  21.510  14.374  1.00  0.00     0.001 A
HETATM   34  C18 UNL     1      -0.560  20.254  13.793  1.00  0.00     0.009 A
ENDBRANCH  28  29
ENDBRANCH   3  28
TORSDOF 6
ENDMDL