MODEL 1
REMARK VINA RESULT: -7.982979790      0.000      0.000
REMARK  4 active torsions:
REMARK  status: ('A' for Active; 'I' for Inactive)
REMARK    1  A    between atoms: S1_2  and  N1_4
REMARK    2  A    between atoms: S1_2  and  C15_22
REMARK    3  A    between atoms: N1_4  and  C1_6
REMARK    4  A    between atoms: C5_10  and  C6_11
ROOT
HETATM    1  C1  UNL     1       4.620  18.459   9.282  1.00  0.00     0.043 A
HETATM    2  C2  UNL     1       3.975  17.264   9.400  1.00  0.00     0.030 A
HETATM    3  C3  UNL     1       3.141  17.058  10.500  1.00  0.00     0.003 A
HETATM    4  C4  UNL     1       2.967  18.037  11.456  1.00  0.00     0.012 A
HETATM    5  C5  UNL     1       3.621  19.246  11.333  1.00  0.00    -0.024 A
HETATM    6  C14 UNL     1       4.427  19.453  10.277  1.00  0.00     0.042 A
ENDROOT
BRANCH   1   7
HETATM    7  N1  UNL     1       5.449  18.785   8.183  1.00  0.00    -0.281 N
ATOM      8  H1  UNL     1       5.079  19.481   7.536  1.00  0.00     0.179 HD
BRANCH   7   9
HETATM    9  S1  UNL     1       6.962  18.170   7.811  1.00  0.00     0.265 S
HETATM   10  O1  UNL     1       7.645  18.950   6.684  1.00  0.00    -0.200 OA
HETATM   11  O2  UNL     1       7.857  18.407   9.024  1.00  0.00    -0.200 OA
BRANCH   9  12
HETATM   12  C15 UNL     1       7.055  16.498   7.341  1.00  0.00     0.108 A
HETATM   13  C16 UNL     1       6.034  15.973   6.514  1.00  0.00     0.028 A
HETATM   14  C17 UNL     1       6.006  14.671   6.096  1.00  0.00     0.004 A
HETATM   15  C18 UNL     1       6.995  13.789   6.470  1.00  0.00     0.032 A
HETATM   16  C19 UNL     1       7.990  14.273   7.266  1.00  0.00     0.061 A
HETATM   17  N3  UNL     1       9.076  13.697   7.792  1.00  0.00    -0.350 N
HETATM   18  C21 UNL     1       8.013  15.599   7.688  1.00  0.00     0.083 A
HETATM   19  C20 UNL     1       9.766  14.605   8.517  1.00  0.00     0.181 A
ATOM     20  H3  UNL     1       9.344  12.720   7.665  1.00  0.00     0.166 HD
HETATM   21  N4  UNL     1       9.118  15.777   8.458  1.00  0.00    -0.349 N
ATOM     22  H4  UNL     1       9.404  16.645   8.909  1.00  0.00     0.166 HD
ENDBRANCH   9  12
ENDBRANCH   7   9
ENDBRANCH   1   7
BRANCH   5  23
HETATM   23  C6  UNL     1       3.454  20.310  12.342  1.00  0.00    -0.025 A
HETATM   24  C7  UNL     1       3.592  21.645  12.026  1.00  0.00     0.014 A
HETATM   25  C8  UNL     1       3.432  22.643  12.984  1.00  0.00     0.031 A
HETATM   26  C9  UNL     1       3.126  22.324  14.291  1.00  0.00     0.042 A
HETATM   27  N2  UNL     1       2.921  23.074  15.396  1.00  0.00    -0.365 N
HETATM   28  C12 UNL     1       2.985  20.991  14.615  1.00  0.00    -0.007 A
HETATM   29  C10 UNL     1       2.644  22.272  16.456  1.00  0.00     0.089 A
ATOM     30  H2  UNL     1       2.966  24.092  15.429  1.00  0.00     0.165 HD
HETATM   31  C11 UNL     1       2.687  20.983  15.963  1.00  0.00     0.030 A
HETATM   32  C13 UNL     1       3.147  20.012  13.653  1.00  0.00     0.026 A
ENDBRANCH   5  23
TORSDOF 4
ENDMDL