MODEL 5
REMARK VINA RESULT: -7.397487813      1.635      2.378
REMARK  4 active torsions:
REMARK  status: ('A' for Active; 'I' for Inactive)
REMARK    1  A    between atoms: S1_2  and  N1_4
REMARK    2  A    between atoms: S1_2  and  C14_23
REMARK    3  A    between atoms: N1_4  and  C1_6
REMARK    4  A    between atoms: C4_9  and  C5_10
ROOT
HETATM    1  C1  UNL     1       1.790  18.475  14.157  1.00  0.00     0.042 A
HETATM    2  C2  UNL     1       3.131  18.370  13.729  1.00  0.00     0.031 A
HETATM    3  C3  UNL     1       3.414  17.970  12.459  1.00  0.00     0.017 A
HETATM    4  C4  UNL     1       2.410  17.657  11.556  1.00  0.00     0.008 A
HETATM    5  C12 UNL     1       1.115  17.766  11.997  1.00  0.00     0.017 A
HETATM    6  C13 UNL     1       0.773  18.172  13.291  1.00  0.00     0.031 A
ENDROOT
BRANCH   1   7
HETATM    7  N1  UNL     1       1.535  18.901  15.475  1.00  0.00    -0.281 N
ATOM      8  H1  UNL     1       1.612  18.206  16.217  1.00  0.00     0.179 HD
BRANCH   7   9
HETATM    9  S1  UNL     1       1.112  20.465  15.918  1.00  0.00     0.264 S
HETATM   10  O1  UNL     1      -0.181  20.387  16.740  1.00  0.00    -0.200 OA
HETATM   11  O2  UNL     1       2.196  21.072  16.822  1.00  0.00    -0.200 OA
BRANCH   9  12
HETATM   12  C14 UNL     1       0.792  21.541  14.604  1.00  0.00     0.092 A
HETATM   13  C15 UNL     1      -0.509  21.838  14.251  1.00  0.00     0.026 A
HETATM   14  C16 UNL     1      -0.784  22.670  13.204  1.00  0.00     0.004 A
HETATM   15  C17 UNL     1       0.259  23.227  12.482  1.00  0.00     0.030 A
HETATM   16  C18 UNL     1       1.573  22.954  12.804  1.00  0.00     0.043 A
HETATM   17  N4  UNL     1       2.755  23.343  12.293  1.00  0.00    -0.365 N
HETATM   18  C21 UNL     1       1.824  22.104  13.876  1.00  0.00     0.015 A
HETATM   19  C19 UNL     1       3.736  22.765  13.007  1.00  0.00     0.089 A
ATOM     20  H4  UNL     1       2.884  23.969  11.498  1.00  0.00     0.165 HD
HETATM   21  C20 UNL     1       3.180  21.977  14.013  1.00  0.00     0.032 A
ENDBRANCH   9  12
ENDBRANCH   7   9
ENDBRANCH   1   7
BRANCH   4  22
HETATM   22  C5  UNL     1       2.722  17.226  10.188  1.00  0.00     0.116 A
HETATM   23  N2  UNL     1       3.746  16.422   9.853  1.00  0.00    -0.340 N
HETATM   24  C6  UNL     1       3.745  16.226   8.508  1.00  0.00     0.060 A
ATOM     25  H2  UNL     1       4.418  16.021  10.507  1.00  0.00     0.167 HD
HETATM   26  C7  UNL     1       4.547  15.509   7.645  1.00  0.00     0.032 A
HETATM   27  C11 UNL     1       2.685  16.931   7.990  1.00  0.00     0.060 A
HETATM   28  C8  UNL     1       4.294  15.497   6.290  1.00  0.00     0.002 A
HETATM   29  C9  UNL     1       3.234  16.198   5.750  1.00  0.00     0.002 A
HETATM   30  C10 UNL     1       2.444  16.908   6.631  1.00  0.00     0.032 A
HETATM   31  N3  UNL     1       2.090  17.525   9.051  1.00  0.00    -0.340 N
ATOM     32  H3  UNL     1       1.266  18.123   8.989  1.00  0.00     0.167 HD
ENDBRANCH   4  22
TORSDOF 4
ENDMDL