MODEL 1
REMARK VINA RESULT: -8.082341364      0.000      0.000
REMARK  5 active torsions:
REMARK  status: ('A' for Active; 'I' for Inactive)
REMARK    1  A    between atoms: N1_1  and  C1_4
REMARK    2  A    between atoms: C6_9  and  C7_10
REMARK    3  A    between atoms: N2_12  and  C9_13
REMARK    4  A    between atoms: C9_13  and  C10_14
REMARK    5  A    between atoms: C15_19  and  C16_20
ROOT
HETATM    1  C7  UNL     1       4.211  18.040   9.939  1.00  0.00     0.062 A
HETATM    2  C8  UNL     1       5.315  18.100   9.079  1.00  0.00     0.126 A
HETATM    3  N2  UNL     1       5.143  17.176   8.127  1.00  0.00    -0.303 N
HETATM    4  C22 UNL     1       3.973  16.542   8.361  1.00  0.00     0.327 A
HETATM    5  O1  UNL     1       3.524  15.628   7.653  1.00  0.00    -0.246 OA
HETATM    6  N3  UNL     1       3.411  17.068   9.459  1.00  0.00    -0.306 N
ATOM      7  H3  UNL     1       2.521  16.779   9.866  1.00  0.00     0.171 HD
ENDROOT
BRANCH   1   8
HETATM    8  C6  UNL     1       3.982  18.868  11.117  1.00  0.00    -0.007 A
HETATM    9  C5  UNL     1       3.463  18.321  12.269  1.00  0.00     0.027 A
HETATM   10  C4  UNL     1       3.242  19.103  13.392  1.00  0.00    -0.008 A
HETATM   11  C3  UNL     1       2.718  18.496  14.523  1.00  0.00     0.017 A
HETATM   12  C25 UNL     1       3.538  20.451  13.382  1.00  0.00     0.044 A
HETATM   13  C2  UNL     1       2.510  19.304  15.626  1.00  0.00     0.049 A
HETATM   14  C1  UNL     1       2.814  20.655  15.592  1.00  0.00     0.099 A
HETATM   15  N4  UNL     1       3.315  21.208  14.495  1.00  0.00    -0.342 N
ATOM     16  H4  UNL     1       3.534  22.204  14.484  1.00  0.00     0.167 HD
HETATM   17  C24 UNL     1       4.059  21.005  12.227  1.00  0.00     0.031 A
HETATM   18  C23 UNL     1       4.272  20.195  11.111  1.00  0.00     0.016 A
BRANCH  14  19
HETATM   19  N1  UNL     1       2.586  21.340  16.675  1.00  0.00    -0.385 N
ATOM     20  H12 UNL     1       2.102  20.942  17.480  1.00  0.00     0.157 HD
ATOM     21  H11 UNL     1       2.914  22.306  16.691  1.00  0.00     0.157 HD
ENDBRANCH  14  19
ENDBRANCH   1   8
BRANCH   3  22
HETATM   22  C9  UNL     1       6.005  16.893   7.026  1.00  0.00     0.172 C
BRANCH  22  23
HETATM   23  C10 UNL     1       7.068  15.926   7.238  1.00  0.00    -0.029 A
HETATM   24  C11 UNL     1       6.694  14.585   7.365  1.00  0.00     0.010 A
HETATM   25  C12 UNL     1       7.595  13.600   7.618  1.00  0.00     0.001 A
HETATM   26  C13 UNL     1       8.940  13.907   7.759  1.00  0.00     0.001 A
HETATM   27  C14 UNL     1       9.304  15.220   7.632  1.00  0.00     0.013 A
HETATM   28  C15 UNL     1       8.383  16.257   7.369  1.00  0.00    -0.018 A
BRANCH  28  29
HETATM   29  C16 UNL     1       8.948  17.605   7.208  1.00  0.00    -0.025 A
HETATM   30  C17 UNL     1       9.139  18.242   6.012  1.00  0.00     0.012 A
HETATM   31  C18 UNL     1       9.671  19.514   5.914  1.00  0.00     0.001 A
HETATM   32  C19 UNL     1      10.031  20.189   7.056  1.00  0.00     0.000 A
HETATM   33  C20 UNL     1       9.857  19.588   8.286  1.00  0.00     0.001 A
HETATM   34  C21 UNL     1       9.319  18.303   8.355  1.00  0.00     0.012 A
ENDBRANCH  28  29
ENDBRANCH  22  23
ENDBRANCH   3  22
TORSDOF 5
ENDMDL