MODEL 3
REMARK VINA RESULT: -8.197893067      2.646      4.259
REMARK  6 active torsions:
REMARK  status: ('A' for Active; 'I' for Inactive)
REMARK    1  A    between atoms: C2_2  and  C3_3
REMARK    2  A    between atoms: C4_4  and  C5_5
REMARK    3  A    between atoms: N1_6  and  N2_8
REMARK    4  A    between atoms: N2_8  and  C6_10
REMARK    5  A    between atoms: C16_24  and  C17_25
REMARK    6  A    between atoms: C21_29  and  N5_30
ROOT
HETATM    1  C3  UNL     1       2.738  17.416   9.110  1.00  0.00    -0.018 A
HETATM    2  C4  UNL     1       3.808  17.571   9.954  1.00  0.00     0.057 A
HETATM    3  N4  UNL     1       4.937  17.050   9.367  1.00  0.00    -0.353 N
ATOM      4  H4  UNL     1       5.866  17.038   9.786  1.00  0.00     0.166 HD
HETATM    5  C15 UNL     1       4.625  16.559   8.155  1.00  0.00     0.056 A
HETATM    6  C16 UNL     1       5.410  15.923   7.220  1.00  0.00     0.018 A
HETATM    7  C22 UNL     1       4.738  15.495   6.062  1.00  0.00     0.016 A
HETATM    8  C23 UNL     1       3.393  15.710   5.892  1.00  0.00     0.002 A
HETATM    9  C24 UNL     1       2.629  16.349   6.838  1.00  0.00     0.014 A
HETATM   10  C25 UNL     1       3.274  16.775   7.984  1.00  0.00     0.000 A
ENDROOT
BRANCH   2  11
HETATM   11  C5  UNL     1       3.762  18.196  11.277  1.00  0.00     0.137 C
HETATM   12  N1  UNL     1       4.790  18.611  11.904  1.00  0.00    -0.309 N
ATOM     13  H1  UNL     1       5.711  18.513  11.477  1.00  0.00     0.186 HD
BRANCH  12  14
HETATM   14  N2  UNL     1       4.678  19.193  13.155  1.00  0.00    -0.300 N
ATOM     15  H2  UNL     1       4.937  18.637  13.970  1.00  0.00     0.187 HD
BRANCH  14  16
HETATM   16  C6  UNL     1       4.264  20.399  13.346  1.00  0.00     0.061 A
HETATM   17  C7  UNL     1       4.809  21.425  12.583  1.00  0.00     0.049 A
HETATM   18  C8  UNL     1       4.328  22.704  12.829  1.00  0.00     0.090 A
HETATM   19  N3  UNL     1       3.384  22.935  13.759  1.00  0.00    -0.365 N
HETATM   20  C9  UNL     1       2.840  21.960  14.510  1.00  0.00     0.044 A
ATOM     21  H3  UNL     1       3.066  23.893  13.901  1.00  0.00     0.165 HD
HETATM   22  C10 UNL     1       1.875  22.205  15.459  1.00  0.00     0.030 A
HETATM   23  C14 UNL     1       3.302  20.668  14.287  1.00  0.00     0.019 A
HETATM   24  C11 UNL     1       1.328  21.195  16.222  1.00  0.00     0.002 A
HETATM   25  C12 UNL     1       1.795  19.918  15.989  1.00  0.00     0.001 A
HETATM   26  C13 UNL     1       2.758  19.643  15.048  1.00  0.00     0.016 A
ENDBRANCH  14  16
ENDBRANCH  12  14
ENDBRANCH   2  11
BRANCH   1  27
HETATM   27  C2  UNL     1       1.316  17.812   9.290  1.00  0.00     0.037 C
HETATM   28  C1  UNL     1       1.027  19.197   8.711  1.00  0.00     0.010 C
ENDBRANCH   1  27
BRANCH   6  29
HETATM   29  C17 UNL     1       6.852  15.765   7.287  1.00  0.00     0.046 A
HETATM   30  C18 UNL     1       7.802  16.672   6.915  1.00  0.00     0.030 A
HETATM   31  C19 UNL     1       9.178  16.433   6.930  1.00  0.00     0.006 A
HETATM   32  C20 UNL     1       9.614  15.199   7.347  1.00  0.00     0.048 A
HETATM   33  C21 UNL     1       8.653  14.286   7.721  1.00  0.00     0.099 A
HETATM   34  N6  UNL     1       7.337  14.553   7.693  1.00  0.00    -0.342 N
ATOM     35  H6  UNL     1       6.680  13.830   7.985  1.00  0.00     0.167 HD
BRANCH  33  36
HETATM   36  N5  UNL     1       9.068  13.125   8.112  1.00  0.00    -0.385 N
ATOM     37  H52 UNL     1       8.522  12.591   8.789  1.00  0.00     0.157 HD
ATOM     38  H51 UNL     1       9.946  12.790   7.715  1.00  0.00     0.157 HD
ENDBRANCH  33  36
ENDBRANCH   6  29
TORSDOF 6
ENDMDL