MODEL 4
REMARK VINA RESULT: -7.674178331      3.343      5.129
REMARK  5 active torsions:
REMARK  status: ('A' for Active; 'I' for Inactive)
REMARK    1  A    between atoms: C7_8  and  N2_9
REMARK    2  A    between atoms: N2_9  and  C8_11
REMARK    3  A    between atoms: C8_11  and  C9_15
REMARK    4  A    between atoms: C15_23  and  C16_24
REMARK    5  A    between atoms: C16_24  and  C17_25
ROOT
HETATM    1  N1  UNL     1       2.826  22.748  11.385  1.00  0.00    -0.191 NA
HETATM    2  C1  UNL     1       2.956  21.894  10.595  1.00  0.00     0.102 C
HETATM    3  C2  UNL     1       3.095  20.862   9.626  1.00  0.00     0.072 A
HETATM    4  C3  UNL     1       3.115  21.185   8.298  1.00  0.00     0.025 A
HETATM    5  C4  UNL     1       3.251  20.144   7.407  1.00  0.00     0.003 A
HETATM    6  C5  UNL     1       3.362  18.841   7.826  1.00  0.00     0.017 A
HETATM    7  C6  UNL     1       3.342  18.525   9.175  1.00  0.00     0.036 A
HETATM    8  C7  UNL     1       3.455  17.209   9.594  1.00  0.00     0.120 A
HETATM    9  N4  UNL     1       3.417  17.050  10.982  1.00  0.00    -0.331 N
ATOM     10  H4  UNL     1       3.495  16.102  11.349  1.00  0.00     0.168 HD
HETATM   11  C15 UNL     1       3.288  18.026  11.851  1.00  0.00     0.087 A
HETATM   12  N6  UNL     1       3.182  19.279  11.394  1.00  0.00    -0.344 N
ATOM     13  H6  UNL     1       3.081  20.045  12.060  1.00  0.00     0.167 HD
HETATM   14  C25 UNL     1       3.206  19.556  10.067  1.00  0.00     0.068 A
ENDROOT
BRANCH   8  15
HETATM   15  N2  UNL     1       3.576  16.237   8.901  1.00  0.00    -0.328 N
ATOM     16  H2  UNL     1       2.911  15.565   9.284  1.00  0.00     0.169 HD
BRANCH  15  17
HETATM   17  C8  UNL     1       4.150  15.591   7.873  1.00  0.00     0.110 C
HETATM   18  N3  UNL     1       3.436  14.943   6.977  1.00  0.00    -0.385 N
ATOM     19  H32 UNL     1       2.427  14.953   7.123  1.00  0.00     0.157 HD
ATOM     20  H31 UNL     1       3.872  14.453   6.197  1.00  0.00     0.157 HD
BRANCH  17  21
HETATM   21  C9  UNL     1       5.621  15.577   7.661  1.00  0.00     0.007 A
HETATM   22  C10 UNL     1       6.243  14.334   7.525  1.00  0.00     0.015 A
HETATM   23  C11 UNL     1       7.604  14.237   7.323  1.00  0.00     0.001 A
HETATM   24  C12 UNL     1       8.385  15.389   7.251  1.00  0.00     0.000 A
HETATM   25  C13 UNL     1       7.778  16.619   7.383  1.00  0.00     0.001 A
HETATM   26  C14 UNL     1       6.393  16.687   7.588  1.00  0.00     0.015 A
ENDBRANCH  17  21
ENDBRANCH  15  17
ENDBRANCH   8  15
BRANCH  11  27
HETATM   27  C16 UNL     1       3.252  17.727  13.301  1.00  0.00     0.117 C
BRANCH  27  28
HETATM   28  C17 UNL     1       2.124  18.356  14.021  1.00  0.00    -0.023 A
HETATM   29  C18 UNL     1       0.778  17.969  13.938  1.00  0.00     0.096 A
HETATM   30  N5  UNL     1       0.028  18.750  14.732  1.00  0.00    -0.365 N
HETATM   31  C19 UNL     1       0.834  19.655  15.351  1.00  0.00     0.042 A
ATOM     32  H5  UNL     1      -0.982  18.677  14.851  1.00  0.00     0.165 HD
HETATM   33  C20 UNL     1       0.560  20.663  16.249  1.00  0.00     0.030 A
HETATM   34  C24 UNL     1       2.126  19.405  14.907  1.00  0.00    -0.001 A
HETATM   35  C21 UNL     1       1.562  21.466  16.742  1.00  0.00     0.002 A
HETATM   36  C22 UNL     1       2.840  21.213  16.297  1.00  0.00     0.001 A
HETATM   37  C23 UNL     1       3.117  20.206  15.400  1.00  0.00     0.014 A
ENDBRANCH  27  28
ENDBRANCH  11  27
TORSDOF 5
ENDMDL