MODEL 3
REMARK VINA RESULT: -7.183016525      2.154      7.942
REMARK  15 active torsions:
REMARK  status: ('A' for Active; 'I' for Inactive)
REMARK    1  A    between atoms: C2_2  and  C3_3
REMARK    2  A    between atoms: C3_3  and  C4_4
REMARK    3  A    between atoms: C4_4  and  C6_6
REMARK    4  A    between atoms: N1_8  and  C8_9
REMARK    5  A    between atoms: C8_9  and  C9_10
REMARK    6  A    between atoms: C9_10  and  C10_11
REMARK    7  A    between atoms: C10_11  and  C11_12
REMARK    8  A    between atoms: C11_12  and  C12_13
REMARK    9  A    between atoms: C12_13  and  C13_14
REMARK       I    between atoms: C13_14  and  N2_16
REMARK   10  A    between atoms: N2_16  and  C14_17
REMARK   11  A    between atoms: N2_16  and  C21_27
REMARK   12  A    between atoms: C14_17  and  O2_18
REMARK   13  A    between atoms: C14_17  and  C15_20
REMARK   14  A    between atoms: C15_20  and  N3_21
REMARK   15  A    between atoms: C31_38  and  O4_39
ROOT
HETATM    1  C13 UNL     1      -7.985  43.827   1.984  1.00  0.00     0.222 C
HETATM    2  O1  UNL     1      -7.302  42.948   2.574  1.00  0.00    -0.273 OA
HETATM    3  N2  UNL     1      -7.852  45.233   2.328  1.00  0.00    -0.319 N
ENDROOT
BRANCH   3   4
HETATM    4  C14 UNL     1      -6.897  45.534   3.363  1.00  0.00     0.240 C
BRANCH   4   5
HETATM    5  O2  UNL     1      -7.102  44.829   4.551  1.00  0.00    -0.375 OA
ATOM      6  H2  UNL     1      -7.995  44.867   4.874  1.00  0.00     0.212 HD
ENDBRANCH   4   5
BRANCH   4   7
HETATM    7  C15 UNL     1      -5.466  45.473   2.946  1.00  0.00     0.170 C
BRANCH   7   8
HETATM    8  N3  UNL     1      -4.945  46.726   2.479  1.00  0.00    -0.408 N
HETATM    9  C16 UNL     1      -5.381  47.884   3.183  1.00  0.00     0.117 C
HETATM   10  C17 UNL     1      -5.353  49.066   2.232  1.00  0.00     0.019 C
HETATM   11  C18 UNL     1      -4.645  48.685   0.972  1.00  0.00     0.003 C
HETATM   12  C19 UNL     1      -3.336  47.947   1.232  1.00  0.00     0.019 C
HETATM   13  C20 UNL     1      -3.561  46.739   2.139  1.00  0.00     0.117 C
ENDBRANCH   7   8
ENDBRANCH   4   7
ENDBRANCH   3   4
BRANCH   3  14
HETATM   14  C21 UNL     1      -8.664  46.144   1.604  1.00  0.00     0.093 C
HETATM   15  C22 UNL     1      -7.995  47.005   0.597  1.00  0.00     0.031 C
HETATM   16  C23 UNL     1      -8.924  48.122   0.176  1.00  0.00    -0.001 C
HETATM   17  C24 UNL     1      -8.639  48.642  -1.189  1.00  0.00     0.006 C
HETATM   18  C33 UNL     1     -10.386  47.791   0.322  1.00  0.00     0.066 A
HETATM   19  C25 UNL     1      -9.799  49.109  -1.987  1.00  0.00     0.008 C
HETATM   20  C26 UNL     1     -10.359  50.455  -1.566  1.00  0.00     0.083 C
HETATM   21  C27 UNL     1     -11.169  50.183  -0.317  1.00  0.00     0.156 C
HETATM   22  O3  UNL     1     -12.057  51.024  -0.006  1.00  0.00    -0.293 OA
HETATM   23  C28 UNL     1     -11.076  49.061   0.607  1.00  0.00     0.000 A
HETATM   24  C29 UNL     1     -11.403  48.633   1.801  1.00  0.00    -0.039 A
HETATM   25  C30 UNL     1     -12.162  49.207   2.985  1.00  0.00     0.047 C
HETATM   26  C31 UNL     1     -10.780  47.330   1.667  1.00  0.00     0.091 A
HETATM   27  C32 UNL     1      -9.538  47.043   2.494  1.00  0.00     0.068 C
BRANCH  26  28
HETATM   28  O4  UNL     1     -11.719  46.313   1.659  1.00  0.00    -0.384 OA
ATOM     29  H4  UNL     1     -11.330  45.479   1.425  1.00  0.00     0.211 HD
ENDBRANCH  26  28
ENDBRANCH   3  14
BRANCH   1  30
HETATM   30  C12 UNL     1      -8.923  43.368   0.930  1.00  0.00     0.103 C
BRANCH  30  31
HETATM   31  C11 UNL     1      -8.186  42.512  -0.083  1.00  0.00     0.009 C
BRANCH  31  32
HETATM   32  C10 UNL     1      -8.968  41.275  -0.424  1.00  0.00     0.002 C
BRANCH  32  33
HETATM   33  C9  UNL     1     -10.398  41.600  -0.621  1.00  0.00     0.020 C
BRANCH  33  34
HETATM   34  C8  UNL     1     -10.744  42.056  -1.986  1.00  0.00     0.127 C
BRANCH  34  35
HETATM   35  N1  UNL     1     -11.488  43.280  -1.986  1.00  0.00    -0.332 N
HETATM   36  C7  UNL     1     -13.000  43.318  -2.058  1.00  0.00     0.153 C
HETATM   37  C6  UNL     1     -13.163  44.573  -2.829  1.00  0.00     0.108 C
HETATM   38  N4  UNL     1     -12.295  45.462  -2.064  1.00  0.00    -0.336 N
HETATM   39  C34 UNL     1     -11.106  44.634  -1.903  1.00  0.00     0.318 C
ATOM     40  H4  UNL     1     -12.473  46.408  -1.730  1.00  0.00     0.164 HD
HETATM   41  O5  UNL     1      -9.967  45.121  -1.730  1.00  0.00    -0.247 OA
BRANCH  37  42
HETATM   42  C4  UNL     1     -14.490  45.089  -3.146  1.00  0.00     0.006 C
HETATM   43  C5  UNL     1     -15.067  45.615  -1.791  1.00  0.00     0.012 C
BRANCH  42  44
HETATM   44  C3  UNL     1     -15.518  44.260  -3.783  1.00  0.00     0.006 C
BRANCH  44  45
HETATM   45  C2  UNL     1     -15.892  44.501  -5.196  1.00  0.00    -0.004 C
HETATM   46  C1  UNL     1     -15.945  45.957  -5.573  1.00  0.00     0.005 C
ENDBRANCH  44  45
ENDBRANCH  42  44
ENDBRANCH  37  42
ENDBRANCH  34  35
ENDBRANCH  33  34
ENDBRANCH  32  33
ENDBRANCH  31  32
ENDBRANCH  30  31
ENDBRANCH   1  30
TORSDOF 15
ENDMDL