MODEL 5
REMARK VINA RESULT: -7.138823848      1.026      1.245
REMARK  16 active torsions:
REMARK  status: ('A' for Active; 'I' for Inactive)
REMARK    1  A    between atoms: C2_2  and  C3_3
REMARK    2  A    between atoms: C3_3  and  N2_7
REMARK    3  A    between atoms: N2_7  and  C4_9
REMARK    4  A    between atoms: C4_9  and  C5_10
REMARK    5  A    between atoms: C5_10  and  C6_11
REMARK    6  A    between atoms: C6_11  and  C7_12
REMARK    7  A    between atoms: C7_12  and  C8_13
REMARK    8  A    between atoms: N3_16  and  C11_17
REMARK    9  A    between atoms: C11_17  and  C12_18
REMARK   10  A    between atoms: C11_17  and  C16_26
REMARK   11  A    between atoms: C12_18  and  C13_19
REMARK   12  A    between atoms: C13_19  and  C14_20
REMARK   13  A    between atoms: C14_20  and  C15_21
REMARK   14  A    between atoms: C15_21  and  N4_22
REMARK       I    between atoms: C16_26  and  N5_28
REMARK       I    between atoms: N6_33  and  C21_34
REMARK   15  A    between atoms: C21_34  and  S1_36
REMARK   16  A    between atoms: S1_36  and  C22_37
ROOT
HETATM    1  C11 UNL     1     -11.749  44.446  -1.267  1.00  0.00     0.314 C
ENDROOT
BRANCH   1   2
HETATM    2  N3  UNL     1     -10.998  43.526  -0.446  1.00  0.00     0.102 N
HETATM    3  C10 UNL     1     -10.216  44.188   0.571  1.00  0.00     0.274 C
HETATM    4  C9  UNL     1      -9.315  43.252   1.347  1.00  0.00     0.035 C
HETATM    5  C8  UNL     1      -8.446  42.408   0.465  1.00  0.00    -0.011 C
HETATM    6  C33 UNL     1      -8.684  42.865  -0.952  1.00  0.00     0.035 C
HETATM    7  C32 UNL     1     -10.192  42.647  -1.184  1.00  0.00     0.274 C
BRANCH   5   8
HETATM    8  C7  UNL     1      -6.997  42.422   0.811  1.00  0.00     0.005 C
BRANCH   8   9
HETATM    9  C6  UNL     1      -6.786  43.071   2.160  1.00  0.00     0.002 C
BRANCH   9  10
HETATM   10  C5  UNL     1      -5.704  44.128   2.115  1.00  0.00     0.020 C
BRANCH  10  11
HETATM   11  C4  UNL     1      -6.243  45.488   1.800  1.00  0.00     0.121 C
BRANCH  11  12
HETATM   12  N2  UNL     1      -6.186  46.315   2.971  1.00  0.00    -0.380 N
ATOM     13  H2  UNL     1      -5.319  46.804   3.196  1.00  0.00     0.160 HD
BRANCH  12  14
HETATM   14  C3  UNL     1      -7.326  46.468   3.838  1.00  0.00     0.070 C
HETATM   15  N1  UNL     1      -8.506  46.718   3.412  1.00  0.00    -0.389 N
ATOM     16  H12 UNL     1      -9.313  46.827   4.026  1.00  0.00     0.157 HD
ATOM     17  H11 UNL     1      -8.692  46.823   2.415  1.00  0.00     0.157 HD
BRANCH  14  18
HETATM   18  C2  UNL     1      -7.056  46.316   5.291  1.00  0.00     0.071 C
HETATM   19  C1  UNL     1      -6.460  44.985   5.632  1.00  0.00     0.013 C
ENDBRANCH  14  18
ENDBRANCH  12  14
ENDBRANCH  11  12
ENDBRANCH  10  11
ENDBRANCH   9  10
ENDBRANCH   8   9
ENDBRANCH   5   8
ENDBRANCH   1   2
BRANCH   1  20
HETATM   20  C12 UNL     1     -12.886  43.663  -1.914  1.00  0.00     0.046 C
BRANCH  20  21
HETATM   21  C13 UNL     1     -13.507  44.548  -2.972  1.00  0.00     0.004 C
BRANCH  21  22
HETATM   22  C14 UNL     1     -14.980  44.214  -3.172  1.00  0.00     0.027 C
BRANCH  22  23
HETATM   23  C15 UNL     1     -15.767  45.065  -2.188  1.00  0.00     0.229 C
BRANCH  23  24
HETATM   24  N4  UNL     1     -15.242  46.388  -2.062  1.00  0.00    -0.079 N
ATOM     25  H43 UNL     1     -14.329  46.464  -2.512  1.00  0.00     0.274 HD
ATOM     26  H42 UNL     1     -15.766  47.045  -2.640  1.00  0.00     0.274 HD
ATOM     27  H41 UNL     1     -15.200  46.703  -1.093  1.00  0.00     0.274 HD
ENDBRANCH  23  24
ENDBRANCH  22  23
ENDBRANCH  21  22
ENDBRANCH  20  21
ENDBRANCH   1  20
BRANCH   1  28
HETATM   28  C16 UNL     1     -12.403  45.508  -0.478  1.00  0.00     0.253 C
HETATM   29  O1  UNL     1     -13.320  45.244   0.340  1.00  0.00    -0.271 OA
HETATM   30  N5  UNL     1     -12.058  46.866  -0.578  1.00  0.00    -0.345 N
HETATM   31  C17 UNL     1     -11.027  47.302  -1.453  1.00  0.00     0.136 C
HETATM   32  C30 UNL     1     -12.729  47.895   0.209  1.00  0.00     0.087 C
HETATM   33  C18 UNL     1     -10.098  48.331  -0.832  1.00  0.00    -0.017 C
HETATM   34  C19 UNL     1      -8.895  47.661  -0.229  1.00  0.00     0.031 C
HETATM   35  C26 UNL     1      -9.609  49.180  -1.999  1.00  0.00     0.031 C
HETATM   36  C27 UNL     1     -10.821  49.242   0.119  1.00  0.00    -0.002 C
HETATM   37  C20 UNL     1      -7.876  48.632   0.259  1.00  0.00     0.127 C
HETATM   38  N6  UNL     1      -7.455  49.436  -0.885  1.00  0.00    -0.343 N
HETATM   39  C21 UNL     1      -6.089  49.536  -1.261  1.00  0.00     0.282 C
HETATM   40  C25 UNL     1      -8.514  50.119  -1.602  1.00  0.00     0.127 C
HETATM   41  O2  UNL     1      -5.810  50.249  -2.257  1.00  0.00    -0.260 OA
HETATM   42  C28 UNL     1     -10.934  48.733   1.515  1.00  0.00     0.007 C
HETATM   43  C31 UNL     1     -12.293  49.240  -0.322  1.00  0.00     0.031 C
HETATM   44  C29 UNL     1     -12.206  47.921   1.630  1.00  0.00     0.026 C
BRANCH  39  45
HETATM   45  S1  UNL     1      -4.811  48.684  -0.355  1.00  0.00    -0.064 SA
BRANCH  45  46
HETATM   46  C22 UNL     1      -3.222  48.864  -1.178  1.00  0.00     0.057 A
HETATM   47  C23 UNL     1      -2.177  49.658  -0.378  1.00  0.00     0.017 A
HETATM   48  C24 UNL     1      -1.997  48.205  -0.639  1.00  0.00     0.017 A
ENDBRANCH  45  46
ENDBRANCH  39  45
ENDBRANCH   1  28
TORSDOF 16
ENDMDL