MODEL 3
REMARK VINA RESULT: -6.573566657      2.049      3.638
REMARK  15 active torsions:
REMARK  status: ('A' for Active; 'I' for Inactive)
REMARK    1  A    between atoms: C2_2  and  N1_3
REMARK    2  A    between atoms: C2_2  and  C27_35
REMARK       I    between atoms: N1_3  and  C3_5
REMARK    3  A    between atoms: C3_5  and  C4_7
REMARK    4  A    between atoms: C4_7  and  N2_8
REMARK    5  A    between atoms: C4_7  and  C24_32
REMARK       I    between atoms: N2_8  and  C5_10
REMARK    6  A    between atoms: C5_10  and  C6_12
REMARK    7  A    between atoms: C6_12  and  C7_13
REMARK    8  A    between atoms: C6_12  and  C20_28
REMARK    9  A    between atoms: C7_13  and  O3_14
REMARK   10  A    between atoms: O3_14  and  C8_15
REMARK   11  A    between atoms: C8_15  and  C9_16
REMARK   12  A    between atoms: C10_17  and  C11_18
REMARK       I    between atoms: C27_35  and  N3_37
REMARK   13  A    between atoms: N3_37  and  C28_39
REMARK   14  A    between atoms: C28_39  and  C29_40
REMARK   15  A    between atoms: C28_39  and  C30_42
ROOT
HETATM    1  N2  UNL     1     -10.243  43.392  -0.240  1.00  0.00    -0.347 N
ATOM      2  H2  UNL     1     -10.296  43.425  -1.259  1.00  0.00     0.163 HD
HETATM    3  C5  UNL     1     -11.078  44.284   0.490  1.00  0.00     0.225 C
HETATM    4  O2  UNL     1     -10.939  44.168   1.766  1.00  0.00    -0.273 OA
ENDROOT
BRANCH   1   5
HETATM    5  C4  UNL     1      -9.335  42.453   0.346  1.00  0.00     0.180 C
BRANCH   5   6
HETATM    6  C3  UNL     1      -8.053  43.143   0.767  1.00  0.00     0.241 C
HETATM    7  N1  UNL     1      -7.827  43.524   2.100  1.00  0.00    -0.346 N
ATOM      8  H1  UNL     1      -8.558  43.321   2.782  1.00  0.00     0.163 HD
HETATM    9  O1  UNL     1      -7.209  43.356  -0.125  1.00  0.00    -0.271 OA
BRANCH   7  10
HETATM   10  C2  UNL     1      -6.639  44.181   2.571  1.00  0.00     0.172 C
HETATM   11  C1  UNL     1      -5.367  43.498   2.104  1.00  0.00     0.042 C
BRANCH  10  12
HETATM   12  C27 UNL     1      -6.647  45.633   2.290  1.00  0.00     0.240 C
HETATM   13  O4  UNL     1      -6.385  46.424   3.227  1.00  0.00    -0.271 OA
HETATM   14  N3  UNL     1      -6.936  46.146   1.018  1.00  0.00    -0.348 N
ATOM     15  H3  UNL     1      -7.143  45.461   0.291  1.00  0.00     0.163 HD
BRANCH  14  16
HETATM   16  C28 UNL     1      -6.974  47.519   0.622  1.00  0.00     0.149 C
BRANCH  16  17
HETATM   17  C29 UNL     1      -8.239  47.753  -0.130  1.00  0.00     0.256 C
HETATM   18  O5  UNL     1      -8.879  46.823  -0.567  1.00  0.00    -0.305 OA
ENDBRANCH  16  17
BRANCH  16  19
HETATM   19  C30 UNL     1      -5.831  47.895  -0.296  1.00  0.00     0.007 C
HETATM   20  C31 UNL     1      -4.631  48.389   0.525  1.00  0.00     0.012 C
HETATM   21  C32 UNL     1      -6.282  49.082  -1.126  1.00  0.00     0.012 C
ENDBRANCH  16  19
ENDBRANCH  14  16
ENDBRANCH  10  12
ENDBRANCH   7  10
ENDBRANCH   5   6
BRANCH   5  22
HETATM   22  C24 UNL     1      -8.918  41.321  -0.524  1.00  0.00     0.009 C
HETATM   23  C25 UNL     1      -8.611  40.040   0.209  1.00  0.00     0.012 C
HETATM   24  C26 UNL     1      -9.939  41.033  -1.622  1.00  0.00     0.012 C
ENDBRANCH   5  22
ENDBRANCH   1   5
BRANCH   3  25
HETATM   25  C6  UNL     1     -12.013  45.250  -0.067  1.00  0.00     0.109 C
BRANCH  25  26
HETATM   26  C7  UNL     1     -13.177  45.608   0.827  1.00  0.00     0.182 C
BRANCH  26  27
HETATM   27  O3  UNL     1     -12.778  46.528   1.825  1.00  0.00    -0.390 OA
BRANCH  27  28
HETATM   28  C8  UNL     1     -12.038  47.513   1.123  1.00  0.00     0.174 C
BRANCH  28  29
HETATM   29  C9  UNL     1     -12.401  48.889   1.565  1.00  0.00     0.033 C
HETATM   30  C10 UNL     1     -11.277  49.538   2.343  1.00  0.00     0.014 C
HETATM   31  C14 UNL     1     -11.704  50.904   2.701  1.00  0.00     0.006 C
HETATM   32  C15 UNL     1     -12.802  51.009   3.707  1.00  0.00     0.027 C
HETATM   33  C16 UNL     1     -10.589  51.884   2.922  1.00  0.00     0.027 C
HETATM   34  S1  UNL     1     -12.458  51.427   1.093  1.00  0.00    -0.150 SA
HETATM   35  C17 UNL     1     -12.688  49.748   0.382  1.00  0.00     0.007 C
HETATM   36  C18 UNL     1     -11.732  49.606  -0.750  1.00  0.00     0.027 C
HETATM   37  C19 UNL     1     -14.126  49.557  -0.021  1.00  0.00     0.027 C
BRANCH  30  38
HETATM   38  C11 UNL     1     -10.752  48.659   3.393  1.00  0.00    -0.017 C
HETATM   39  C12 UNL     1     -11.262  48.831   4.771  1.00  0.00     0.010 C
HETATM   40  C13 UNL     1      -9.220  48.657   3.469  1.00  0.00     0.010 C
ENDBRANCH  30  38
ENDBRANCH  28  29
ENDBRANCH  27  28
ENDBRANCH  26  27
ENDBRANCH  25  26
BRANCH  25  41
HETATM   41  C20 UNL     1     -12.509  44.998  -1.447  1.00  0.00    -0.037 C
HETATM   42  C21 UNL     1     -12.781  43.581  -1.812  1.00  0.00     0.015 C
HETATM   43  C22 UNL     1     -13.823  45.766  -1.621  1.00  0.00     0.015 C
HETATM   44  C23 UNL     1     -11.561  45.649  -2.473  1.00  0.00     0.015 C
ENDBRANCH  25  41
ENDBRANCH   3  25
TORSDOF 15
ENDMDL