MODEL 3
REMARK VINA RESULT: -6.970346478      0.962      1.746
REMARK  16 active torsions:
REMARK  status: ('A' for Active; 'I' for Inactive)
REMARK    1  A    between atoms: C2_2  and  C4_4
REMARK    2  A    between atoms: C4_4  and  C5_5
REMARK    3  A    between atoms: C5_5  and  N1_6
REMARK    4  A    between atoms: C5_5  and  C14_21
REMARK       I    between atoms: N1_6  and  C6_8
REMARK    5  A    between atoms: C6_8  and  C7_10
REMARK    6  A    between atoms: C7_10  and  N2_11
REMARK    7  A    between atoms: C7_10  and  C8_15
REMARK       I    between atoms: C14_21  and  N3_23
REMARK    8  A    between atoms: C16_26  and  C17_27
REMARK    9  A    between atoms: C17_27  and  C19_29
REMARK   10  A    between atoms: C19_29  and  O3_30
REMARK   11  A    between atoms: C22_34  and  N4_35
REMARK   12  A    between atoms: N4_35  and  C23_36
REMARK   13  A    between atoms: N4_35  and  O5_38
REMARK   14  A    between atoms: O5_38  and  C24_39
REMARK   15  A    between atoms: C24_39  and  C25_40
REMARK   16  A    between atoms: C30_45  and  C31_46
ROOT
HETATM    1  C14 UNL     1     -10.005  44.374   0.747  1.00  0.00     0.244 C
HETATM    2  O2  UNL     1     -10.226  43.994   1.952  1.00  0.00    -0.271 OA
HETATM    3  N3  UNL     1     -10.988  45.157   0.171  1.00  0.00    -0.328 N
ATOM      4  H3  UNL     1     -11.769  44.591  -0.159  1.00  0.00     0.168 HD
HETATM    5  C15 UNL     1     -11.173  46.357  -0.049  1.00  0.00     0.028 C
HETATM    6  C16 UNL     1     -12.435  46.774  -0.728  1.00  0.00     0.042 C
HETATM    7  C20 UNL     1     -12.817  48.140  -0.327  1.00  0.00     0.017 C
HETATM    8  C21 UNL     1     -11.769  49.187  -0.637  1.00  0.00     0.061 C
HETATM    9  C22 UNL     1     -10.378  48.629  -0.562  1.00  0.00     0.055 C
HETATM   10  C29 UNL     1     -10.185  47.448   0.299  1.00  0.00     0.009 C
HETATM   11  C30 UNL     1      -9.666  47.444   1.646  1.00  0.00    -0.008 C
ENDROOT
BRANCH   6  12
HETATM   12  C17 UNL     1     -13.566  45.818  -0.567  1.00  0.00     0.015 C
HETATM   13  C18 UNL     1     -14.105  45.462  -1.942  1.00  0.00     0.012 C
BRANCH  12  14
HETATM   14  C19 UNL     1     -14.700  46.195   0.296  1.00  0.00     0.169 C
BRANCH  14  15
HETATM   15  O3  UNL     1     -14.695  45.621   1.549  1.00  0.00    -0.400 OA
ATOM     16  H3  UNL     1     -14.673  46.236   2.272  1.00  0.00     0.209 HD
ENDBRANCH  14  15
ENDBRANCH  12  14
ENDBRANCH   6  12
BRANCH   1  17
HETATM   17  C5  UNL     1      -8.746  43.927   0.148  1.00  0.00     0.177 C
BRANCH  17  18
HETATM   18  C4  UNL     1      -8.827  42.871  -0.864  1.00  0.00     0.038 C
BRANCH  18  19
HETATM   19  C2  UNL     1      -9.670  41.685  -0.690  1.00  0.00    -0.020 C
HETATM   20  C1  UNL     1     -10.665  41.359  -1.746  1.00  0.00     0.009 C
HETATM   21  C3  UNL     1      -8.863  40.438  -0.278  1.00  0.00     0.009 C
ENDBRANCH  18  19
ENDBRANCH  17  18
BRANCH  17  22
HETATM   22  N1  UNL     1      -7.700  43.653   1.099  1.00  0.00    -0.346 N
HETATM   23  C6  UNL     1      -6.740  44.584   1.525  1.00  0.00     0.249 C
HETATM   24  O1  UNL     1      -6.784  45.747   1.052  1.00  0.00    -0.271 OA
ATOM     25  H1  UNL     1      -7.653  42.713   1.493  1.00  0.00     0.163 HD
BRANCH  23  26
HETATM   26  C7  UNL     1      -5.708  44.198   2.510  1.00  0.00     0.278 C
BRANCH  26  27
HETATM   27  N2  UNL     1      -4.978  43.018   2.091  1.00  0.00    -0.066 N
ATOM     28  H23 UNL     1      -5.540  42.174   2.201  1.00  0.00     0.275 HD
ATOM     29  H22 UNL     1      -4.855  42.997   1.078  1.00  0.00     0.275 HD
ATOM     30  H21 UNL     1      -4.083  42.933   2.574  1.00  0.00     0.275 HD
ENDBRANCH  26  27
BRANCH  26  31
HETATM   31  C8  UNL     1      -6.309  43.998   3.890  1.00  0.00     0.025 C
HETATM   32  C9  UNL     1      -5.406  43.321   4.861  1.00  0.00     0.007 C
HETATM   33  C10 UNL     1      -5.179  44.120   6.122  1.00  0.00     0.000 C
HETATM   34  C11 UNL     1      -4.993  45.578   5.856  1.00  0.00     0.000 C
HETATM   35  C12 UNL     1      -6.059  46.184   5.010  1.00  0.00     0.000 C
HETATM   36  C13 UNL     1      -6.998  45.177   4.456  1.00  0.00     0.007 C
ENDBRANCH  26  31
ENDBRANCH  23  26
ENDBRANCH  17  22
ENDBRANCH   1  17
BRANCH   9  37
HETATM   37  N4  UNL     1      -9.397  49.647  -0.536  1.00  0.00    -0.200 N
BRANCH  37  38
HETATM   38  C23 UNL     1      -8.218  49.742  -1.305  1.00  0.00     0.381 C
HETATM   39  O4  UNL     1      -7.526  48.690  -1.512  1.00  0.00    -0.281 OA
ENDBRANCH  37  38
BRANCH  37  40
HETATM   40  O5  UNL     1      -9.568  50.712   0.338  1.00  0.00    -0.270 OA
BRANCH  40  41
HETATM   41  C24 UNL     1      -8.393  51.375   0.559  1.00  0.00     0.210 C
BRANCH  41  42
HETATM   42  C25 UNL     1      -7.960  51.358   2.000  1.00  0.00    -0.027 C
HETATM   43  C26 UNL     1      -7.096  52.579   2.323  1.00  0.00     0.016 C
HETATM   44  C27 UNL     1      -9.134  51.402   2.952  1.00  0.00     0.016 C
HETATM   45  C28 UNL     1      -7.133  50.139   2.334  1.00  0.00     0.016 C
ENDBRANCH  41  42
ENDBRANCH  40  41
ENDBRANCH  37  40
ENDBRANCH   9  37
BRANCH  11  46
HETATM   46  C31 UNL     1     -10.473  47.507   2.871  1.00  0.00     0.001 C
HETATM   47  C32 UNL     1      -9.483  47.882   4.033  1.00  0.00     0.013 C
HETATM   48  C33 UNL     1     -11.544  48.529   3.008  1.00  0.00     0.013 C
ENDBRANCH  11  46
TORSDOF 16
ENDMDL