MODEL 5
REMARK VINA RESULT: -6.990749153      3.626      7.959
REMARK  15 active torsions:
REMARK  status: ('A' for Active; 'I' for Inactive)
REMARK    1  A    between atoms: C2_2  and  C3_3
REMARK    2  A    between atoms: C3_3  and  C4_4
REMARK    3  A    between atoms: C3_3  and  N3_19
REMARK    4  A    between atoms: C4_4  and  C5_5
REMARK    5  A    between atoms: C5_5  and  C6_6
REMARK    6  A    between atoms: C6_6  and  C7_7
REMARK    7  A    between atoms: C7_7  and  C8_8
REMARK    8  A    between atoms: C8_8  and  N1_9
REMARK    9  A    between atoms: N1_9  and  C9_11
REMARK       I    between atoms: N3_19  and  C15_21
REMARK   10  A    between atoms: C15_21  and  O2_23
REMARK   11  A    between atoms: O2_23  and  C16_24
REMARK   12  A    between atoms: C21_29  and  N4_30
REMARK       I    between atoms: N4_30  and  C22_32
REMARK   13  A    between atoms: C22_32  and  C23_34
REMARK   14  A    between atoms: C23_34  and  S1_35
REMARK   15  A    between atoms: S1_35  and  C24_38
ROOT
HETATM    1  O2  UNL     1      -9.381  46.443   1.787  1.00  0.00    -0.297 OA
ENDROOT
BRANCH   1   2
HETATM    2  C15 UNL     1      -9.066  45.079   1.681  1.00  0.00     0.361 C
HETATM    3  N3  UNL     1      -7.748  44.567   1.619  1.00  0.00    -0.332 N
ATOM      4  H3  UNL     1      -6.942  45.191   1.650  1.00  0.00     0.165 HD
HETATM    5  O1  UNL     1     -10.072  44.311   1.647  1.00  0.00    -0.238 OA
BRANCH   3   6
HETATM    6  C3  UNL     1      -7.574  43.140   1.512  1.00  0.00     0.086 C
BRANCH   6   7
HETATM    7  C2  UNL     1      -6.115  42.823   1.884  1.00  0.00     0.021 C
HETATM    8  C1  UNL     1      -5.604  43.778   2.943  1.00  0.00     0.007 C
ENDBRANCH   6   7
BRANCH   6   9
HETATM    9  C4  UNL     1      -7.863  42.601   0.115  1.00  0.00     0.025 C
BRANCH   9  10
HETATM   10  C5  UNL     1      -8.232  41.162   0.141  1.00  0.00     0.002 C
BRANCH  10  11
HETATM   11  C6  UNL     1      -9.452  40.809  -0.587  1.00  0.00     0.002 C
BRANCH  11  12
HETATM   12  C7  UNL     1      -9.954  41.564  -1.738  1.00  0.00     0.020 C
BRANCH  12  13
HETATM   13  C8  UNL     1     -11.336  42.095  -1.745  1.00  0.00     0.121 C
BRANCH  13  14
HETATM   14  N1  UNL     1     -11.300  43.380  -0.990  1.00  0.00    -0.376 N
ATOM     15  H1  UNL     1     -10.516  43.640  -0.391  1.00  0.00     0.161 HD
BRANCH  14  16
HETATM   16  C9  UNL     1     -12.336  44.144  -1.150  1.00  0.00     0.101 A
HETATM   17  C10 UNL     1     -13.055  44.238  -2.319  1.00  0.00     0.054 A
HETATM   18  C11 UNL     1     -14.173  45.056  -2.467  1.00  0.00    -0.057 A
HETATM   19  C12 UNL     1     -14.902  45.102  -3.756  1.00  0.00     0.048 C
HETATM   20  C13 UNL     1     -14.568  45.800  -1.390  1.00  0.00     0.024 A
HETATM   21  C14 UNL     1     -13.834  45.697  -0.220  1.00  0.00     0.090 A
HETATM   22  N2  UNL     1     -12.763  44.903  -0.098  1.00  0.00    -0.353 N
ATOM     23  H2  UNL     1     -12.261  44.864   0.789  1.00  0.00     0.166 HD
ENDBRANCH  14  16
ENDBRANCH  13  14
ENDBRANCH  12  13
ENDBRANCH  11  12
ENDBRANCH  10  11
ENDBRANCH   9  10
ENDBRANCH   6   9
ENDBRANCH   3   6
ENDBRANCH   1   2
BRANCH   1  24
HETATM   24  C16 UNL     1     -10.107  47.108   0.798  1.00  0.00     0.146 C
HETATM   25  C17 UNL     1      -9.780  46.793  -0.614  1.00  0.00     0.019 C
HETATM   26  C18 UNL     1     -10.819  47.553  -1.465  1.00  0.00     0.012 C
HETATM   27  C27 UNL     1      -8.436  47.234  -1.079  1.00  0.00     0.038 C
HETATM   28  C19 UNL     1     -10.709  49.025  -1.248  1.00  0.00    -0.011 C
HETATM   29  C20 UNL     1      -9.312  49.442  -1.653  1.00  0.00     0.035 C
HETATM   30  C31 UNL     1     -10.884  49.402   0.188  1.00  0.00     0.016 C
HETATM   31  C21 UNL     1      -8.263  48.725  -0.850  1.00  0.00     0.034 C
HETATM   32  C28 UNL     1      -8.461  48.931   0.640  1.00  0.00     0.042 C
HETATM   33  C29 UNL     1      -9.876  48.607   0.994  1.00  0.00    -0.014 C
HETATM   34  C30 UNL     1     -10.046  48.870   2.485  1.00  0.00     0.018 C
BRANCH  31  35
HETATM   35  N4  UNL     1      -6.976  49.171  -1.321  1.00  0.00    -0.351 N
HETATM   36  C22 UNL     1      -5.762  48.596  -0.881  1.00  0.00     0.232 C
HETATM   37  O3  UNL     1      -5.706  47.650  -0.058  1.00  0.00    -0.273 OA
ATOM     38  H4  UNL     1      -6.941  49.931  -2.000  1.00  0.00     0.163 HD
BRANCH  36  39
HETATM   39  C23 UNL     1      -4.416  49.073  -1.363  1.00  0.00     0.243 C
BRANCH  39  40
HETATM   40  S1  UNL     1      -4.358  50.852  -1.323  1.00  0.00     0.156 S
HETATM   41  O4  UNL     1      -5.094  51.417  -2.500  1.00  0.00    -0.227 OA
HETATM   42  O5  UNL     1      -5.022  51.362  -0.080  1.00  0.00    -0.227 OA
BRANCH  40  43
HETATM   43  C24 UNL     1      -2.705  51.452  -1.364  1.00  0.00     0.101 C
HETATM   44  C25 UNL     1      -2.581  52.736  -2.134  1.00  0.00     0.026 C
HETATM   45  C26 UNL     1      -2.302  51.748   0.090  1.00  0.00     0.026 C
ENDBRANCH  40  43
ENDBRANCH  39  40
ENDBRANCH  36  39
ENDBRANCH  31  35
ENDBRANCH   1  24
TORSDOF 15
ENDMDL