MODEL 2
REMARK VINA RESULT: -6.847856471      1.041      1.760
REMARK  14 active torsions:
REMARK  status: ('A' for Active; 'I' for Inactive)
REMARK    1  A    between atoms: C2_2  and  C3_3
REMARK    2  A    between atoms: C8_8  and  C9_9
REMARK    3  A    between atoms: C8_8  and  C27_39
REMARK       I    between atoms: C9_9  and  N1_11
REMARK    4  A    between atoms: N1_11  and  C10_13
REMARK    5  A    between atoms: C10_13  and  C11_14
REMARK    6  A    between atoms: C14_17  and  S1_18
REMARK    7  A    between atoms: S1_18  and  N2_21
REMARK    8  A    between atoms: N2_21  and  C15_23
REMARK    9  A    between atoms: C15_23  and  C16_24
REMARK   10  A    between atoms: C16_24  and  C17_25
REMARK   11  A    between atoms: C17_25  and  C18_26
REMARK   12  A    between atoms: C18_26  and  N3_27
REMARK   13  A    between atoms: C23_33  and  C24_34
REMARK   14  A    between atoms: C24_34  and  O4_35
ROOT
HETATM    1  C11 UNL     1      -8.033  42.725   0.190  1.00  0.00    -0.040 A
HETATM    2  C12 UNL     1      -9.242  42.061   0.234  1.00  0.00     0.010 A
HETATM    3  C13 UNL     1     -10.335  42.533  -0.465  1.00  0.00     0.026 A
HETATM    4  C14 UNL     1     -10.278  43.676  -1.235  1.00  0.00     0.079 A
HETATM    5  C25 UNL     1      -9.074  44.345  -1.285  1.00  0.00     0.026 A
HETATM    6  C26 UNL     1      -7.980  43.867  -0.581  1.00  0.00     0.010 A
ENDROOT
BRANCH   1   7
HETATM    7  C10 UNL     1      -6.845  42.218   0.937  1.00  0.00     0.161 C
BRANCH   7   8
HETATM    8  N1  UNL     1      -6.011  43.268   1.465  1.00  0.00    -0.356 N
HETATM    9  C9  UNL     1      -6.354  43.973   2.593  1.00  0.00     0.227 C
HETATM   10  O1  UNL     1      -7.470  43.639   3.140  1.00  0.00    -0.273 OA
ATOM     11  H1  UNL     1      -5.139  43.494   0.988  1.00  0.00     0.162 HD
BRANCH   9  12
HETATM   12  C8  UNL     1      -5.607  45.074   3.272  1.00  0.00     0.048 C
HETATM   13  C3  UNL     1      -4.265  44.514   3.597  1.00  0.00     0.003 C
HETATM   14  C4  UNL     1      -3.642  44.868   4.901  1.00  0.00     0.006 C
HETATM   15  C5  UNL     1      -4.552  44.761   6.086  1.00  0.00     0.000 C
HETATM   16  C6  UNL     1      -5.900  44.275   5.625  1.00  0.00     0.001 C
HETATM   17  C7  UNL     1      -6.365  45.276   4.578  1.00  0.00     0.020 C
BRANCH  13  18
HETATM   18  C2  UNL     1      -3.247  44.560   2.498  1.00  0.00     0.001 C
HETATM   19  C1  UNL     1      -1.860  44.937   3.040  1.00  0.00     0.005 C
ENDBRANCH  13  18
BRANCH  12  20
HETATM   20  C27 UNL     1      -5.607  46.266   2.379  1.00  0.00     0.004 C
HETATM   21  C28 UNL     1      -6.975  46.613   1.883  1.00  0.00     0.006 C
HETATM   22  C29 UNL     1      -7.022  47.969   1.190  1.00  0.00     0.000 C
HETATM   23  C30 UNL     1      -6.656  49.102   2.076  1.00  0.00     0.000 C
HETATM   24  C31 UNL     1      -5.876  48.629   3.277  1.00  0.00     0.000 C
HETATM   25  C32 UNL     1      -4.960  47.508   2.827  1.00  0.00     0.006 C
ENDBRANCH  12  20
ENDBRANCH   9  12
ENDBRANCH   7   8
ENDBRANCH   1   7
BRANCH   4  26
HETATM   26  S1  UNL     1     -11.702  44.232  -2.107  1.00  0.00     0.258 S
HETATM   27  O2  UNL     1     -11.432  45.571  -2.759  1.00  0.00    -0.201 OA
HETATM   28  O3  UNL     1     -12.014  43.198  -3.157  1.00  0.00    -0.201 OA
BRANCH  26  29
HETATM   29  N2  UNL     1     -13.047  44.325  -1.020  1.00  0.00    -0.315 N
ATOM     30  H2  UNL     1     -13.281  43.640  -0.302  1.00  0.00     0.172 HD
BRANCH  29  31
HETATM   31  C15 UNL     1     -13.773  45.525  -1.300  1.00  0.00     0.132 C
BRANCH  31  32
HETATM   32  C16 UNL     1     -14.248  46.235  -0.066  1.00  0.00     0.022 C
BRANCH  32  33
HETATM   33  C17 UNL     1     -13.795  47.677  -0.045  1.00  0.00     0.032 C
BRANCH  33  34
HETATM   34  C18 UNL     1     -12.279  47.778  -0.111  1.00  0.00     0.273 C
BRANCH  34  35
HETATM   35  N3  UNL     1     -11.739  48.202   1.137  1.00  0.00     0.098 N
HETATM   36  C19 UNL     1     -11.338  49.596   1.115  1.00  0.00     0.303 C
HETATM   37  C20 UNL     1     -10.301  49.897   2.173  1.00  0.00     0.302 C
HETATM   38  N4  UNL     1     -10.516  49.166   3.384  1.00  0.00     0.088 N
HETATM   39  C21 UNL     1      -9.479  49.475   4.346  1.00  0.00     0.310 C
HETATM   40  C22 UNL     1     -10.692  47.755   3.213  1.00  0.00     0.309 C
HETATM   41  C23 UNL     1     -10.732  47.389   1.720  1.00  0.00     0.274 C
BRANCH  41  42
HETATM   42  C24 UNL     1     -10.968  45.924   1.614  1.00  0.00     0.201 C
BRANCH  42  43
HETATM   43  O4  UNL     1      -9.974  45.149   2.164  1.00  0.00    -0.399 OA
ATOM     44  H4  UNL     1      -9.304  44.878   1.549  1.00  0.00     0.209 HD
ENDBRANCH  42  43
ENDBRANCH  41  42
ENDBRANCH  34  35
ENDBRANCH  33  34
ENDBRANCH  32  33
ENDBRANCH  31  32
ENDBRANCH  29  31
ENDBRANCH  26  29
ENDBRANCH   4  26
TORSDOF 14
ENDMDL