MODEL 5
REMARK VINA RESULT: -7.357112128      3.526      7.385
REMARK  16 active torsions:
REMARK  status: ('A' for Active; 'I' for Inactive)
REMARK    1  A    between atoms: C2_2  and  C4_4
REMARK    2  A    between atoms: C13_13  and  O1_14
REMARK    3  A    between atoms: O1_14  and  C14_15
REMARK    4  A    between atoms: C14_15  and  C15_17
REMARK    5  A    between atoms: C15_17  and  N1_18
REMARK    6  A    between atoms: C19_22  and  C20_23
REMARK    7  A    between atoms: C20_23  and  O3_24
REMARK    8  A    between atoms: O3_24  and  N2_25
REMARK    9  A    between atoms: C21_27  and  C22_28
REMARK       I    between atoms: C22_28  and  N3_30
REMARK   10  A    between atoms: N3_30  and  C23_32
REMARK   11  A    between atoms: C23_32  and  C24_33
REMARK   12  A    between atoms: C24_33  and  C25_34
REMARK   13  A    between atoms: C25_34  and  C26_35
REMARK   14  A    between atoms: C26_35  and  C27_36
REMARK   15  A    between atoms: C27_36  and  N4_37
REMARK   16  A    between atoms: C28_41  and  O5_42
ROOT
HETATM    1  C4  UNL     1      -9.602  41.537  -0.356  1.00  0.00    -0.003 C
HETATM    2  C5  UNL     1     -10.238  41.186  -1.721  1.00  0.00     0.006 C
HETATM    3  C6  UNL     1     -11.289  42.250  -1.952  1.00  0.00     0.006 C
HETATM    4  C7  UNL     1     -11.225  43.085  -0.742  1.00  0.00    -0.002 C
HETATM    5  C8  UNL     1     -11.585  44.499  -0.848  1.00  0.00    -0.005 C
HETATM    6  C9  UNL     1     -12.978  44.787  -1.310  1.00  0.00     0.006 C
HETATM    7  C10 UNL     1     -12.973  46.279  -1.670  1.00  0.00     0.005 C
HETATM    8  C11 UNL     1     -12.527  47.112  -0.526  1.00  0.00    -0.005 C
HETATM    9  C12 UNL     1     -11.424  48.111  -0.887  1.00  0.00     0.038 C
HETATM   10  C13 UNL     1     -11.342  49.053   0.284  1.00  0.00     0.141 C
HETATM   11  C19 UNL     1     -10.724  48.253   1.409  1.00  0.00     0.070 C
HETATM   12  C28 UNL     1     -11.720  47.224   1.819  1.00  0.00     0.131 C
HETATM   13  C29 UNL     1     -12.233  46.343   0.732  1.00  0.00     0.023 C
HETATM   14  C30 UNL     1     -11.453  45.102   0.557  1.00  0.00    -0.003 C
HETATM   15  C31 UNL     1      -9.977  45.179   0.800  1.00  0.00     0.006 C
HETATM   16  C32 UNL     1      -9.472  43.741   0.880  1.00  0.00     0.010 C
HETATM   17  C33 UNL     1      -9.713  43.012  -0.406  1.00  0.00    -0.036 C
HETATM   18  C34 UNL     1      -8.902  43.597  -1.510  1.00  0.00     0.016 C
ENDROOT
BRANCH  11  19
HETATM   19  C20 UNL     1     -10.376  49.098   2.597  1.00  0.00     0.211 C
BRANCH  19  20
HETATM   20  O3  UNL     1     -10.375  48.367   3.804  1.00  0.00    -0.280 OA
BRANCH  20  21
HETATM   21  N2  UNL     1      -9.344  47.588   4.222  1.00  0.00    -0.273 N
HETATM   22  C21 UNL     1      -8.123  47.980   4.308  1.00  0.00     0.188 C
ATOM     23  H2  UNL     1      -9.553  46.625   4.487  1.00  0.00     0.193 HD
BRANCH  22  24
HETATM   24  C22 UNL     1      -7.098  47.070   4.766  1.00  0.00     0.258 C
HETATM   25  O4  UNL     1      -5.908  47.487   4.923  1.00  0.00    -0.267 OA
HETATM   26  N3  UNL     1      -7.377  45.704   5.053  1.00  0.00    -0.356 N
ATOM     27  H3  UNL     1      -8.325  45.348   4.935  1.00  0.00     0.162 HD
BRANCH  26  28
HETATM   28  C23 UNL     1      -6.334  44.816   5.510  1.00  0.00     0.123 C
BRANCH  28  29
HETATM   29  C24 UNL     1      -6.229  43.595   4.613  1.00  0.00     0.020 C
BRANCH  29  30
HETATM   30  C25 UNL     1      -6.267  43.962   3.164  1.00  0.00     0.003 C
BRANCH  30  31
HETATM   31  C26 UNL     1      -4.949  43.683   2.491  1.00  0.00     0.027 C
BRANCH  31  32
HETATM   32  C27 UNL     1      -3.961  44.780   2.737  1.00  0.00     0.229 C
BRANCH  32  33
HETATM   33  N4  UNL     1      -4.525  46.094   2.438  1.00  0.00    -0.079 N
ATOM     34  H43 UNL     1      -4.781  46.174   1.454  1.00  0.00     0.274 HD
ATOM     35  H42 UNL     1      -5.450  46.204   2.853  1.00  0.00     0.274 HD
ATOM     36  H41 UNL     1      -3.899  46.848   2.721  1.00  0.00     0.274 HD
ENDBRANCH  32  33
ENDBRANCH  31  32
ENDBRANCH  30  31
ENDBRANCH  29  30
ENDBRANCH  28  29
ENDBRANCH  26  28
ENDBRANCH  22  24
ENDBRANCH  20  21
ENDBRANCH  19  20
ENDBRANCH  11  19
BRANCH  10  37
HETATM   37  O1  UNL     1     -10.769  50.277   0.048  1.00  0.00    -0.314 OA
BRANCH  37  38
HETATM   38  C14 UNL     1     -11.279  51.237  -0.812  1.00  0.00     0.285 C
HETATM   39  O2  UNL     1     -12.484  51.049  -1.105  1.00  0.00    -0.263 OA
BRANCH  38  40
HETATM   40  C15 UNL     1     -10.422  52.324  -1.280  1.00  0.00     0.346 C
BRANCH  40  41
HETATM   41  N1  UNL     1      -9.307  51.920  -2.083  1.00  0.00    -0.070 N
HETATM   42  C16 UNL     1      -9.655  50.839  -2.965  1.00  0.00     0.272 C
HETATM   43  C17 UNL     1      -8.990  53.070  -2.947  1.00  0.00     0.272 C
HETATM   44  C18 UNL     1      -8.115  51.659  -1.295  1.00  0.00     0.272 C
ENDBRANCH  40  41
ENDBRANCH  38  40
ENDBRANCH  37  38
ENDBRANCH  10  37
BRANCH  12  45
HETATM   45  O5  UNL     1     -12.813  47.937   2.372  1.00  0.00    -0.395 OA
ATOM     46  H5  UNL     1     -13.365  47.287   2.790  1.00  0.00     0.210 HD
ENDBRANCH  12  45
BRANCH   1  47
HETATM   47  C2  UNL     1      -8.263  40.925  -0.212  1.00  0.00    -0.018 C
HETATM   48  C1  UNL     1      -8.364  39.426   0.097  1.00  0.00     0.010 C
HETATM   49  C3  UNL     1      -7.556  41.521   0.988  1.00  0.00     0.010 C
ENDBRANCH   1  47
TORSDOF 16
ENDMDL