MODEL 3
REMARK VINA RESULT: -7.715788951      0.849      1.125
REMARK  13 active torsions:
REMARK  status: ('A' for Active; 'I' for Inactive)
REMARK    1  A    between atoms: C2_2  and  C3_3
REMARK    2  A    between atoms: C5_5  and  O1_6
REMARK    3  A    between atoms: C16_20  and  N1_21
REMARK       I    between atoms: N1_21  and  C17_23
REMARK    4  A    between atoms: C17_23  and  C18_25
REMARK    5  A    between atoms: C18_25  and  C19_26
REMARK    6  A    between atoms: C19_26  and  C20_27
REMARK    7  A    between atoms: C20_27  and  C21_28
REMARK    8  A    between atoms: C21_28  and  C22_29
REMARK    9  A    between atoms: C22_29  and  C23_30
REMARK   10  A    between atoms: C23_30  and  C24_31
REMARK   11  A    between atoms: C24_31  and  C25_32
REMARK   12  A    between atoms: C25_32  and  N2_33
REMARK   13  A    between atoms: C30_38  and  C31_39
ROOT
HETATM    1  C3  UNL     1      -6.710  48.829   0.025  1.00  0.00    -0.020 C
HETATM    2  C4  UNL     1      -6.567  48.588   1.439  1.00  0.00    -0.038 C
HETATM    3  C5  UNL     1      -5.353  49.074   2.168  1.00  0.00     0.180 C
HETATM    4  C6  UNL     1      -4.649  48.168   3.048  1.00  0.00     0.191 A
HETATM    5  O2  UNL     1      -3.867  47.129   2.902  1.00  0.00    -0.365 OA
HETATM    6  C7  UNL     1      -4.989  46.889   3.463  1.00  0.00     0.108 A
HETATM    7  C8  UNL     1      -5.999  47.237   4.490  1.00  0.00     0.106 C
HETATM    8  C9  UNL     1      -6.154  46.057   5.368  1.00  0.00     0.157 C
HETATM    9  O3  UNL     1      -7.144  46.037   6.151  1.00  0.00    -0.293 OA
HETATM   10  C10 UNL     1      -5.313  44.860   5.483  1.00  0.00     0.047 C
HETATM   11  C11 UNL     1      -4.706  44.249   4.457  1.00  0.00    -0.014 C
HETATM   12  C12 UNL     1      -4.685  44.553   2.978  1.00  0.00    -0.021 C
HETATM   13  C13 UNL     1      -3.300  44.695   2.481  1.00  0.00     0.019 C
HETATM   14  C14 UNL     1      -5.276  43.270   2.355  1.00  0.00     0.019 C
HETATM   15  C15 UNL     1      -5.597  45.712   2.862  1.00  0.00     0.059 C
HETATM   16  C16 UNL     1      -6.368  46.086   1.683  1.00  0.00     0.109 C
HETATM   17  C32 UNL     1      -7.051  47.371   2.145  1.00  0.00     0.032 A
HETATM   18  C33 UNL     1      -8.494  47.165   2.389  1.00  0.00    -0.013 A
HETATM   19  C34 UNL     1      -8.478  47.418   3.679  1.00  0.00    -0.022 A
HETATM   20  C35 UNL     1      -7.085  47.664   3.619  1.00  0.00     0.041 A
ENDROOT
BRANCH  16  21
HETATM   21  N1  UNL     1      -7.442  45.118   1.384  1.00  0.00    -0.355 N
HETATM   22  C17 UNL     1      -7.934  44.843   0.088  1.00  0.00     0.217 C
HETATM   23  O4  UNL     1      -7.438  45.443  -0.879  1.00  0.00    -0.274 OA
ATOM     24  H1  UNL     1      -7.857  44.614   2.167  1.00  0.00     0.162 HD
BRANCH  22  25
HETATM   25  C18 UNL     1      -9.011  43.878  -0.156  1.00  0.00     0.103 C
BRANCH  25  26
HETATM   26  C19 UNL     1      -8.649  42.512  -0.542  1.00  0.00     0.009 C
BRANCH  26  27
HETATM   27  C20 UNL     1      -9.735  41.522  -0.392  1.00  0.00     0.000 C
BRANCH  27  28
HETATM   28  C21 UNL     1     -10.437  41.334  -1.738  1.00  0.00     0.000 C
BRANCH  28  29
HETATM   29  C22 UNL     1     -11.783  41.973  -1.754  1.00  0.00     0.000 C
BRANCH  29  30
HETATM   30  C23 UNL     1     -11.776  43.290  -2.488  1.00  0.00     0.002 C
BRANCH  30  31
HETATM   31  C24 UNL     1     -13.061  44.029  -2.229  1.00  0.00     0.030 C
BRANCH  31  32
HETATM   32  C25 UNL     1     -12.740  45.466  -1.907  1.00  0.00     0.273 C
BRANCH  32  33
HETATM   33  N2  UNL     1     -13.201  45.782  -0.576  1.00  0.00     0.103 N
HETATM   34  C26 UNL     1     -12.403  45.095   0.435  1.00  0.00     0.274 C
HETATM   35  C27 UNL     1     -11.821  46.150   1.338  1.00  0.00     0.037 C
HETATM   36  C28 UNL     1     -11.732  47.334   0.398  1.00  0.00     0.027 C
HETATM   37  C29 UNL     1     -11.606  48.629   1.140  1.00  0.00     0.012 C
HETATM   38  C30 UNL     1     -13.036  47.204  -0.352  1.00  0.00     0.326 C
BRANCH  38  39
HETATM   39  C31 UNL     1     -14.159  47.729   0.474  1.00  0.00     0.208 C
HETATM   40  O5  UNL     1     -14.466  48.945   0.509  1.00  0.00    -0.646 OA
HETATM   41  O6  UNL     1     -14.911  46.851   1.243  1.00  0.00    -0.646 OA
ENDBRANCH  38  39
ENDBRANCH  32  33
ENDBRANCH  31  32
ENDBRANCH  30  31
ENDBRANCH  29  30
ENDBRANCH  28  29
ENDBRANCH  27  28
ENDBRANCH  26  27
ENDBRANCH  25  26
ENDBRANCH  22  25
ENDBRANCH  16  21
BRANCH   1  42
HETATM   42  C2  UNL     1      -5.784  48.426  -1.036  1.00  0.00     0.023 C
HETATM   43  C1  UNL     1      -5.328  49.643  -1.881  1.00  0.00     0.009 C
ENDBRANCH   1  42
BRANCH   3  44
HETATM   44  O1  UNL     1      -4.402  49.668   1.291  1.00  0.00    -0.388 OA
ATOM     45  H1  UNL     1      -3.585  49.868   1.732  1.00  0.00     0.210 HD
ENDBRANCH   3  44
TORSDOF 13
ENDMDL