MODEL 2
REMARK VINA RESULT: -7.261671153      2.377      6.961
REMARK  14 active torsions:
REMARK  status: ('A' for Active; 'I' for Inactive)
REMARK    1  A    between atoms: C2_2  and  C4_4
REMARK    2  A    between atoms: C4_4  and  C5_5
REMARK    3  A    between atoms: C6_8  and  C7_9
REMARK    4  A    between atoms: C7_9  and  C8_10
REMARK    5  A    between atoms: C12_17  and  C13_18
REMARK    6  A    between atoms: C13_18  and  C14_19
REMARK    7  A    between atoms: C14_19  and  C15_20
REMARK    8  A    between atoms: C15_20  and  C16_21
REMARK    9  A    between atoms: C16_21  and  C17_22
REMARK   10  A    between atoms: C17_22  and  C18_23
REMARK       I    between atoms: C18_23  and  N3_25
REMARK   11  A    between atoms: N3_25  and  C19_27
REMARK   12  A    between atoms: C19_27  and  C20_28
REMARK   13  A    between atoms: C20_28  and  C21_29
REMARK   14  A    between atoms: C21_29  and  N4_30
ROOT
HETATM    1  C5  UNL     1      -9.323  49.391  -0.652  1.00  0.00    -0.017 C
HETATM    2  N1  UNL     1      -9.018  48.236  -1.052  1.00  0.00    -0.383 N
ATOM      3  H1  UNL     1      -9.485  47.871  -1.882  1.00  0.00     0.160 HD
HETATM    4  C6  UNL     1      -8.004  47.373  -0.367  1.00  0.00     0.173 C
HETATM    5  C11 UNL     1      -8.357  46.005  -0.937  1.00  0.00     0.241 C
HETATM    6  O1  UNL     1      -7.452  45.276  -1.383  1.00  0.00    -0.271 OA
HETATM    7  N2  UNL     1      -9.651  45.487  -1.013  1.00  0.00    -0.346 N
ATOM      8  H2  UNL     1      -9.846  44.939  -1.851  1.00  0.00     0.163 HD
HETATM    9  C12 UNL     1     -10.756  45.601  -0.096  1.00  0.00     0.176 C
HETATM   10  C27 UNL     1     -10.468  45.237   1.266  1.00  0.00     0.240 C
HETATM   11  O3  UNL     1     -10.222  44.007   1.564  1.00  0.00    -0.271 OA
HETATM   12  N6  UNL     1     -10.418  46.125   2.374  1.00  0.00    -0.359 N
ATOM     13  H6  UNL     1      -9.910  45.811   3.201  1.00  0.00     0.162 HD
HETATM   14  C28 UNL     1     -11.025  47.434   2.428  1.00  0.00     0.123 C
HETATM   15  C29 UNL     1     -10.072  48.312   3.240  1.00  0.00     0.024 C
HETATM   16  C30 UNL     1     -10.453  49.745   3.288  1.00  0.00    -0.017 C
HETATM   17  C31 UNL     1      -9.392  50.485   4.074  1.00  0.00     0.010 C
HETATM   18  C32 UNL     1     -10.808  50.403   2.006  1.00  0.00     0.005 C
HETATM   19  C33 UNL     1      -9.711  51.027   1.231  1.00  0.00     0.006 C
HETATM   20  C34 UNL     1      -8.792  50.142   0.484  1.00  0.00     0.052 C
ENDROOT
BRANCH   9  21
HETATM   21  C13 UNL     1     -11.930  44.789  -0.634  1.00  0.00     0.035 C
BRANCH  21  22
HETATM   22  C14 UNL     1     -11.611  43.952  -1.832  1.00  0.00     0.002 C
BRANCH  22  23
HETATM   23  C15 UNL     1     -12.343  42.600  -1.770  1.00  0.00     0.001 C
BRANCH  23  24
HETATM   24  C16 UNL     1     -11.290  41.501  -1.625  1.00  0.00     0.009 C
BRANCH  24  25
HETATM   25  C17 UNL     1      -9.895  41.978  -1.741  1.00  0.00     0.103 C
BRANCH  25  26
HETATM   26  C18 UNL     1      -9.000  41.572  -0.613  1.00  0.00     0.217 C
HETATM   27  O2  UNL     1      -9.033  40.450  -0.111  1.00  0.00    -0.274 OA
HETATM   28  N3  UNL     1      -8.098  42.567  -0.155  1.00  0.00    -0.361 N
ATOM     29  H3  UNL     1      -8.101  43.495  -0.578  1.00  0.00     0.162 HD
BRANCH  28  30
HETATM   30  C19 UNL     1      -7.169  42.255   0.921  1.00  0.00     0.124 C
BRANCH  30  31
HETATM   31  C20 UNL     1      -6.666  43.513   1.591  1.00  0.00     0.050 C
BRANCH  31  32
HETATM   32  C21 UNL     1      -6.778  43.365   3.084  1.00  0.00     0.274 C
BRANCH  32  33
HETATM   33  N4  UNL     1      -5.504  43.464   3.731  1.00  0.00     0.091 N
HETATM   34  C22 UNL     1      -4.690  44.543   3.273  1.00  0.00     0.302 C
HETATM   35  C23 UNL     1      -4.218  45.380   4.429  1.00  0.00     0.302 C
HETATM   36  N5  UNL     1      -5.330  45.759   5.263  1.00  0.00     0.087 N
HETATM   37  C24 UNL     1      -6.133  46.750   4.605  1.00  0.00     0.310 C
HETATM   38  C25 UNL     1      -6.111  44.673   5.758  1.00  0.00     0.302 C
HETATM   39  C26 UNL     1      -5.585  43.355   5.164  1.00  0.00     0.302 C
ENDBRANCH  32  33
ENDBRANCH  31  32
ENDBRANCH  30  31
ENDBRANCH  28  30
ENDBRANCH  25  26
ENDBRANCH  24  25
ENDBRANCH  23  24
ENDBRANCH  22  23
ENDBRANCH  21  22
ENDBRANCH   9  21
BRANCH   4  40
HETATM   40  C7  UNL     1      -6.686  47.868  -0.762  1.00  0.00     0.038 C
BRANCH  40  41
HETATM   41  C8  UNL     1      -5.619  48.328   0.100  1.00  0.00    -0.020 C
HETATM   42  C9  UNL     1      -4.392  48.776  -0.778  1.00  0.00     0.009 C
HETATM   43  C10 UNL     1      -5.070  47.610   1.254  1.00  0.00     0.009 C
ENDBRANCH  40  41
ENDBRANCH   4  40
BRANCH   1  44
HETATM   44  C4  UNL     1     -10.368  50.100  -1.483  1.00  0.00     0.055 C
BRANCH  44  45
HETATM   45  C2  UNL     1      -9.804  51.324  -2.161  1.00  0.00    -0.018 C
HETATM   46  C1  UNL     1     -10.798  52.469  -2.107  1.00  0.00     0.010 C
HETATM   47  C3  UNL     1      -9.660  51.012  -3.661  1.00  0.00     0.010 C
ENDBRANCH  44  45
ENDBRANCH   1  44
TORSDOF 14
ENDMDL