MODEL 2
REMARK VINA RESULT: -7.019616365      0.685      1.028
REMARK  16 active torsions:
REMARK  status: ('A' for Active; 'I' for Inactive)
REMARK    1  A    between atoms: O1_2  and  C2_3
REMARK    2  A    between atoms: C2_3  and  C3_5
REMARK    3  A    between atoms: C3_5  and  C4_6
REMARK    4  A    between atoms: C4_6  and  C5_7
REMARK    5  A    between atoms: C5_7  and  C6_8
REMARK    6  A    between atoms: C7_9  and  C8_10
REMARK    7  A    between atoms: C8_10  and  C9_11
REMARK    8  A    between atoms: C10_12  and  O3_13
REMARK    9  A    between atoms: C11_17  and  C12_18
REMARK   10  A    between atoms: C12_18  and  C13_19
REMARK   11  A    between atoms: C17_26  and  C18_27
REMARK   12  A    between atoms: C18_27  and  C19_28
REMARK   13  A    between atoms: C25_37  and  N4_38
REMARK   14  A    between atoms: N4_38  and  C26_40
REMARK   15  A    between atoms: C26_40  and  C27_41
REMARK   16  A    between atoms: C27_41  and  C28_42
ROOT
HETATM    1  C9  UNL     1      -6.747  44.600   2.832  1.00  0.00     0.039 C
HETATM    2  C10 UNL     1      -6.949  44.494   4.292  1.00  0.00     0.146 C
HETATM    3  N1  UNL     1      -7.244  45.416   5.261  1.00  0.00    -0.357 N
ATOM      4  H1  UNL     1      -8.111  45.235   5.766  1.00  0.00     0.162 HD
HETATM    5  C11 UNL     1      -6.528  46.620   5.697  1.00  0.00     0.176 C
HETATM    6  C16 UNL     1      -5.665  46.153   6.817  1.00  0.00     0.241 C
HETATM    7  O4  UNL     1      -6.246  45.930   7.908  1.00  0.00    -0.271 OA
HETATM    8  N2  UNL     1      -4.269  45.940   6.760  1.00  0.00    -0.348 N
ATOM      9  H2  UNL     1      -3.933  45.060   7.152  1.00  0.00     0.163 HD
HETATM   10  C17 UNL     1      -3.267  46.812   6.217  1.00  0.00     0.154 C
HETATM   11  C22 UNL     1      -2.523  46.191   5.104  1.00  0.00     0.154 C
HETATM   12  O5  UNL     1      -1.521  46.703   4.681  1.00  0.00    -0.295 OA
HETATM   13  C23 UNL     1      -3.018  44.935   4.506  1.00  0.00     0.125 C
HETATM   14  C24 UNL     1      -3.693  45.330   3.198  1.00  0.00     0.070 C
HETATM   15  N3  UNL     1      -4.356  44.298   2.554  1.00  0.00    -0.355 N
ATOM     16  H3  UNL     1      -3.687  43.662   2.119  1.00  0.00     0.166 HD
HETATM   17  C25 UNL     1      -5.530  43.910   2.344  1.00  0.00     0.111 C
ENDROOT
BRANCH  17  18
HETATM   18  N4  UNL     1      -5.774  42.698   1.567  1.00  0.00    -0.376 N
ATOM     19  H4  UNL     1      -4.969  42.172   1.224  1.00  0.00     0.161 HD
BRANCH  18  20
HETATM   20  C26 UNL     1      -7.076  42.211   1.262  1.00  0.00     0.125 C
BRANCH  20  21
HETATM   21  C27 UNL     1      -7.706  42.819   0.055  1.00  0.00     0.047 C
BRANCH  21  22
HETATM   22  C28 UNL     1      -8.775  41.939  -0.511  1.00  0.00    -0.022 C
HETATM   23  C29 UNL     1      -9.726  42.400  -1.291  1.00  0.00    -0.084 C
HETATM   24  C30 UNL     1      -9.800  43.852  -1.668  1.00  0.00     0.034 C
HETATM   25  C34 UNL     1     -10.767  41.519  -1.837  1.00  0.00     0.034 C
HETATM   26  C31 UNL     1     -11.077  44.086  -2.451  1.00  0.00     0.004 C
HETATM   27  C32 UNL     1     -12.222  43.554  -1.617  1.00  0.00     0.001 C
HETATM   28  C33 UNL     1     -12.168  42.058  -1.652  1.00  0.00     0.004 C
ENDBRANCH  21  22
ENDBRANCH  20  21
ENDBRANCH  18  20
ENDBRANCH  17  18
BRANCH   1  29
HETATM   29  C8  UNL     1      -7.025  45.922   2.212  1.00  0.00     0.073 C
BRANCH  29  30
HETATM   30  C7  UNL     1      -8.486  45.982   1.855  1.00  0.00    -0.026 C
HETATM   31  C6  UNL     1      -8.877  46.639   0.768  1.00  0.00    -0.030 C
BRANCH  31  32
HETATM   32  C5  UNL     1     -10.325  46.687   0.436  1.00  0.00     0.027 C
BRANCH  32  33
HETATM   33  C4  UNL     1     -11.173  46.183   1.570  1.00  0.00     0.013 C
BRANCH  33  34
HETATM   34  C3  UNL     1     -12.426  45.518   1.123  1.00  0.00     0.111 C
BRANCH  34  35
HETATM   35  C2  UNL     1     -13.659  46.301   1.308  1.00  0.00     0.258 C
HETATM   36  O2  UNL     1     -14.730  45.634   1.453  1.00  0.00    -0.265 OA
BRANCH  35  37
HETATM   37  O1  UNL     1     -13.772  47.666   1.339  1.00  0.00    -0.326 OA
HETATM   38  C1  UNL     1     -14.087  48.457   0.230  1.00  0.00     0.213 C
ENDBRANCH  35  37
ENDBRANCH  34  35
ENDBRANCH  33  34
ENDBRANCH  32  33
ENDBRANCH  31  32
ENDBRANCH  29  30
ENDBRANCH   1  29
BRANCH   2  39
HETATM   39  O3  UNL     1      -6.811  43.262   4.688  1.00  0.00    -0.346 OA
ATOM     40  H3  UNL     1      -7.453  43.051   5.356  1.00  0.00     0.219 HD
ENDBRANCH   2  39
BRANCH   5  41
HETATM   41  C12 UNL     1      -7.562  47.615   6.081  1.00  0.00     0.038 C
BRANCH  41  42
HETATM   42  C13 UNL     1      -8.626  47.973   5.139  1.00  0.00    -0.020 C
HETATM   43  C14 UNL     1      -9.967  48.340   5.716  1.00  0.00     0.009 C
HETATM   44  C15 UNL     1      -8.204  48.976   4.079  1.00  0.00     0.009 C
ENDBRANCH  41  42
ENDBRANCH   5  41
BRANCH  10  45
HETATM   45  C18 UNL     1      -2.368  47.489   7.161  1.00  0.00     0.037 C
BRANCH  45  46
HETATM   46  C19 UNL     1      -2.321  47.097   8.575  1.00  0.00    -0.020 C
HETATM   47  C20 UNL     1      -1.338  46.011   8.933  1.00  0.00     0.009 C
HETATM   48  C21 UNL     1      -2.246  48.219   9.583  1.00  0.00     0.009 C
ENDBRANCH  45  46
ENDBRANCH  10  45
TORSDOF 16
ENDMDL