MODEL 1
REMARK VINA RESULT: -8.343550394      0.000      0.000
REMARK  16 active torsions:
REMARK  status: ('A' for Active; 'I' for Inactive)
REMARK    1  A    between atoms: C2_2  and  O1_3
REMARK    2  A    between atoms: O1_3  and  C3_4
REMARK    3  A    between atoms: C3_4  and  C4_6
REMARK    4  A    between atoms: C4_6  and  C5_7
REMARK    5  A    between atoms: C5_7  and  C6_8
REMARK    6  A    between atoms: C6_8  and  N1_9
REMARK    7  A    between atoms: C6_8  and  C18_23
REMARK       I    between atoms: N1_9  and  C7_11
REMARK    8  A    between atoms: C7_11  and  C8_13
REMARK    9  A    between atoms: C8_13  and  C9_14
REMARK   10  A    between atoms: C18_23  and  O4_24
REMARK   11  A    between atoms: C18_23  and  N2_26
REMARK   12  A    between atoms: N2_26  and  C19_28
REMARK   13  A    between atoms: C19_28  and  C20_29
REMARK   14  A    between atoms: C19_28  and  C24_33
REMARK   15  A    between atoms: C20_29  and  C21_30
REMARK       I    between atoms: C24_33  and  N3_35
REMARK   16  A    between atoms: N3_35  and  C25_37
ROOT
HETATM    1  C6  UNL     1     -10.308  30.843  -1.296  1.00  0.00     0.160 C
ENDROOT
BRANCH   1   2
HETATM    2  C5  UNL     1     -11.122  31.224  -0.037  1.00  0.00     0.043 C
BRANCH   2   3
HETATM    3  C4  UNL     1     -10.346  31.853   1.050  1.00  0.00     0.113 C
BRANCH   3   4
HETATM    4  C3  UNL     1     -11.159  31.620   2.309  1.00  0.00     0.258 C
HETATM    5  O2  UNL     1     -11.353  30.412   2.729  1.00  0.00    -0.265 OA
BRANCH   4   6
HETATM    6  O1  UNL     1     -11.695  32.628   3.041  1.00  0.00    -0.322 OA
BRANCH   6   7
HETATM    7  C2  UNL     1     -11.497  33.974   2.618  1.00  0.00     0.174 C
HETATM    8  C1  UNL     1     -10.880  34.806   3.736  1.00  0.00     0.034 C
ENDBRANCH   6   7
ENDBRANCH   4   6
ENDBRANCH   3   4
ENDBRANCH   2   3
ENDBRANCH   1   2
BRANCH   1   9
HETATM    9  N1  UNL     1      -8.879  31.086  -0.911  1.00  0.00    -0.346 N
HETATM   10  C7  UNL     1      -8.180  32.247  -1.359  1.00  0.00     0.238 C
HETATM   11  O3  UNL     1      -8.851  33.071  -2.041  1.00  0.00    -0.269 OA
ATOM     12  H1  UNL     1      -8.398  30.409  -0.318  1.00  0.00     0.163 HD
BRANCH  10  13
HETATM   13  C8  UNL     1      -6.792  32.339  -0.986  1.00  0.00     0.057 C
BRANCH  13  14
HETATM   14  C9  UNL     1      -6.281  33.225   0.043  1.00  0.00    -0.013 C
HETATM   15  C10 UNL     1      -6.326  34.669  -0.542  1.00  0.00     0.019 C
HETATM   16  C11 UNL     1      -6.120  35.643   0.564  1.00  0.00    -0.013 C
HETATM   17  C12 UNL     1      -7.352  35.663   1.441  1.00  0.00     0.005 C
HETATM   18  C16 UNL     1      -4.969  35.194   1.470  1.00  0.00     0.010 C
HETATM   19  C13 UNL     1      -7.579  34.270   1.952  1.00  0.00     0.006 C
HETATM   20  C14 UNL     1      -6.594  33.252   1.451  1.00  0.00     0.002 C
HETATM   21  C15 UNL     1      -5.152  33.734   1.703  1.00  0.00    -0.008 C
HETATM   22  C17 UNL     1      -4.812  32.968   0.446  1.00  0.00     0.019 C
ENDBRANCH  13  14
ENDBRANCH  10  13
ENDBRANCH   1   9
BRANCH   1  23
HETATM   23  C18 UNL     1     -10.431  29.425  -1.585  1.00  0.00     0.139 C
BRANCH  23  24
HETATM   24  O4  UNL     1     -10.026  28.588  -0.667  1.00  0.00    -0.348 OA
ATOM     25  H4  UNL     1     -10.440  27.733  -0.643  1.00  0.00     0.219 HD
ENDBRANCH  23  24
BRANCH  23  26
HETATM   26  N2  UNL     1     -10.920  28.777  -2.741  1.00  0.00    -0.338 N
ATOM     27  H2  UNL     1     -10.237  28.345  -3.363  1.00  0.00     0.167 HD
BRANCH  26  28
HETATM   28  C19 UNL     1     -12.311  28.682  -3.108  1.00  0.00     0.079 C
BRANCH  28  29
HETATM   29  C20 UNL     1     -13.220  28.305  -2.042  1.00  0.00     0.067 C
BRANCH  29  30
HETATM   30  C21 UNL     1     -14.315  27.316  -2.287  1.00  0.00    -0.017 C
HETATM   31  C22 UNL     1     -14.215  26.345  -1.088  1.00  0.00     0.010 C
HETATM   32  C23 UNL     1     -14.166  26.487  -3.523  1.00  0.00     0.010 C
ENDBRANCH  29  30
ENDBRANCH  28  29
BRANCH  28  33
HETATM   33  C24 UNL     1     -12.788  29.613  -4.102  1.00  0.00     0.264 C
HETATM   34  O5  UNL     1     -12.034  29.951  -5.049  1.00  0.00    -0.266 OA
HETATM   35  N3  UNL     1     -14.074  30.166  -4.074  1.00  0.00    -0.351 N
ATOM     36  H3  UNL     1     -14.663  29.914  -3.280  1.00  0.00     0.163 HD
BRANCH  35  37
HETATM   37  C25 UNL     1     -14.659  31.067  -5.064  1.00  0.00     0.084 C
HETATM   38  C26 UNL     1     -15.006  30.284  -6.317  1.00  0.00     0.025 C
HETATM   39  C27 UNL     1     -15.423  31.220  -7.396  1.00  0.00     0.002 C
HETATM   40  C28 UNL     1     -15.690  32.629  -6.993  1.00  0.00     0.000 C
HETATM   41  C29 UNL     1     -16.270  32.806  -5.636  1.00  0.00     0.002 C
HETATM   42  C30 UNL     1     -15.880  31.787  -4.611  1.00  0.00     0.025 C
ENDBRANCH  35  37
ENDBRANCH  28  33
ENDBRANCH  26  28
ENDBRANCH  23  26
ENDBRANCH   1  23
TORSDOF 16
ENDMDL