MODEL 3
REMARK VINA RESULT: -7.524863182      3.342      7.408
REMARK  13 active torsions:
REMARK  status: ('A' for Active; 'I' for Inactive)
REMARK    1  A    between atoms: C5_8  and  C6_9
REMARK    2  A    between atoms: C6_9  and  C7_10
REMARK       I    between atoms: C7_10  and  N3_12
REMARK    3  A    between atoms: N3_12  and  C8_14
REMARK    4  A    between atoms: C8_14  and  C9_15
REMARK    5  A    between atoms: C8_14  and  C16_22
REMARK    6  A    between atoms: C9_15  and  C10_16
REMARK       I    between atoms: C16_22  and  N4_24
REMARK    7  A    between atoms: N4_24  and  C17_26
REMARK    8  A    between atoms: C17_26  and  C18_27
REMARK    9  A    between atoms: C17_26  and  C27_39
REMARK   10  A    between atoms: C18_27  and  N5_28
REMARK       I    between atoms: N5_28  and  C19_30
REMARK   11  A    between atoms: C19_30  and  C20_32
REMARK   12  A    between atoms: C20_32  and  C21_33
REMARK   13  A    between atoms: C27_39  and  C28_40
ROOT
HETATM    1  C8  UNL     1     -10.001  33.726   1.731  1.00  0.00     0.177 C
ENDROOT
BRANCH   1   2
HETATM    2  N3  UNL     1     -10.585  34.796   2.519  1.00  0.00    -0.347 N
HETATM    3  C7  UNL     1     -11.652  34.608   3.413  1.00  0.00     0.224 C
HETATM    4  O1  UNL     1     -12.101  33.404   3.477  1.00  0.00    -0.273 OA
ATOM      5  H3  UNL     1     -10.199  35.736   2.418  1.00  0.00     0.163 HD
BRANCH   3   6
HETATM    6  C6  UNL     1     -12.278  35.640   4.259  1.00  0.00     0.162 C
BRANCH   6   7
HETATM    7  C5  UNL     1     -11.703  35.851   5.578  1.00  0.00     0.043 A
HETATM    8  C2  UNL     1     -12.108  35.360   6.787  1.00  0.00     0.029 A
HETATM    9  C1  UNL     1     -13.260  34.496   7.104  1.00  0.00     0.070 C
HETATM   10  N1  UNL     1     -11.259  35.790   7.766  1.00  0.00    -0.354 N
HETATM   11  C3  UNL     1     -10.327  36.550   7.166  1.00  0.00     0.183 A
ATOM     12  H1  UNL     1     -11.320  35.575   8.762  1.00  0.00     0.166 HD
HETATM   13  N2  UNL     1     -10.606  36.581   5.836  1.00  0.00    -0.349 N
HETATM   14  C4  UNL     1      -9.784  37.318   4.886  1.00  0.00     0.156 C
ENDBRANCH   6   7
ENDBRANCH   3   6
ENDBRANCH   1   2
BRANCH   1  15
HETATM   15  C9  UNL     1     -10.432  33.875   0.311  1.00  0.00     0.039 C
BRANCH  15  16
HETATM   16  C10 UNL     1     -10.819  32.663  -0.442  1.00  0.00    -0.012 C
HETATM   17  C11 UNL     1     -11.026  31.431   0.353  1.00  0.00     0.005 C
HETATM   18  C12 UNL     1     -11.116  30.168  -0.475  1.00  0.00     0.000 C
HETATM   19  C13 UNL     1      -9.921  30.008  -1.381  1.00  0.00     0.000 C
HETATM   20  C14 UNL     1      -8.972  31.195  -1.147  1.00  0.00     0.000 C
HETATM   21  C15 UNL     1      -9.765  32.416  -1.498  1.00  0.00     0.005 C
ENDBRANCH  15  16
ENDBRANCH   1  15
BRANCH   1  22
HETATM   22  C16 UNL     1      -8.507  33.916   1.699  1.00  0.00     0.244 C
HETATM   23  O2  UNL     1      -7.836  33.449   2.666  1.00  0.00    -0.271 OA
HETATM   24  N4  UNL     1      -7.850  34.572   0.666  1.00  0.00    -0.331 N
ATOM     25  H4  UNL     1      -8.396  34.936  -0.115  1.00  0.00     0.168 HD
BRANCH  24  26
HETATM   26  C17 UNL     1      -6.422  34.754   0.663  1.00  0.00     0.007 C
BRANCH  26  27
HETATM   27  C18 UNL     1      -5.935  36.107   0.985  1.00  0.00     0.175 C
BRANCH  27  28
HETATM   28  N5  UNL     1      -5.204  36.266   2.194  1.00  0.00    -0.356 N
HETATM   29  C19 UNL     1      -5.690  37.169   3.173  1.00  0.00     0.218 C
HETATM   30  O3  UNL     1      -6.761  37.831   2.989  1.00  0.00    -0.274 OA
ATOM     31  H5  UNL     1      -4.345  35.740   2.354  1.00  0.00     0.162 HD
BRANCH  29  32
HETATM   32  C20 UNL     1      -4.966  37.375   4.446  1.00  0.00     0.107 C
BRANCH  32  33
HETATM   33  C21 UNL     1      -5.806  38.075   5.495  1.00  0.00    -0.006 C
HETATM   34  C22 UNL     1      -4.967  39.093   6.244  1.00  0.00     0.005 C
HETATM   35  C23 UNL     1      -4.443  38.431   7.511  1.00  0.00     0.000 C
HETATM   36  C24 UNL     1      -5.565  38.263   8.518  1.00  0.00     0.000 C
HETATM   37  C25 UNL     1      -6.811  37.821   7.755  1.00  0.00     0.000 C
HETATM   38  C26 UNL     1      -6.415  37.126   6.468  1.00  0.00     0.005 C
ENDBRANCH  32  33
ENDBRANCH  29  32
ENDBRANCH  27  28
ENDBRANCH  26  27
BRANCH  26  39
HETATM   39  C27 UNL     1      -5.782  34.049  -0.499  1.00  0.00     0.058 C
BRANCH  39  40
HETATM   40  C28 UNL     1      -4.926  32.871  -0.181  1.00  0.00    -0.017 C
HETATM   41  C29 UNL     1      -5.743  31.567  -0.371  1.00  0.00     0.010 C
HETATM   42  C30 UNL     1      -4.364  32.790   1.198  1.00  0.00     0.010 C
ENDBRANCH  39  40
ENDBRANCH  26  39
ENDBRANCH  24  26
ENDBRANCH   1  22
TORSDOF 13
ENDMDL