MODEL 4
REMARK VINA RESULT: -7.087731210      2.428      5.970
REMARK  13 active torsions:
REMARK  status: ('A' for Active; 'I' for Inactive)
REMARK    1  A    between atoms: C2_2  and  C3_4
REMARK    2  A    between atoms: C3_4  and  N1_5
REMARK    3  A    between atoms: N1_5  and  C4_7
REMARK    4  A    between atoms: N2_10  and  C7_11
REMARK    5  A    between atoms: C7_11  and  C8_12
REMARK    6  A    between atoms: C8_12  and  C9_13
REMARK    7  A    between atoms: C9_13  and  C10_14
REMARK    8  A    between atoms: C10_14  and  N3_15
REMARK    9  A    between atoms: C10_14  and  C27_37
REMARK       I    between atoms: N3_15  and  C11_17
REMARK   10  A    between atoms: C11_17  and  C12_19
REMARK   11  A    between atoms: C12_19  and  N4_20
REMARK   12  A    between atoms: C12_19  and  C24_34
REMARK       I    between atoms: N4_20  and  C13_22
REMARK   13  A    between atoms: C13_22  and  C14_24
ROOT
HETATM    1  N3  UNL     1     -10.525  32.002   0.528  1.00  0.00    -0.332 N
ATOM      2  H3  UNL     1     -10.422  32.938   0.138  1.00  0.00     0.168 HD
HETATM    3  C11 UNL     1     -11.177  31.858   1.771  1.00  0.00     0.244 C
HETATM    4  O2  UNL     1     -11.288  30.700   2.244  1.00  0.00    -0.271 OA
ENDROOT
BRANCH   1   5
HETATM    5  C10 UNL     1      -9.991  30.868  -0.229  1.00  0.00    -0.007 C
BRANCH   5   6
HETATM    6  C9  UNL     1      -8.630  31.057  -0.757  1.00  0.00     0.054 C
BRANCH   6   7
HETATM    7  C8  UNL     1      -7.905  32.317  -0.440  1.00  0.00     0.036 C
BRANCH   7   8
HETATM    8  C7  UNL     1      -6.420  32.201  -0.818  1.00  0.00     0.272 C
BRANCH   8   9
HETATM    9  N2  UNL     1      -5.610  33.158  -0.153  1.00  0.00     0.088 N
HETATM   10  C6  UNL     1      -6.217  34.460  -0.286  1.00  0.00     0.274 C
HETATM   11  C5  UNL     1      -5.958  35.426   0.808  1.00  0.00     0.055 C
HETATM   12  C4  UNL     1      -4.619  35.280   1.468  1.00  0.00     0.080 C
HETATM   13  C31 UNL     1      -4.235  33.831   1.663  1.00  0.00     0.055 C
HETATM   14  C30 UNL     1      -5.373  32.908   1.244  1.00  0.00     0.274 C
BRANCH  12  15
HETATM   15  N1  UNL     1      -4.479  35.965   2.716  1.00  0.00    -0.410 N
ATOM     16  H1  UNL     1      -3.763  36.679   2.851  1.00  0.00     0.154 HD
BRANCH  15  17
HETATM   17  C3  UNL     1      -5.373  35.612   3.753  1.00  0.00     0.192 C
BRANCH  17  18
HETATM   18  C2  UNL     1      -5.297  36.699   4.806  1.00  0.00     0.140 C
HETATM   19  C1  UNL     1      -5.152  38.114   4.352  1.00  0.00     0.092 C
HETATM   20  O1  UNL     1      -5.347  36.459   5.977  1.00  0.00    -0.297 OA
ENDBRANCH  17  18
ENDBRANCH  15  17
ENDBRANCH  12  15
ENDBRANCH   8   9
ENDBRANCH   7   8
ENDBRANCH   6   7
ENDBRANCH   5   6
BRANCH   5  21
HETATM   21  C27 UNL     1     -11.013  30.265  -1.127  1.00  0.00     0.023 C
HETATM   22  C28 UNL     1     -10.799  30.399  -2.587  1.00  0.00     0.016 C
HETATM   23  C29 UNL     1     -11.238  28.808  -0.778  1.00  0.00     0.016 C
ENDBRANCH   5  21
ENDBRANCH   1   5
BRANCH   3  24
HETATM   24  C12 UNL     1     -11.714  33.035   2.491  1.00  0.00     0.180 C
BRANCH  24  25
HETATM   25  N4  UNL     1     -11.185  34.266   1.953  1.00  0.00    -0.347 N
HETATM   26  C13 UNL     1     -10.671  35.276   2.798  1.00  0.00     0.227 C
HETATM   27  O3  UNL     1     -10.641  35.151   4.063  1.00  0.00    -0.273 OA
ATOM     28  H4  UNL     1     -11.181  34.410   0.943  1.00  0.00     0.163 HD
BRANCH  26  29
HETATM   29  C14 UNL     1     -10.133  36.560   2.254  1.00  0.00     0.042 C
HETATM   30  C15 UNL     1      -8.693  36.757   2.608  1.00  0.00     0.024 C
HETATM   31  C16 UNL     1      -8.244  38.078   2.016  1.00  0.00    -0.013 C
HETATM   32  C17 UNL     1      -9.029  39.240   2.588  1.00  0.00     0.009 C
HETATM   33  C21 UNL     1      -8.419  38.093   0.509  1.00  0.00     0.009 C
HETATM   34  C18 UNL     1     -10.495  39.013   2.309  1.00  0.00    -0.013 C
HETATM   35  C19 UNL     1     -10.727  38.974   0.816  1.00  0.00     0.009 C
HETATM   36  C23 UNL     1     -10.901  37.698   2.906  1.00  0.00     0.024 C
HETATM   37  C20 UNL     1      -9.872  37.903   0.206  1.00  0.00    -0.013 C
HETATM   38  C22 UNL     1     -10.288  36.556   0.766  1.00  0.00     0.024 C
ENDBRANCH  26  29
ENDBRANCH  24  25
BRANCH  24  39
HETATM   39  C24 UNL     1     -13.213  32.986   2.441  1.00  0.00     0.009 C
HETATM   40  C25 UNL     1     -13.616  32.829   0.988  1.00  0.00     0.012 C
HETATM   41  C26 UNL     1     -13.855  34.191   3.072  1.00  0.00     0.012 C
ENDBRANCH  24  39
ENDBRANCH   3  24
TORSDOF 13
ENDMDL