MODEL 1
REMARK VINA RESULT: -6.914967371      0.000      0.000
REMARK  15 active torsions:
REMARK  status: ('A' for Active; 'I' for Inactive)
REMARK    1  A    between atoms: C6_6  and  C7_7
REMARK    2  A    between atoms: C8_8  and  C9_9
REMARK    3  A    between atoms: C8_8  and  N1_29
REMARK    4  A    between atoms: C9_9  and  O1_10
REMARK    5  A    between atoms: C9_9  and  C10_12
REMARK    6  A    between atoms: C10_12  and  O2_13
REMARK    7  A    between atoms: C10_12  and  C11_15
REMARK    8  A    between atoms: C11_15  and  O3_16
REMARK    9  A    between atoms: C11_15  and  C12_18
REMARK   10  A    between atoms: C12_18  and  C13_19
REMARK   11  A    between atoms: C12_18  and  C20_26
REMARK   12  A    between atoms: C13_19  and  C14_20
REMARK   13  A    between atoms: N1_29  and  C23_30
REMARK   14  A    between atoms: N1_29  and  S1_33
REMARK   15  A    between atoms: S1_33  and  C26_36
ROOT
HETATM    1  C7  UNL     1      -9.293  34.654   2.767  1.00  0.00     0.040 C
HETATM    2  C8  UNL     1     -10.723  34.548   2.680  1.00  0.00     0.055 C
ENDROOT
BRANCH   2   3
HETATM    3  C9  UNL     1     -11.208  33.594   1.692  1.00  0.00     0.200 C
BRANCH   3   4
HETATM    4  O1  UNL     1     -12.600  33.346   1.780  1.00  0.00    -0.387 OA
ATOM      5  H1  UNL     1     -12.835  32.438   1.623  1.00  0.00     0.210 HD
ENDBRANCH   3   4
BRANCH   3   6
HETATM    6  C10 UNL     1     -10.603  32.179   1.760  1.00  0.00     0.181 C
BRANCH   6   7
HETATM    7  O2  UNL     1     -11.046  31.536   2.934  1.00  0.00    -0.390 OA
ATOM      8  H2  UNL     1     -11.614  30.811   2.700  1.00  0.00     0.210 HD
ENDBRANCH   6   7
BRANCH   6   9
HETATM    9  C11 UNL     1     -11.085  31.388   0.625  1.00  0.00     0.154 C
BRANCH   9  10
HETATM   10  O3  UNL     1     -11.323  30.072   1.026  1.00  0.00    -0.393 OA
ATOM     11  H3  UNL     1     -12.074  30.040   1.606  1.00  0.00     0.210 HD
ENDBRANCH   9  10
BRANCH   9  12
HETATM   12  C12 UNL     1     -10.372  31.354  -0.666  1.00  0.00     0.021 C
BRANCH  12  13
HETATM   13  C13 UNL     1     -10.316  30.038  -1.343  1.00  0.00     0.012 C
BRANCH  13  14
HETATM   14  C14 UNL     1     -11.413  29.891  -2.380  1.00  0.00    -0.014 C
HETATM   15  C15 UNL     1     -12.510  28.980  -1.913  1.00  0.00     0.005 C
HETATM   16  C16 UNL     1     -12.919  27.993  -2.975  1.00  0.00     0.000 C
HETATM   17  C17 UNL     1     -13.116  28.623  -4.323  1.00  0.00     0.000 C
HETATM   18  C18 UNL     1     -11.911  29.460  -4.725  1.00  0.00     0.000 C
HETATM   19  C19 UNL     1     -10.839  29.289  -3.662  1.00  0.00     0.005 C
ENDBRANCH  13  14
ENDBRANCH  12  13
BRANCH  12  20
HETATM   20  C20 UNL     1      -9.048  32.086  -0.644  1.00  0.00    -0.016 C
HETATM   21  C21 UNL     1      -7.904  31.061  -0.691  1.00  0.00     0.010 C
HETATM   22  C22 UNL     1      -8.849  33.115  -1.683  1.00  0.00     0.010 C
ENDBRANCH  12  20
ENDBRANCH   9  12
ENDBRANCH   6   9
ENDBRANCH   3   6
ENDBRANCH   2   3
BRANCH   2  23
HETATM   23  N1  UNL     1     -11.514  35.732   2.920  1.00  0.00    -0.272 N
BRANCH  23  24
HETATM   24  C23 UNL     1     -11.431  36.818   2.084  1.00  0.00     0.101 A
HETATM   25  C24 UNL     1     -12.373  36.734   0.837  1.00  0.00     0.028 A
HETATM   26  C25 UNL     1     -12.364  37.875   1.780  1.00  0.00     0.028 A
ENDBRANCH  23  24
BRANCH  23  27
HETATM   27  S1  UNL     1     -12.554  35.660   4.228  1.00  0.00     0.237 S
HETATM   28  O4  UNL     1     -13.856  36.335   3.904  1.00  0.00    -0.205 OA
HETATM   29  O5  UNL     1     -12.778  34.292   4.817  1.00  0.00    -0.205 OA
BRANCH  27  30
HETATM   30  C26 UNL     1     -11.985  36.547   5.697  1.00  0.00     0.130 A
HETATM   31  C27 UNL     1     -10.464  36.620   5.777  1.00  0.00     0.023 A
HETATM   32  C28 UNL     1     -11.213  35.800   6.738  1.00  0.00     0.023 A
ENDBRANCH  27  30
ENDBRANCH  23  27
ENDBRANCH   2  23
BRANCH   1  33
HETATM   33  C6  UNL     1      -8.338  35.029   1.774  1.00  0.00    -0.028 A
HETATM   34  C5  UNL     1      -8.282  36.010   0.840  1.00  0.00     0.012 A
HETATM   35  C4  UNL     1      -7.269  36.235  -0.052  1.00  0.00     0.001 A
HETATM   36  C3  UNL     1      -6.177  35.399  -0.035  1.00  0.00     0.007 A
HETATM   37  C2  UNL     1      -6.160  34.379   0.882  1.00  0.00    -0.055 A
HETATM   38  C1  UNL     1      -4.961  33.457   0.913  1.00  0.00     0.049 C
HETATM   39  C29 UNL     1      -7.194  34.186   1.764  1.00  0.00    -0.046 A
HETATM   40  C30 UNL     1      -7.073  33.051   2.724  1.00  0.00     0.049 C
ENDBRANCH   1  33
TORSDOF 15
ENDMDL