MODEL 1
REMARK VINA RESULT: -6.680122233      0.000      0.000
REMARK  14 active torsions:
REMARK  status: ('A' for Active; 'I' for Inactive)
REMARK    1  A    between atoms: C2_2  and  C3_3
REMARK    2  A    between atoms: C3_3  and  C4_4
REMARK    3  A    between atoms: C4_4  and  C5_5
REMARK       I    between atoms: N1_7  and  C6_8
REMARK    4  A    between atoms: C6_8  and  C7_10
REMARK    5  A    between atoms: C7_10  and  N2_11
REMARK    6  A    between atoms: C7_10  and  C11_21
REMARK       I    between atoms: N2_11  and  C8_13
REMARK    7  A    between atoms: C8_13  and  C9_15
REMARK    8  A    between atoms: C9_15  and  N3_17
REMARK    9  A    between atoms: C11_21  and  C13_23
REMARK   10  A    between atoms: C15_25  and  C16_26
REMARK       I    between atoms: C16_26  and  N4_28
REMARK   11  A    between atoms: N4_28  and  C17_30
REMARK   12  A    between atoms: C17_30  and  C18_31
REMARK   13  A    between atoms: C17_30  and  C21_34
REMARK   14  A    between atoms: C21_34  and  C23_36
ROOT
HETATM    1  C5  UNL     1      -5.779  39.727   4.241  1.00  0.00     0.157 C
HETATM    2  O1  UNL     1      -6.169  39.458   2.942  1.00  0.00    -0.269 OA
HETATM    3  N1  UNL     1      -6.587  38.162   2.819  1.00  0.00    -0.210 N
HETATM    4  C6  UNL     1      -7.962  37.943   2.882  1.00  0.00     0.267 C
HETATM    5  O2  UNL     1      -8.392  36.742   2.794  1.00  0.00    -0.269 OA
HETATM    6  C15 UNL     1      -5.629  37.094   2.691  1.00  0.00     0.210 C
HETATM    7  C25 UNL     1      -5.572  36.423   4.067  1.00  0.00     0.042 C
HETATM    8  C26 UNL     1      -4.989  37.420   5.067  1.00  0.00    -0.006 C
HETATM    9  C27 UNL     1      -5.142  36.760   6.459  1.00  0.00     0.005 C
HETATM   10  C28 UNL     1      -5.542  37.851   7.402  1.00  0.00     0.001 C
HETATM   11  C29 UNL     1      -5.326  39.121   6.608  1.00  0.00     0.007 C
HETATM   12  C30 UNL     1      -5.798  38.628   5.218  1.00  0.00     0.021 C
ENDROOT
BRANCH   4  13
HETATM   13  C7  UNL     1      -8.996  38.963   3.045  1.00  0.00     0.182 C
BRANCH  13  14
HETATM   14  N2  UNL     1      -8.894  40.000   2.005  1.00  0.00    -0.346 N
HETATM   15  C8  UNL     1      -9.247  39.797   0.660  1.00  0.00     0.248 C
HETATM   16  O3  UNL     1      -9.676  38.671   0.314  1.00  0.00    -0.271 OA
ATOM     17  H2  UNL     1      -8.546  40.920   2.276  1.00  0.00     0.163 HD
BRANCH  15  18
HETATM   18  C9  UNL     1      -9.128  40.861  -0.345  1.00  0.00     0.270 C
HETATM   19  C10 UNL     1      -9.092  42.244   0.292  1.00  0.00     0.050 C
BRANCH  18  20
HETATM   20  N3  UNL     1     -10.225  40.853  -1.296  1.00  0.00    -0.067 N
ATOM     21  H33 UNL     1     -11.119  40.713  -0.824  1.00  0.00     0.275 HD
ATOM     22  H32 UNL     1     -10.386  41.784  -1.679  1.00  0.00     0.275 HD
ATOM     23  H31 UNL     1     -10.092  40.168  -2.040  1.00  0.00     0.275 HD
ENDBRANCH  18  20
ENDBRANCH  15  18
ENDBRANCH  13  14
BRANCH  13  24
HETATM   24  C11 UNL     1      -9.177  39.556   4.392  1.00  0.00     0.013 C
HETATM   25  C12 UNL     1      -9.831  40.910   4.389  1.00  0.00     0.012 C
BRANCH  24  26
HETATM   26  C13 UNL     1     -10.049  38.548   5.174  1.00  0.00     0.002 C
HETATM   27  C14 UNL     1      -9.274  38.001   6.325  1.00  0.00     0.005 C
ENDBRANCH  24  26
ENDBRANCH  13  24
ENDBRANCH   4  13
BRANCH   6  28
HETATM   28  C16 UNL     1      -5.837  36.135   1.616  1.00  0.00     0.247 C
HETATM   29  O4  UNL     1      -5.750  36.468   0.405  1.00  0.00    -0.271 OA
HETATM   30  N4  UNL     1      -6.150  34.778   1.929  1.00  0.00    -0.332 N
ATOM     31  H4  UNL     1      -6.207  34.561   2.923  1.00  0.00     0.168 HD
BRANCH  30  32
HETATM   32  C17 UNL     1      -6.391  33.694   1.057  1.00  0.00    -0.003 C
BRANCH  32  33
HETATM   33  C18 UNL     1      -5.330  32.645   0.936  1.00  0.00     0.023 C
HETATM   34  C19 UNL     1      -5.379  32.132  -0.530  1.00  0.00     0.016 C
HETATM   35  C20 UNL     1      -3.943  32.996   1.302  1.00  0.00     0.016 C
ENDBRANCH  32  33
BRANCH  32  36
HETATM   36  C21 UNL     1      -7.759  33.171   0.882  1.00  0.00     0.027 C
HETATM   37  C22 UNL     1      -8.724  33.170   1.990  1.00  0.00     0.016 C
BRANCH  36  38
HETATM   38  C23 UNL     1      -8.463  33.849  -0.316  1.00  0.00     0.005 C
HETATM   39  C24 UNL     1      -8.983  32.803  -1.279  1.00  0.00     0.006 C
ENDBRANCH  36  38
ENDBRANCH  32  36
ENDBRANCH  30  32
ENDBRANCH   6  28
BRANCH   1  40
HETATM   40  C4  UNL     1      -4.625  40.660   4.235  1.00  0.00     0.035 C
BRANCH  40  41
HETATM   41  C3  UNL     1      -4.235  41.280   2.951  1.00  0.00     0.002 C
BRANCH  41  42
HETATM   42  C2  UNL     1      -3.128  42.295   3.267  1.00  0.00    -0.004 C
HETATM   43  C1  UNL     1      -2.929  42.417   4.760  1.00  0.00     0.005 C
ENDBRANCH  41  42
ENDBRANCH  40  41
ENDBRANCH   1  40
TORSDOF 14
ENDMDL