MODEL 2
REMARK VINA RESULT: -6.556011205      4.155      8.134
REMARK  16 active torsions:
REMARK  status: ('A' for Active; 'I' for Inactive)
REMARK    1  A    between atoms: C4_4  and  C5_5
REMARK    2  A    between atoms: C5_5  and  C6_6
REMARK    3  A    between atoms: C6_6  and  C7_7
REMARK    4  A    between atoms: C7_7  and  C8_8
REMARK    5  A    between atoms: C8_8  and  C9_9
REMARK    6  A    between atoms: C9_9  and  N1_10
REMARK    7  A    between atoms: C9_9  and  C15_19
REMARK       I    between atoms: N1_10  and  C10_12
REMARK    8  A    between atoms: C10_12  and  O2_14
REMARK    9  A    between atoms: O2_14  and  C11_15
REMARK       I    between atoms: C15_19  and  N2_21
REMARK   10  A    between atoms: N2_21  and  C16_23
REMARK   11  A    between atoms: C16_23  and  C17_24
REMARK   12  A    between atoms: C16_23  and  C24_31
REMARK   13  A    between atoms: C17_24  and  C18_25
REMARK   14  A    between atoms: C24_31  and  C25_33
REMARK       I    between atoms: C25_33  and  N3_35
REMARK   15  A    between atoms: N3_35  and  C26_37
REMARK   16  A    between atoms: C26_37  and  C27_38
ROOT
HETATM    1  C1  UNL     1     -10.933  29.228  -3.648  1.00  0.00     0.027 C
HETATM    2  C2  UNL     1     -10.969  29.770  -2.558  1.00  0.00    -0.026 C
HETATM    3  C3  UNL     1     -11.010  30.412  -1.291  1.00  0.00    -0.016 C
HETATM    4  C4  UNL     1     -11.030  30.968  -0.219  1.00  0.00    -0.093 C
ENDROOT
BRANCH   4   5
HETATM    5  C5  UNL     1     -11.032  31.629   1.083  1.00  0.00     0.095 C
BRANCH   5   6
HETATM    6  C6  UNL     1     -11.999  32.797   1.019  1.00  0.00     0.012 C
BRANCH   6   7
HETATM    7  C7  UNL     1     -11.160  34.058   0.962  1.00  0.00     0.003 C
BRANCH   7   8
HETATM    8  C8  UNL     1     -11.145  34.810   2.234  1.00  0.00     0.035 C
BRANCH   8   9
HETATM    9  C9  UNL     1     -10.130  34.442   3.261  1.00  0.00     0.179 C
BRANCH   9  10
HETATM   10  N1  UNL     1     -10.155  35.568   4.234  1.00  0.00    -0.324 N
HETATM   11  C10 UNL     1     -11.147  35.583   5.225  1.00  0.00     0.362 C
HETATM   12  O1  UNL     1     -12.021  34.652   5.301  1.00  0.00    -0.238 OA
ATOM     13  H1  UNL     1      -9.462  36.315   4.181  1.00  0.00     0.165 HD
BRANCH  11  14
HETATM   14  O2  UNL     1     -11.256  36.577   6.172  1.00  0.00    -0.294 OA
BRANCH  14  15
HETATM   15  C11 UNL     1     -12.122  37.673   6.120  1.00  0.00     0.061 C
HETATM   16  C12 UNL     1     -13.371  37.452   6.960  1.00  0.00     0.046 C
HETATM   17  C13 UNL     1     -11.377  38.861   6.717  1.00  0.00     0.046 C
HETATM   18  C14 UNL     1     -12.574  38.011   4.731  1.00  0.00     0.046 C
ENDBRANCH  14  15
ENDBRANCH  11  14
ENDBRANCH   9  10
BRANCH   9  19
HETATM   19  C15 UNL     1      -8.754  34.301   2.756  1.00  0.00     0.241 C
HETATM   20  O3  UNL     1      -8.253  33.120   2.758  1.00  0.00    -0.271 OA
HETATM   21  N2  UNL     1      -7.908  35.304   2.264  1.00  0.00    -0.347 N
ATOM     22  H2  UNL     1      -8.251  36.264   2.243  1.00  0.00     0.163 HD
BRANCH  21  23
HETATM   23  C16 UNL     1      -6.559  35.032   1.780  1.00  0.00     0.165 C
BRANCH  23  24
HETATM   24  C17 UNL     1      -6.338  35.226   0.339  1.00  0.00     0.038 C
BRANCH  24  25
HETATM   25  C18 UNL     1      -6.312  34.020  -0.561  1.00  0.00    -0.012 C
HETATM   26  C19 UNL     1      -7.798  33.619  -0.715  1.00  0.00     0.005 C
HETATM   27  C20 UNL     1      -7.947  32.383  -1.533  1.00  0.00     0.000 C
HETATM   28  C21 UNL     1      -7.362  31.244  -0.716  1.00  0.00     0.000 C
HETATM   29  C22 UNL     1      -5.917  31.522  -0.501  1.00  0.00     0.000 C
HETATM   30  C23 UNL     1      -5.614  32.885   0.097  1.00  0.00     0.005 C
ENDBRANCH  24  25
ENDBRANCH  23  24
BRANCH  23  31
HETATM   31  C24 UNL     1      -5.644  35.942   2.566  1.00  0.00     0.238 C
HETATM   32  O4  UNL     1      -4.448  36.019   2.169  1.00  0.00    -0.285 OA
BRANCH  31  33
HETATM   33  C25 UNL     1      -6.061  36.709   3.715  1.00  0.00     0.289 C
HETATM   34  O5  UNL     1      -6.669  37.794   3.641  1.00  0.00    -0.264 OA
HETATM   35  N3  UNL     1      -5.780  36.228   5.013  1.00  0.00    -0.351 N
ATOM     36  H3  UNL     1      -5.285  35.341   5.105  1.00  0.00     0.163 HD
BRANCH  35  37
HETATM   37  C26 UNL     1      -6.163  36.935   6.225  1.00  0.00     0.150 C
BRANCH  37  38
HETATM   38  C27 UNL     1      -4.983  37.544   6.889  1.00  0.00    -0.005 C
HETATM   39  C28 UNL     1      -5.029  38.147   8.067  1.00  0.00    -0.090 C
HETATM   40  C29 UNL     1      -3.825  38.736   8.683  1.00  0.00     0.042 C
HETATM   41  C30 UNL     1      -6.365  38.201   8.745  1.00  0.00     0.042 C
ENDBRANCH  37  38
ENDBRANCH  35  37
ENDBRANCH  31  33
ENDBRANCH  23  31
ENDBRANCH  21  23
ENDBRANCH   9  19
ENDBRANCH   8   9
ENDBRANCH   7   8
ENDBRANCH   6   7
ENDBRANCH   5   6
ENDBRANCH   4   5
TORSDOF 16
ENDMDL