MODEL 2
REMARK VINA RESULT: -6.954229102      2.613      5.621
REMARK  14 active torsions:
REMARK  status: ('A' for Active; 'I' for Inactive)
REMARK    1  A    between atoms: C2_2  and  C4_4
REMARK    2  A    between atoms: C4_4  and  N1_5
REMARK    3  A    between atoms: N1_5  and  C5_6
REMARK    4  A    between atoms: N1_5  and  C9_14
REMARK    5  A    between atoms: C5_6  and  C6_7
REMARK    6  A    between atoms: C9_14  and  C10_15
REMARK    7  A    between atoms: C10_15  and  O1_16
REMARK    8  A    between atoms: C10_15  and  C11_18
REMARK    9  A    between atoms: C11_18  and  C12_19
REMARK   10  A    between atoms: C12_19  and  C13_20
REMARK   11  A    between atoms: C12_19  and  C24_31
REMARK   12  A    between atoms: C13_20  and  C14_21
REMARK   13  A    between atoms: C19_26  and  C20_27
REMARK       I    between atoms: C24_31  and  N4_33
REMARK   14  A    between atoms: C27_36  and  C28_37
ROOT
HETATM    1  C12 UNL     1      -7.416  37.174   3.299  1.00  0.00     0.081 C
ENDROOT
BRANCH   1   2
HETATM    2  C11 UNL     1      -8.901  37.312   3.550  1.00  0.00     0.047 C
BRANCH   2   3
HETATM    3  C10 UNL     1      -9.466  35.909   3.690  1.00  0.00     0.137 C
BRANCH   3   4
HETATM    4  C9  UNL     1     -10.381  35.496   2.588  1.00  0.00     0.159 C
BRANCH   4   5
HETATM    5  N1  UNL     1     -10.774  34.093   2.559  1.00  0.00    -0.365 N
BRANCH   5   6
HETATM    6  C4  UNL     1     -12.087  33.846   2.842  1.00  0.00     0.067 C
BRANCH   6   7
HETATM    7  C2  UNL     1     -13.264  34.139   2.023  1.00  0.00     0.016 C
HETATM    8  C1  UNL     1     -14.449  34.762   2.673  1.00  0.00     0.015 C
HETATM    9  C3  UNL     1     -13.751  32.794   1.444  1.00  0.00     0.015 C
ENDBRANCH   6   7
ENDBRANCH   5   6
BRANCH   5  10
HETATM   10  C5  UNL     1      -9.848  33.279   1.942  1.00  0.00     0.121 C
BRANCH  10  11
HETATM   11  C6  UNL     1     -10.103  32.579   0.694  1.00  0.00     0.064 A
HETATM   12  C7  UNL     1     -10.430  33.023  -0.556  1.00  0.00     0.119 A
HETATM   13  N2  UNL     1     -10.577  31.952  -1.337  1.00  0.00    -0.360 N
HETATM   14  C8  UNL     1     -10.354  30.828  -0.623  1.00  0.00     0.180 A
ATOM     15  H2  UNL     1     -10.822  31.978  -2.327  1.00  0.00     0.166 HD
HETATM   16  N3  UNL     1     -10.066  31.212   0.614  1.00  0.00    -0.350 N
ATOM     17  H3  UNL     1      -9.849  30.584   1.388  1.00  0.00     0.166 HD
ENDBRANCH  10  11
ENDBRANCH   5  10
ENDBRANCH   4   5
ENDBRANCH   3   4
BRANCH   3  18
HETATM   18  O1  UNL     1      -9.967  35.666   4.941  1.00  0.00    -0.394 OA
ATOM     19  H1  UNL     1     -10.850  35.993   5.070  1.00  0.00     0.210 HD
ENDBRANCH   3  18
ENDBRANCH   2   3
ENDBRANCH   1   2
BRANCH   1  20
HETATM   20  C13 UNL     1      -6.671  38.480   3.545  1.00  0.00     0.019 C
BRANCH  20  21
HETATM   21  C14 UNL     1      -6.108  38.604   4.906  1.00  0.00    -0.009 C
HETATM   22  C15 UNL     1      -5.552  37.207   5.252  1.00  0.00     0.005 C
HETATM   23  C16 UNL     1      -4.754  37.154   6.486  1.00  0.00     0.000 C
HETATM   24  C17 UNL     1      -4.789  38.363   7.357  1.00  0.00     0.000 C
HETATM   25  C18 UNL     1      -4.815  39.668   6.635  1.00  0.00     0.005 C
HETATM   26  C19 UNL     1      -4.979  39.514   5.130  1.00  0.00    -0.003 C
BRANCH  26  27
HETATM   27  C20 UNL     1      -4.936  40.858   4.533  1.00  0.00    -0.047 C
HETATM   28  C21 UNL     1      -4.358  40.969   3.145  1.00  0.00     0.015 C
HETATM   29  C22 UNL     1      -4.030  41.712   5.439  1.00  0.00     0.015 C
HETATM   30  C23 UNL     1      -6.286  41.580   4.612  1.00  0.00     0.015 C
ENDBRANCH  26  27
ENDBRANCH  20  21
ENDBRANCH   1  20
BRANCH   1  31
HETATM   31  C24 UNL     1      -7.232  36.932   1.842  1.00  0.00     0.224 C
HETATM   32  O2  UNL     1      -7.811  37.670   1.025  1.00  0.00    -0.273 OA
HETATM   33  N4  UNL     1      -6.412  35.888   1.396  1.00  0.00    -0.352 N
HETATM   34  C25 UNL     1      -6.250  35.686  -0.057  1.00  0.00     0.126 C
HETATM   35  C30 UNL     1      -5.701  34.967   2.227  1.00  0.00     0.126 C
HETATM   36  C26 UNL     1      -7.035  34.431  -0.358  1.00  0.00     0.033 C
HETATM   37  C27 UNL     1      -6.520  33.319   0.503  1.00  0.00     0.078 C
HETATM   38  C29 UNL     1      -5.407  33.711   1.431  1.00  0.00     0.033 C
BRANCH  37  39
HETATM   39  C28 UNL     1      -5.998  32.182  -0.326  1.00  0.00     0.235 C
HETATM   40  N5  UNL     1      -6.888  31.150  -0.652  1.00  0.00    -0.062 NA
HETATM   41  O3  UNL     1      -4.807  32.222  -0.674  1.00  0.00    -0.277 OA
ENDBRANCH  37  39
ENDBRANCH   1  31
TORSDOF 14
ENDMDL