MODEL 4
REMARK VINA RESULT: -6.782449217      3.454      9.116
REMARK  15 active torsions:
REMARK  status: ('A' for Active; 'I' for Inactive)
REMARK    1  A    between atoms: C2_2  and  C4_4
REMARK    2  A    between atoms: C5_5  and  C6_6
REMARK    3  A    between atoms: C6_6  and  N1_7
REMARK    4  A    between atoms: C6_6  and  C12_16
REMARK       I    between atoms: N1_7  and  C7_9
REMARK    5  A    between atoms: C7_9  and  O2_11
REMARK    6  A    between atoms: O2_11  and  C8_12
REMARK       I    between atoms: C12_16  and  N2_18
REMARK    7  A    between atoms: N2_18  and  C13_20
REMARK    8  A    between atoms: C13_20  and  C14_21
REMARK    9  A    between atoms: C13_20  and  C18_25
REMARK   10  A    between atoms: C14_21  and  C15_22
REMARK       I    between atoms: C18_25  and  N3_27
REMARK   11  A    between atoms: N3_27  and  C19_29
REMARK   12  A    between atoms: C19_29  and  C20_30
REMARK   13  A    between atoms: C19_29  and  C23_36
REMARK   14  A    between atoms: C21_31  and  S1_32
REMARK   15  A    between atoms: C23_36  and  C24_37
ROOT
HETATM    1  C13 UNL     1      -6.193  35.359   1.232  1.00  0.00     0.177 C
ENDROOT
BRANCH   1   2
HETATM    2  N2  UNL     1      -6.412  36.298   2.312  1.00  0.00    -0.346 N
HETATM    3  C12 UNL     1      -5.482  36.982   3.093  1.00  0.00     0.245 C
HETATM    4  O3  UNL     1      -4.257  36.853   2.936  1.00  0.00    -0.271 OA
ATOM      5  H2  UNL     1      -7.390  36.486   2.533  1.00  0.00     0.163 HD
BRANCH   3   6
HETATM    6  C6  UNL     1      -5.903  37.921   4.193  1.00  0.00     0.202 C
BRANCH   6   7
HETATM    7  C5  UNL     1      -5.831  39.332   3.740  1.00  0.00     0.004 C
HETATM    8  C4  UNL     1      -4.772  40.091   3.956  1.00  0.00    -0.024 C
BRANCH   8   9
HETATM    9  C2  UNL     1      -4.696  41.499   3.504  1.00  0.00    -0.001 C
HETATM   10  C1  UNL     1      -3.510  41.711   2.572  1.00  0.00     0.013 C
HETATM   11  C3  UNL     1      -4.620  42.459   4.678  1.00  0.00     0.013 C
ENDBRANCH   8   9
ENDBRANCH   6   7
BRANCH   6  12
HETATM   12  N1  UNL     1      -4.948  37.820   5.317  1.00  0.00    -0.320 N
HETATM   13  C7  UNL     1      -5.477  37.678   6.633  1.00  0.00     0.362 C
HETATM   14  O1  UNL     1      -6.732  37.655   6.829  1.00  0.00    -0.238 OA
ATOM     15  H1  UNL     1      -3.942  37.849   5.155  1.00  0.00     0.166 HD
BRANCH  13  16
HETATM   16  O2  UNL     1      -4.645  37.564   7.715  1.00  0.00    -0.294 OA
BRANCH  16  17
HETATM   17  C8  UNL     1      -4.318  38.638   8.558  1.00  0.00     0.061 C
HETATM   18  C9  UNL     1      -4.209  39.963   7.871  1.00  0.00     0.046 C
HETATM   19  C10 UNL     1      -5.283  38.790   9.726  1.00  0.00     0.046 C
HETATM   20  C11 UNL     1      -2.961  38.337   9.196  1.00  0.00     0.046 C
ENDBRANCH  16  17
ENDBRANCH  13  16
ENDBRANCH   6  12
ENDBRANCH   3   6
ENDBRANCH   1   2
BRANCH   1  21
HETATM   21  C14 UNL     1      -5.618  34.034   1.702  1.00  0.00     0.038 C
BRANCH  21  22
HETATM   22  C15 UNL     1      -4.464  33.584   0.799  1.00  0.00    -0.020 C
HETATM   23  C16 UNL     1      -3.313  33.075   1.638  1.00  0.00     0.009 C
HETATM   24  C17 UNL     1      -4.996  32.470  -0.060  1.00  0.00     0.009 C
ENDBRANCH  21  22
ENDBRANCH   1  21
BRANCH   1  25
HETATM   25  C18 UNL     1      -7.514  35.101   0.642  1.00  0.00     0.241 C
HETATM   26  O4  UNL     1      -8.250  36.125   0.411  1.00  0.00    -0.271 OA
HETATM   27  N3  UNL     1      -8.087  33.870   0.289  1.00  0.00    -0.351 N
ATOM     28  H3  UNL     1      -7.552  33.015   0.444  1.00  0.00     0.163 HD
BRANCH  27  29
HETATM   29  C19 UNL     1      -9.418  33.772  -0.291  1.00  0.00     0.108 C
BRANCH  29  30
HETATM   30  C20 UNL     1     -10.380  33.338   0.743  1.00  0.00     0.010 C
HETATM   31  C21 UNL     1     -11.121  34.198   1.416  1.00  0.00     0.106 C
BRANCH  31  32
HETATM   32  S1  UNL     1     -12.258  33.714   2.636  1.00  0.00     0.161 S
HETATM   33  C22 UNL     1     -13.905  34.279   2.284  1.00  0.00     0.166 C
HETATM   34  O5  UNL     1     -12.283  32.210   2.725  1.00  0.00    -0.224 OA
HETATM   35  O6  UNL     1     -11.802  34.197   3.997  1.00  0.00    -0.224 OA
ENDBRANCH  31  32
ENDBRANCH  29  30
BRANCH  29  36
HETATM   36  C23 UNL     1      -9.473  32.942  -1.544  1.00  0.00     0.033 C
BRANCH  36  37
HETATM   37  C24 UNL     1      -9.632  31.492  -1.122  1.00  0.00    -0.021 C
HETATM   38  C25 UNL     1      -8.297  30.809  -0.929  1.00  0.00     0.009 C
HETATM   39  C26 UNL     1     -10.433  30.710  -2.123  1.00  0.00     0.009 C
ENDBRANCH  36  37
ENDBRANCH  29  36
ENDBRANCH  27  29
ENDBRANCH   1  25
TORSDOF 15
ENDMDL