MODEL 5
REMARK VINA RESULT: -5.882744380      2.152      4.347
REMARK  17 active torsions:
REMARK  status: ('A' for Active; 'I' for Inactive)
REMARK    1  A    between atoms: C4_4  and  C5_5
REMARK    2  A    between atoms: C7_8  and  C8_9
REMARK    3  A    between atoms: C8_9  and  C9_10
REMARK    4  A    between atoms: C9_10  and  C10_11
REMARK    5  A    between atoms: C10_11  and  O2_12
REMARK    6  A    between atoms: C10_11  and  C11_14
REMARK    7  A    between atoms: C11_14  and  C12_15
REMARK    8  A    between atoms: C12_15  and  O3_16
REMARK    9  A    between atoms: C12_15  and  C13_18
REMARK   10  A    between atoms: C13_18  and  C14_19
REMARK   11  A    between atoms: N1_24  and  C17_25
REMARK   12  A    between atoms: C17_25  and  C18_26
REMARK   13  A    between atoms: C21_29  and  C22_30
REMARK   14  A    between atoms: C22_30  and  O6_31
REMARK   15  A    between atoms: C22_30  and  N2_33
REMARK   16  A    between atoms: N2_33  and  C23_34
REMARK   17  A    between atoms: N2_33  and  C26_37
ROOT
HETATM    1  C5  UNL     1      -7.856  34.999   2.831  1.00  0.00     0.019 C
HETATM    2  C6  UNL     1      -6.887  34.150   2.112  1.00  0.00     0.162 C
HETATM    3  O1  UNL     1      -6.882  33.029   2.610  1.00  0.00    -0.292 OA
HETATM    4  C7  UNL     1      -5.935  34.220   1.005  1.00  0.00     0.062 C
HETATM    5  C15 UNL     1      -6.180  35.250  -0.020  1.00  0.00     0.032 C
HETATM    6  C16 UNL     1      -7.629  35.738   0.127  1.00  0.00     0.124 C
HETATM    7  N1  UNL     1      -7.703  36.720   1.076  1.00  0.00    -0.377 N
HETATM    8  C21 UNL     1      -7.944  36.442   2.471  1.00  0.00     0.195 C
ENDROOT
BRANCH   4   9
HETATM    9  C8  UNL     1      -5.838  32.811   0.398  1.00  0.00     0.015 C
BRANCH   9  10
HETATM   10  C9  UNL     1      -6.710  32.611  -0.790  1.00  0.00     0.032 C
BRANCH  10  11
HETATM   11  C10 UNL     1      -7.965  31.855  -0.479  1.00  0.00     0.120 C
BRANCH  11  12
HETATM   12  O2  UNL     1      -7.653  30.478  -0.473  1.00  0.00    -0.395 OA
ATOM     13  H2  UNL     1      -6.731  30.388  -0.262  1.00  0.00     0.210 HD
ENDBRANCH  11  12
BRANCH  11  14
HETATM   14  C11 UNL     1      -8.939  32.084  -1.640  1.00  0.00     0.064 C
BRANCH  14  15
HETATM   15  C12 UNL     1     -10.322  31.640  -1.168  1.00  0.00     0.130 C
BRANCH  15  16
HETATM   16  O3  UNL     1     -10.208  31.139   0.131  1.00  0.00    -0.395 OA
ATOM     17  H3  UNL     1     -11.046  30.773   0.388  1.00  0.00     0.210 HD
ENDBRANCH  15  16
BRANCH  15  18
HETATM   18  C13 UNL     1     -10.753  30.532  -2.079  1.00  0.00     0.144 C
BRANCH  18  19
HETATM   19  C14 UNL     1     -10.987  29.317  -1.304  1.00  0.00     0.175 C
HETATM   20  O4  UNL     1     -12.143  28.960  -1.008  1.00  0.00    -0.648 OA
HETATM   21  O5  UNL     1      -9.913  28.547  -0.892  1.00  0.00    -0.648 OA
ENDBRANCH  18  19
ENDBRANCH  15  18
ENDBRANCH  14  15
ENDBRANCH  11  14
ENDBRANCH  10  11
ENDBRANCH   9  10
ENDBRANCH   4   9
BRANCH   1  22
HETATM   22  C4  UNL     1      -9.083  34.312   3.251  1.00  0.00     0.015 C
HETATM   23  C2  UNL     1     -10.422  34.529   2.755  1.00  0.00    -0.087 C
HETATM   24  C1  UNL     1     -10.789  34.333   1.336  1.00  0.00     0.043 C
HETATM   25  C3  UNL     1     -11.144  35.780   3.260  1.00  0.00     0.043 C
ENDBRANCH   1  22
BRANCH   8  26
HETATM   26  C22 UNL     1      -6.976  37.315   3.183  1.00  0.00     0.142 C
BRANCH  26  27
HETATM   27  O6  UNL     1      -5.854  37.541   2.511  1.00  0.00    -0.348 OA
ATOM     28  H6  UNL     1      -5.172  37.959   3.025  1.00  0.00     0.219 HD
ENDBRANCH  26  27
BRANCH  26  29
HETATM   29  N2  UNL     1      -6.976  37.975   4.426  1.00  0.00    -0.351 N
BRANCH  29  30
HETATM   30  C23 UNL     1      -7.863  39.153   4.487  1.00  0.00     0.079 C
HETATM   31  C24 UNL     1      -9.310  38.885   4.385  1.00  0.00     0.032 C
HETATM   32  C25 UNL     1      -7.506  40.219   3.493  1.00  0.00     0.032 C
ENDBRANCH  29  30
BRANCH  29  33
HETATM   33  C26 UNL     1      -6.200  37.600   5.580  1.00  0.00     0.024 C
HETATM   34  C27 UNL     1      -5.469  36.274   5.435  1.00  0.00     0.037 C
HETATM   35  C28 UNL     1      -5.204  38.668   6.049  1.00  0.00     0.037 C
HETATM   36  C29 UNL     1      -7.089  37.428   6.826  1.00  0.00     0.037 C
ENDBRANCH  29  33
ENDBRANCH  26  29
ENDBRANCH   8  26
BRANCH   7  37
HETATM   37  C17 UNL     1      -8.134  37.980   0.641  1.00  0.00     0.063 C
BRANCH  37  38
HETATM   38  C18 UNL     1      -9.518  38.428   0.839  1.00  0.00     0.016 C
HETATM   39  C19 UNL     1     -10.605  37.721   0.105  1.00  0.00     0.015 C
HETATM   40  C20 UNL     1      -9.589  39.895   0.366  1.00  0.00     0.015 C
ENDBRANCH  37  38
ENDBRANCH   7  37
TORSDOF 17
ENDMDL