MODEL 3
REMARK VINA RESULT: -6.792500460      0.583      1.505
REMARK  15 active torsions:
REMARK  status: ('A' for Active; 'I' for Inactive)
REMARK    1  A    between atoms: C2_2  and  C3_3
REMARK    2  A    between atoms: C3_3  and  C5_5
REMARK    3  A    between atoms: C5_5  and  N1_6
REMARK    4  A    between atoms: C5_5  and  C17_21
REMARK       I    between atoms: N1_6  and  C6_8
REMARK    5  A    between atoms: C6_8  and  O2_10
REMARK    6  A    between atoms: O2_10  and  C7_11
REMARK    7  A    between atoms: C17_21  and  C18_23
REMARK    8  A    between atoms: C18_23  and  C19_24
REMARK    9  A    between atoms: C18_23  and  N2_28
REMARK   10  A    between atoms: C19_24  and  C20_25
REMARK       I    between atoms: N2_28  and  C23_30
REMARK   11  A    between atoms: C23_30  and  C24_32
REMARK   12  A    between atoms: C24_32  and  C25_33
REMARK   13  A    between atoms: C24_32  and  N4_37
REMARK   14  A    between atoms: C25_33  and  C26_34
REMARK   15  A    between atoms: N4_37  and  C28_39
ROOT
HETATM    1  C5  UNL     1      -8.061  36.850   1.258  1.00  0.00     0.066 C
ENDROOT
BRANCH   1   2
HETATM    2  C3  UNL     1      -8.773  37.608   0.194  1.00  0.00     0.035 C
HETATM    3  C4  UNL     1      -8.619  39.119   0.345  1.00  0.00     0.016 C
BRANCH   2   4
HETATM    4  C2  UNL     1     -10.289  37.318   0.261  1.00  0.00     0.006 C
HETATM    5  C1  UNL     1     -11.098  38.554   0.473  1.00  0.00     0.006 C
ENDBRANCH   2   4
ENDBRANCH   1   2
BRANCH   1   6
HETATM    6  N1  UNL     1      -7.797  37.624   2.450  1.00  0.00    -0.302 N
HETATM    7  C6  UNL     1      -8.267  37.236   3.732  1.00  0.00     0.365 C
HETATM    8  O1  UNL     1      -8.945  36.159   3.819  1.00  0.00    -0.238 OA
ATOM      9  H1  UNL     1      -7.253  38.483   2.366  1.00  0.00     0.171 HD
BRANCH   7  10
HETATM   10  O2  UNL     1      -8.051  37.920   4.888  1.00  0.00    -0.298 OA
BRANCH  10  11
HETATM   11  C7  UNL     1      -7.059  37.511   5.817  1.00  0.00     0.142 C
HETATM   12  C8  UNL     1      -7.173  38.322   7.063  1.00  0.00     0.016 C
HETATM   13  C9  UNL     1      -6.161  37.821   8.085  1.00  0.00     0.012 C
HETATM   14  C13 UNL     1      -6.895  39.786   6.858  1.00  0.00     0.012 C
HETATM   15  C10 UNL     1      -4.779  37.930   7.520  1.00  0.00    -0.013 C
HETATM   16  C11 UNL     1      -4.500  39.399   7.283  1.00  0.00     0.009 C
HETATM   17  C16 UNL     1      -4.669  37.181   6.222  1.00  0.00     0.012 C
HETATM   18  C12 UNL     1      -5.499  39.926   6.308  1.00  0.00    -0.013 C
HETATM   19  C14 UNL     1      -5.388  39.180   5.007  1.00  0.00     0.012 C
HETATM   20  C15 UNL     1      -5.672  37.719   5.235  1.00  0.00     0.016 C
ENDBRANCH  10  11
ENDBRANCH   7  10
ENDBRANCH   1   6
BRANCH   1  21
HETATM   21  C17 UNL     1      -6.972  35.964   0.850  1.00  0.00     0.194 C
HETATM   22  O3  UNL     1      -5.861  36.425   0.655  1.00  0.00    -0.289 OA
BRANCH  21  23
HETATM   23  C18 UNL     1      -7.108  34.479   0.649  1.00  0.00     0.161 C
BRANCH  23  24
HETATM   24  C19 UNL     1      -6.119  33.880   1.619  1.00  0.00     0.037 C
BRANCH  24  25
HETATM   25  C20 UNL     1      -5.191  32.863   1.061  1.00  0.00    -0.020 C
HETATM   26  C21 UNL     1      -5.407  32.429  -0.339  1.00  0.00     0.009 C
HETATM   27  C22 UNL     1      -3.730  33.246   1.260  1.00  0.00     0.009 C
ENDBRANCH  24  25
ENDBRANCH  23  24
BRANCH  23  28
HETATM   28  N2  UNL     1      -8.444  34.189   1.202  1.00  0.00    -0.347 N
HETATM   29  C23 UNL     1      -9.489  33.714   0.354  1.00  0.00     0.252 C
HETATM   30  O4  UNL     1      -9.220  33.561  -0.846  1.00  0.00    -0.271 OA
ATOM     31  H2  UNL     1      -8.622  34.328   2.197  1.00  0.00     0.163 HD
BRANCH  29  32
HETATM   32  C24 UNL     1     -10.796  33.438   0.925  1.00  0.00     0.321 C
BRANCH  32  33
HETATM   33  C25 UNL     1     -10.563  32.546   2.194  1.00  0.00     0.145 C
BRANCH  33  34
HETATM   34  C26 UNL     1     -11.056  31.184   1.889  1.00  0.00     0.233 C
HETATM   35  N3  UNL     1     -11.224  30.661   0.597  1.00  0.00    -0.062 NA
HETATM   36  O5  UNL     1     -11.344  30.447   2.874  1.00  0.00    -0.277 OA
ENDBRANCH  33  34
ENDBRANCH  32  33
BRANCH  32  37
HETATM   37  N4  UNL     1     -11.675  34.456   1.295  1.00  0.00     0.098 N
HETATM   38  C27 UNL     1     -11.841  34.381   2.779  1.00  0.00     0.310 C
BRANCH  37  39
HETATM   39  C28 UNL     1     -12.998  34.516   0.782  1.00  0.00     0.268 C
HETATM   40  C29 UNL     1     -14.089  33.744   1.430  1.00  0.00     0.037 C
ENDBRANCH  37  39
ENDBRANCH  32  37
ENDBRANCH  29  32
ENDBRANCH  23  28
ENDBRANCH  21  23
ENDBRANCH   1  21
TORSDOF 15
ENDMDL