MODEL 3
REMARK VINA RESULT: -8.158212016      0.243      1.310
REMARK  10 active torsions:
REMARK  status: ('A' for Active; 'I' for Inactive)
REMARK    1  A    between atoms: C2_2  and  C4_4
REMARK    2  A    between atoms: C4_4  and  N1_5
REMARK    3  A    between atoms: C4_4  and  C26_33
REMARK       I    between atoms: N1_5  and  C5_7
REMARK    4  A    between atoms: C5_7  and  C6_9
REMARK    5  A    between atoms: C6_9  and  N2_10
REMARK    6  A    between atoms: C6_9  and  C19_25
REMARK       I    between atoms: N2_10  and  C7_12
REMARK    7  A    between atoms: C7_12  and  C8_14
REMARK    8  A    between atoms: C8_14  and  C9_15
REMARK    9  A    between atoms: C19_25  and  C21_27
REMARK   10  A    between atoms: C21_27  and  N3_28
ROOT
HETATM    1  C6  UNL     1     -14.513  44.546  -2.615  1.00  0.00     0.182 C
ENDROOT
BRANCH   1   2
HETATM    2  C5  UNL     1     -14.682  45.313  -1.366  1.00  0.00     0.241 C
HETATM    3  N1  UNL     1     -13.776  46.275  -0.882  1.00  0.00    -0.344 N
ATOM      4  H1  UNL     1     -12.929  46.465  -1.419  1.00  0.00     0.163 HD
HETATM    5  O1  UNL     1     -15.722  45.133  -0.635  1.00  0.00    -0.271 OA
BRANCH   3   6
HETATM    6  C4  UNL     1     -13.999  47.007   0.350  1.00  0.00     0.189 C
BRANCH   6   7
HETATM    7  C2  UNL     1     -13.133  48.264   0.346  1.00  0.00     0.010 C
HETATM    8  C1  UNL     1     -13.936  49.492  -0.055  1.00  0.00     0.012 C
HETATM    9  C3  UNL     1     -11.961  48.139  -0.593  1.00  0.00     0.012 C
ENDBRANCH   6   7
BRANCH   6  10
HETATM   10  C26 UNL     1     -13.768  46.189   1.544  1.00  0.00     0.197 C
HETATM   11  O3  UNL     1     -14.606  45.422   2.042  1.00  0.00    -0.646 OA
HETATM   12  O4  UNL     1     -12.510  46.268   2.187  1.00  0.00    -0.646 OA
ENDBRANCH   6  10
ENDBRANCH   3   6
ENDBRANCH   1   2
BRANCH   1  13
HETATM   13  N2  UNL     1     -13.069  44.375  -2.777  1.00  0.00    -0.347 N
HETATM   14  C7  UNL     1     -12.310  43.378  -2.117  1.00  0.00     0.219 C
HETATM   15  O2  UNL     1     -12.983  42.617  -1.353  1.00  0.00    -0.274 OA
ATOM     16  H2  UNL     1     -12.579  45.013  -3.404  1.00  0.00     0.163 HD
BRANCH  14  17
HETATM   17  C8  UNL     1     -10.877  43.250  -2.308  1.00  0.00     0.112 C
BRANCH  17  18
HETATM   18  C9  UNL     1      -9.982  43.543  -1.171  1.00  0.00    -0.031 C
HETATM   19  C10 UNL     1      -8.559  43.819  -1.545  1.00  0.00     0.014 C
HETATM   20  C11 UNL     1      -7.756  43.976  -0.263  1.00  0.00    -0.013 C
HETATM   21  C12 UNL     1      -7.790  42.700   0.550  1.00  0.00     0.009 C
HETATM   22  C16 UNL     1      -8.311  45.088   0.598  1.00  0.00     0.009 C
HETATM   23  C13 UNL     1      -9.218  42.421   0.951  1.00  0.00    -0.013 C
HETATM   24  C14 UNL     1      -9.818  43.546   1.764  1.00  0.00     0.009 C
HETATM   25  C18 UNL     1     -10.028  42.264  -0.295  1.00  0.00     0.014 C
HETATM   26  C15 UNL     1      -9.774  44.807   0.960  1.00  0.00    -0.013 C
HETATM   27  C17 UNL     1     -10.509  44.702  -0.361  1.00  0.00     0.014 C
ENDBRANCH  17  18
ENDBRANCH  14  17
ENDBRANCH   1  13
BRANCH   1  28
HETATM   28  C19 UNL     1     -15.102  45.240  -3.773  1.00  0.00     0.042 C
HETATM   29  C20 UNL     1     -15.722  44.178  -4.698  1.00  0.00     0.014 C
BRANCH  28  30
HETATM   30  C21 UNL     1     -16.164  46.262  -3.506  1.00  0.00     0.279 C
BRANCH  30  31
HETATM   31  N3  UNL     1     -16.925  46.458  -4.767  1.00  0.00     0.088 N
HETATM   32  C22 UNL     1     -16.411  47.537  -5.549  1.00  0.00     0.272 C
HETATM   33  C23 UNL     1     -17.627  48.359  -5.983  1.00  0.00     0.032 C
HETATM   34  C24 UNL     1     -18.513  48.134  -4.756  1.00  0.00     0.032 C
HETATM   35  C25 UNL     1     -18.315  46.666  -4.515  1.00  0.00     0.272 C
ENDBRANCH  30  31
ENDBRANCH  28  30
ENDBRANCH   1  28
TORSDOF 10
ENDMDL