MODEL 5
REMARK VINA RESULT: -6.913298066      2.379      4.660
REMARK  10 active torsions:
REMARK  status: ('A' for Active; 'I' for Inactive)
REMARK    1  A    between atoms: C2_2  and  N1_3
REMARK    2  A    between atoms: N2_6  and  C5_7
REMARK    3  A    between atoms: C5_7  and  C6_8
REMARK    4  A    between atoms: C5_7  and  C21_32
REMARK    5  A    between atoms: C6_8  and  C7_10
REMARK    6  A    between atoms: C7_10  and  C8_11
REMARK    7  A    between atoms: C8_11  and  N3_12
REMARK       I    between atoms: N3_12  and  C9_14
REMARK       I    between atoms: C9_14  and  N4_16
REMARK    8  A    between atoms: N4_16  and  C10_18
REMARK    9  A    between atoms: C10_18  and  C13_21
REMARK       I    between atoms: C13_21  and  N5_23
REMARK   10  A    between atoms: N5_23  and  C14_25
ROOT
HETATM    1  N3  UNL     1     -11.260  41.768  -1.139  1.00  0.00    -0.343 N
ATOM      2  H3  UNL     1     -11.909  41.056  -0.803  1.00  0.00     0.164 HD
HETATM    3  C9  UNL     1     -11.712  43.069  -1.442  1.00  0.00     0.317 C
HETATM    4  O2  UNL     1     -10.899  43.922  -1.862  1.00  0.00    -0.247 OA
HETATM    5  N4  UNL     1     -13.067  43.437  -1.284  1.00  0.00    -0.326 N
ATOM      6  H4  UNL     1     -13.727  42.742  -0.937  1.00  0.00     0.165 HD
ENDROOT
BRANCH   1   7
HETATM    7  C8  UNL     1      -9.860  41.462  -1.313  1.00  0.00     0.132 C
BRANCH   7   8
HETATM    8  C7  UNL     1      -9.043  41.634  -0.080  1.00  0.00     0.104 C
BRANCH   8   9
HETATM    9  C6  UNL     1      -8.291  42.911   0.002  1.00  0.00     0.168 C
HETATM   10  O1  UNL     1      -7.724  43.229  -1.048  1.00  0.00    -0.292 OA
BRANCH   9  11
HETATM   11  C5  UNL     1      -8.205  43.764   1.219  1.00  0.00     0.037 C
BRANCH  11  12
HETATM   12  N2  UNL     1      -9.050  44.882   1.219  1.00  0.00    -0.280 NA
HETATM   13  C4  UNL     1      -9.115  45.763   0.131  1.00  0.00     0.114 C
HETATM   14  C3  UNL     1      -9.745  47.073   0.601  1.00  0.00     0.131 C
HETATM   15  N1  UNL     1     -10.315  47.002   1.893  1.00  0.00    -0.410 N
HETATM   16  C25 UNL     1     -10.998  45.813   2.228  1.00  0.00     0.131 C
HETATM   17  C24 UNL     1     -10.391  44.551   1.652  1.00  0.00     0.114 C
BRANCH  15  18
HETATM   18  C2  UNL     1      -9.683  47.734   2.929  1.00  0.00     0.112 C
HETATM   19  C1  UNL     1     -10.401  47.650   4.235  1.00  0.00     0.026 C
ENDBRANCH  15  18
ENDBRANCH  11  12
BRANCH  11  20
HETATM   20  C21 UNL     1      -6.803  43.962   1.723  1.00  0.00     0.026 C
HETATM   21  C22 UNL     1      -6.224  42.660   2.263  1.00  0.00     0.016 C
HETATM   22  C23 UNL     1      -6.619  45.015   2.749  1.00  0.00     0.016 C
ENDBRANCH  11  20
ENDBRANCH   9  11
ENDBRANCH   8   9
ENDBRANCH   7   8
ENDBRANCH   1   7
BRANCH   5  23
HETATM   23  C10 UNL     1     -13.547  44.756  -1.597  1.00  0.00     0.108 C
HETATM   24  C11 UNL     1     -12.711  45.475  -2.618  1.00  0.00     0.049 C
HETATM   25  C12 UNL     1     -13.471  45.584  -0.315  1.00  0.00     0.049 C
BRANCH  23  26
HETATM   26  C13 UNL     1     -14.939  44.679  -2.076  1.00  0.00     0.245 C
HETATM   27  O3  UNL     1     -15.653  43.709  -1.782  1.00  0.00    -0.271 OA
HETATM   28  N5  UNL     1     -15.455  45.719  -2.875  1.00  0.00    -0.354 N
ATOM     29  H5  UNL     1     -14.868  46.517  -3.122  1.00  0.00     0.162 HD
BRANCH  28  30
HETATM   30  C14 UNL     1     -16.818  45.647  -3.342  1.00  0.00     0.084 C
HETATM   31  C15 UNL     1     -16.856  45.336  -4.827  1.00  0.00     0.025 C
HETATM   32  C16 UNL     1     -18.315  45.023  -5.172  1.00  0.00     0.006 C
HETATM   33  C17 UNL     1     -19.136  46.276  -4.938  1.00  0.00    -0.019 C
HETATM   34  C18 UNL     1     -20.600  45.969  -5.134  1.00  0.00     0.010 C
HETATM   35  C19 UNL     1     -18.954  46.819  -3.555  1.00  0.00     0.006 C
HETATM   36  C20 UNL     1     -17.528  46.958  -3.128  1.00  0.00     0.025 C
ENDBRANCH  28  30
ENDBRANCH  23  26
ENDBRANCH   5  23
TORSDOF 10
ENDMDL