MODEL 2
REMARK VINA RESULT: -7.550221420      2.368      5.250
REMARK  10 active torsions:
REMARK  status: ('A' for Active; 'I' for Inactive)
REMARK    1  A    between atoms: C2_2  and  C3_3
REMARK       I    between atoms: C3_3  and  N1_5
REMARK    2  A    between atoms: N1_5  and  C4_7
REMARK    3  A    between atoms: C4_7  and  C5_8
REMARK    4  A    between atoms: C5_8  and  C6_9
REMARK    5  A    between atoms: C16_19  and  O2_20
REMARK    6  A    between atoms: C16_19  and  N2_22
REMARK    7  A    between atoms: N2_22  and  C17_24
REMARK    8  A    between atoms: C17_24  and  C18_25
REMARK    9  A    between atoms: C17_24  and  C20_29
REMARK   10  A    between atoms: C18_25  and  C19_26
REMARK       I    between atoms: C20_29  and  N3_31
ROOT
HETATM    1  C4  UNL     1      -9.319  45.104   1.775  1.00  0.00     0.082 C
HETATM    2  C16 UNL     1     -10.333  45.919   2.361  1.00  0.00     0.163 C
ENDROOT
BRANCH   1   3
HETATM    3  N1  UNL     1      -8.025  45.844   2.004  1.00  0.00    -0.324 N
HETATM    4  C3  UNL     1      -7.016  45.132   2.697  1.00  0.00     0.221 C
HETATM    5  O1  UNL     1      -7.120  43.950   3.116  1.00  0.00    -0.273 OA
ATOM      6  H1  UNL     1      -7.885  46.801   1.680  1.00  0.00     0.169 HD
BRANCH   4   7
HETATM    7  C2  UNL     1      -5.714  45.810   2.974  1.00  0.00     0.098 C
HETATM    8  C1  UNL     1      -4.657  44.756   3.175  1.00  0.00     0.014 C
ENDBRANCH   4   7
ENDBRANCH   1   3
BRANCH   1   9
HETATM    9  C5  UNL     1      -9.206  44.406   0.525  1.00  0.00     0.012 C
BRANCH   9  10
HETATM   10  C6  UNL     1     -10.202  43.616  -0.174  1.00  0.00     0.015 C
HETATM   11  C7  UNL     1      -9.435  42.799  -1.289  1.00  0.00     0.009 C
HETATM   12  C8  UNL     1     -10.092  41.451  -1.426  1.00  0.00     0.001 C
HETATM   13  C9  UNL     1     -11.598  41.657  -1.217  1.00  0.00     0.005 C
HETATM   14  C10 UNL     1     -11.901  43.002  -1.780  1.00  0.00    -0.010 C
HETATM   15  C11 UNL     1     -13.344  43.307  -2.005  1.00  0.00     0.005 C
HETATM   16  C15 UNL     1     -11.367  44.142  -0.872  1.00  0.00    -0.003 C
HETATM   17  C12 UNL     1     -13.440  44.612  -2.761  1.00  0.00     0.000 C
HETATM   18  C13 UNL     1     -12.581  45.709  -2.265  1.00  0.00     0.000 C
HETATM   19  C14 UNL     1     -11.180  45.273  -1.840  1.00  0.00     0.005 C
ENDBRANCH   9  10
ENDBRANCH   1   9
BRANCH   2  20
HETATM   20  O2  UNL     1      -9.903  46.578   3.468  1.00  0.00    -0.345 OA
ATOM     21  H2  UNL     1     -10.378  46.329   4.252  1.00  0.00     0.219 HD
ENDBRANCH   2  20
BRANCH   2  22
HETATM   22  N2  UNL     1     -11.663  46.250   2.147  1.00  0.00    -0.355 N
ATOM     23  H2  UNL     1     -12.367  45.854   2.771  1.00  0.00     0.162 HD
BRANCH  22  24
HETATM   24  C17 UNL     1     -12.121  47.161   1.041  1.00  0.00     0.186 C
BRANCH  24  25
HETATM   25  C18 UNL     1     -13.580  47.304   1.114  1.00  0.00     0.147 C
BRANCH  25  26
HETATM   26  C19 UNL     1     -14.334  46.009   1.168  1.00  0.00     0.175 C
HETATM   27  O3  UNL     1     -14.332  45.333   2.195  1.00  0.00    -0.648 OA
HETATM   28  O4  UNL     1     -15.028  45.604   0.035  1.00  0.00    -0.648 OA
ENDBRANCH  25  26
ENDBRANCH  24  25
BRANCH  24  29
HETATM   29  C20 UNL     1     -11.330  48.395   1.145  1.00  0.00     0.243 C
HETATM   30  O5  UNL     1     -11.396  48.959   2.313  1.00  0.00    -0.271 OA
HETATM   31  N3  UNL     1     -10.544  49.043   0.219  1.00  0.00    -0.350 N
HETATM   32  C21 UNL     1      -9.822  50.272   0.672  1.00  0.00     0.126 C
HETATM   33  C25 UNL     1     -10.319  48.737  -1.177  1.00  0.00     0.126 C
HETATM   34  C22 UNL     1      -8.351  50.103   0.352  1.00  0.00     0.020 C
HETATM   35  C23 UNL     1      -8.189  50.095  -1.145  1.00  0.00     0.003 C
HETATM   36  C24 UNL     1      -9.479  49.819  -1.840  1.00  0.00     0.020 C
ENDBRANCH  24  29
ENDBRANCH  22  24
ENDBRANCH   2  22
TORSDOF 10
ENDMDL