MODEL 1
REMARK VINA RESULT: -7.186688817      0.000      0.000
REMARK  13 active torsions:
REMARK  status: ('A' for Active; 'I' for Inactive)
REMARK    1  A    between atoms: C2_2  and  C4_4
REMARK    2  A    between atoms: C4_4  and  N1_5
REMARK    3  A    between atoms: C4_4  and  C13_18
REMARK       I    between atoms: N1_5  and  C5_7
REMARK    4  A    between atoms: C5_7  and  C6_9
REMARK       I    between atoms: C6_9  and  N2_11
REMARK    5  A    between atoms: C13_18  and  O3_19
REMARK    6  A    between atoms: C13_18  and  N3_21
REMARK    7  A    between atoms: N3_21  and  C14_23
REMARK    8  A    between atoms: C14_23  and  C15_24
REMARK    9  A    between atoms: C14_23  and  C22_31
REMARK   10  A    between atoms: C15_24  and  C16_25
REMARK   11  A    between atoms: C22_31  and  C23_32
REMARK   12  A    between atoms: C22_31  and  C24_37
REMARK   13  A    between atoms: C23_32  and  N4_33
ROOT
HETATM    1  C13 UNL     1      -9.891  44.745   1.889  1.00  0.00     0.135 C
ENDROOT
BRANCH   1   2
HETATM    2  C4  UNL     1     -11.047  45.264   1.185  1.00  0.00     0.162 C
BRANCH   2   3
HETATM    3  C2  UNL     1     -11.181  44.980  -0.267  1.00  0.00     0.008 C
HETATM    4  C1  UNL     1     -12.497  44.385  -0.707  1.00  0.00     0.012 C
HETATM    5  C3  UNL     1     -10.844  46.230  -1.071  1.00  0.00     0.012 C
ENDBRANCH   2   3
BRANCH   2   6
HETATM    6  N1  UNL     1     -11.213  46.695   1.463  1.00  0.00    -0.341 N
HETATM    7  C5  UNL     1     -12.407  47.319   1.861  1.00  0.00     0.310 C
HETATM    8  O1  UNL     1     -13.450  46.649   2.003  1.00  0.00    -0.262 OA
ATOM      9  H1  UNL     1     -10.390  47.288   1.358  1.00  0.00     0.163 HD
BRANCH   7  10
HETATM   10  C6  UNL     1     -12.489  48.749   2.120  1.00  0.00     0.311 C
HETATM   11  O2  UNL     1     -13.094  49.417   1.233  1.00  0.00    -0.262 OA
HETATM   12  N2  UNL     1     -11.964  49.417   3.241  1.00  0.00    -0.340 N
HETATM   13  C7  UNL     1     -11.302  48.694   4.335  1.00  0.00     0.127 C
HETATM   14  C11 UNL     1     -11.998  50.851   3.443  1.00  0.00     0.083 C
HETATM   15  C8  UNL     1     -11.241  49.558   5.583  1.00  0.00     0.020 C
HETATM   16  C9  UNL     1     -12.469  50.374   5.790  1.00  0.00     0.004 C
HETATM   17  C10 UNL     1     -12.998  51.073   4.586  1.00  0.00     0.025 C
HETATM   18  C12 UNL     1     -12.303  51.673   2.245  1.00  0.00     0.032 C
ENDBRANCH   7  10
ENDBRANCH   2   6
ENDBRANCH   1   2
BRANCH   1  19
HETATM   19  O3  UNL     1      -9.281  45.604   2.652  1.00  0.00    -0.348 OA
ATOM     20  H3  UNL     1      -9.099  45.300   3.533  1.00  0.00     0.219 HD
ENDBRANCH   1  19
BRANCH   1  21
HETATM   21  N3  UNL     1      -9.310  43.475   1.895  1.00  0.00    -0.368 N
ATOM     22  H3  UNL     1      -9.821  42.691   2.301  1.00  0.00     0.161 HD
BRANCH  21  23
HETATM   23  C14 UNL     1      -7.958  43.249   1.319  1.00  0.00     0.089 C
BRANCH  23  24
HETATM   24  C15 UNL     1      -7.137  42.514   2.282  1.00  0.00     0.030 C
BRANCH  24  25
HETATM   25  C16 UNL     1      -6.076  43.213   3.055  1.00  0.00    -0.013 C
HETATM   26  C17 UNL     1      -5.731  44.599   2.673  1.00  0.00     0.005 C
HETATM   27  C18 UNL     1      -4.728  45.138   3.715  1.00  0.00     0.000 C
HETATM   28  C19 UNL     1      -5.369  45.211   5.073  1.00  0.00     0.000 C
HETATM   29  C20 UNL     1      -5.632  43.757   5.487  1.00  0.00     0.000 C
HETATM   30  C21 UNL     1      -6.610  43.222   4.501  1.00  0.00     0.005 C
ENDBRANCH  24  25
ENDBRANCH  23  24
BRANCH  23  31
HETATM   31  C22 UNL     1      -8.170  42.504   0.007  1.00  0.00     0.037 C
BRANCH  31  32
HETATM   32  C23 UNL     1      -8.265  43.450  -1.143  1.00  0.00     0.236 C
BRANCH  32  33
HETATM   33  N4  UNL     1      -7.494  44.662  -0.945  1.00  0.00    -0.079 N
ATOM     34  H43 UNL     1      -7.947  45.275  -0.267  1.00  0.00     0.274 HD
ATOM     35  H42 UNL     1      -6.629  44.465  -0.440  1.00  0.00     0.274 HD
ATOM     36  H41 UNL     1      -7.302  45.159  -1.815  1.00  0.00     0.274 HD
ENDBRANCH  32  33
ENDBRANCH  31  32
BRANCH  31  37
HETATM   37  C24 UNL     1      -9.100  41.369   0.028  1.00  0.00    -0.015 C
HETATM   38  C25 UNL     1     -10.041  41.389  -1.192  1.00  0.00     0.010 C
HETATM   39  C26 UNL     1      -8.591  39.995   0.183  1.00  0.00     0.010 C
ENDBRANCH  31  37
ENDBRANCH  23  31
ENDBRANCH  21  23
ENDBRANCH   1  21
TORSDOF 13
ENDMDL