MODEL 1
REMARK VINA RESULT: -6.790069863      0.000      0.000
REMARK  10 active torsions:
REMARK  status: ('A' for Active; 'I' for Inactive)
REMARK    1  A    between atoms: C2_2  and  C4_4
REMARK    2  A    between atoms: C4_4  and  N1_5
REMARK       I    between atoms: N1_5  and  C5_7
REMARK    3  A    between atoms: C5_7  and  C6_9
REMARK    4  A    between atoms: C6_9  and  C7_10
REMARK    5  A    between atoms: C7_10  and  C8_11
REMARK    6  A    between atoms: C8_11  and  C9_12
REMARK    7  A    between atoms: C8_11  and  C19_27
REMARK       I    between atoms: C9_12  and  N2_14
REMARK    8  A    between atoms: C12_17  and  C13_18
REMARK    9  A    between atoms: C13_18  and  N3_19
REMARK   10  A    between atoms: N3_19  and  C14_22
ROOT
HETATM    1  C8  UNL     1      -9.407  44.870  -0.578  1.00  0.00     0.011 C
ENDROOT
BRANCH   1   2
HETATM    2  C7  UNL     1      -8.999  46.233  -0.878  1.00  0.00     0.007 C
BRANCH   2   3
HETATM    3  C6  UNL     1      -8.883  47.352   0.009  1.00  0.00     0.084 C
HETATM    4  C25 UNL     1      -9.172  48.648  -0.801  1.00  0.00     0.052 C
HETATM    5  C26 UNL     1      -8.185  49.662  -0.321  1.00  0.00     0.233 C
HETATM    6  N4  UNL     1      -6.994  48.809  -0.171  1.00  0.00    -0.074 N
HETATM    7  C27 UNL     1      -7.578  47.725   0.613  1.00  0.00     0.255 C
ATOM      8  H42 UNL     1      -6.525  48.537  -1.034  1.00  0.00     0.277 HD
ATOM      9  H41 UNL     1      -6.169  49.257   0.227  1.00  0.00     0.277 HD
BRANCH   3  10
HETATM   10  C5  UNL     1      -9.906  47.411   1.077  1.00  0.00     0.231 C
HETATM   11  N1  UNL     1     -11.288  47.266   0.872  1.00  0.00    -0.360 N
ATOM     12  H1  UNL     1     -11.616  47.103  -0.080  1.00  0.00     0.162 HD
HETATM   13  O1  UNL     1      -9.545  47.608   2.291  1.00  0.00    -0.272 OA
BRANCH  11  14
HETATM   14  C4  UNL     1     -12.271  47.334   1.929  1.00  0.00     0.126 C
BRANCH  14  15
HETATM   15  C2  UNL     1     -13.679  47.305   1.401  1.00  0.00    -0.005 C
HETATM   16  C1  UNL     1     -14.156  45.864   1.201  1.00  0.00     0.011 C
HETATM   17  C3  UNL     1     -13.789  47.978   0.052  1.00  0.00     0.011 C
ENDBRANCH  14  15
ENDBRANCH  11  14
ENDBRANCH   3  10
ENDBRANCH   2   3
ENDBRANCH   1   2
BRANCH   1  18
HETATM   18  C9  UNL     1      -8.377  43.881  -0.234  1.00  0.00     0.249 C
HETATM   19  O2  UNL     1      -7.834  43.109  -1.099  1.00  0.00    -0.268 OA
HETATM   20  N2  UNL     1      -7.861  43.661   1.091  1.00  0.00    -0.348 N
HETATM   21  C10 UNL     1      -8.305  44.391   2.255  1.00  0.00     0.126 C
HETATM   22  C18 UNL     1      -6.857  42.639   1.330  1.00  0.00     0.126 C
HETATM   23  C11 UNL     1      -7.115  44.991   2.928  1.00  0.00     0.026 C
HETATM   24  C12 UNL     1      -6.170  43.925   3.365  1.00  0.00     0.014 C
HETATM   25  C17 UNL     1      -5.733  43.061   2.206  1.00  0.00     0.026 C
BRANCH  24  26
HETATM   26  C13 UNL     1      -6.755  43.105   4.490  1.00  0.00     0.237 C
BRANCH  26  27
HETATM   27  N3  UNL     1      -5.872  43.077   5.649  1.00  0.00    -0.070 N
ATOM     28  H32 UNL     1      -6.335  42.633   6.441  1.00  0.00     0.277 HD
ATOM     29  H31 UNL     1      -5.109  42.415   5.502  1.00  0.00     0.277 HD
BRANCH  27  30
HETATM   30  C14 UNL     1      -5.358  44.358   6.021  1.00  0.00     0.186 A
HETATM   31  C15 UNL     1      -6.176  45.333   6.782  1.00  0.00     0.035 A
HETATM   32  C16 UNL     1      -5.142  44.544   7.558  1.00  0.00     0.035 A
ENDBRANCH  27  30
ENDBRANCH  26  27
ENDBRANCH  24  26
ENDBRANCH   1  18
BRANCH   1  33
HETATM   33  C19 UNL     1     -10.513  44.289  -1.437  1.00  0.00     0.024 C
HETATM   34  C20 UNL     1     -11.153  45.384  -2.257  1.00  0.00     0.009 C
HETATM   35  C21 UNL     1     -12.648  45.430  -2.185  1.00  0.00     0.001 C
HETATM   36  C22 UNL     1     -13.346  44.120  -2.247  1.00  0.00     0.000 C
HETATM   37  C23 UNL     1     -12.589  43.047  -1.490  1.00  0.00     0.001 C
HETATM   38  C24 UNL     1     -11.651  43.806  -0.537  1.00  0.00     0.009 C
ENDBRANCH   1  33
TORSDOF 10
ENDMDL