MODEL 4
REMARK VINA RESULT: -7.008443790      2.260      3.660
REMARK  14 active torsions:
REMARK  status: ('A' for Active; 'I' for Inactive)
REMARK    1  A    between atoms: C2_2  and  C3_3
REMARK    2  A    between atoms: C3_3  and  C4_4
REMARK    3  A    between atoms: C4_4  and  C5_5
REMARK    4  A    between atoms: C5_5  and  N1_6
REMARK    5  A    between atoms: C5_5  and  C12_23
REMARK       I    between atoms: N1_6  and  C6_8
REMARK    6  A    between atoms: C6_8  and  C7_10
REMARK    7  A    between atoms: C7_10  and  N2_11
REMARK    8  A    between atoms: C7_10  and  C8_15
REMARK    9  A    between atoms: C8_15  and  C10_17
REMARK   10  A    between atoms: C10_17  and  C11_18
REMARK   11  A    between atoms: C11_18  and  N3_19
REMARK   12  A    between atoms: C12_23  and  O2_24
REMARK   13  A    between atoms: C12_23  and  N4_26
REMARK   14  A    between atoms: C16_30  and  C17_31
REMARK       I    between atoms: C17_31  and  N5_33
ROOT
HETATM    1  C5  UNL     1     -10.472  44.338  -0.037  1.00  0.00     0.159 C
ENDROOT
BRANCH   1   2
HETATM    2  C4  UNL     1      -9.749  43.835  -1.221  1.00  0.00     0.033 C
BRANCH   2   3
HETATM    3  C3  UNL     1      -8.674  42.854  -0.677  1.00  0.00     0.002 C
BRANCH   3   4
HETATM    4  C2  UNL     1      -9.446  41.577  -0.349  1.00  0.00    -0.004 C
HETATM    5  C1  UNL     1      -8.613  40.595   0.411  1.00  0.00     0.005 C
ENDBRANCH   3   4
ENDBRANCH   2   3
ENDBRANCH   1   2
BRANCH   1   6
HETATM    6  N1  UNL     1     -11.710  45.051  -0.403  1.00  0.00    -0.347 N
HETATM    7  C6  UNL     1     -12.814  44.359  -0.965  1.00  0.00     0.249 C
HETATM    8  O1  UNL     1     -12.718  43.119  -1.147  1.00  0.00    -0.271 OA
ATOM      9  H1  UNL     1     -11.774  46.057  -0.250  1.00  0.00     0.163 HD
BRANCH   7  10
HETATM   10  C7  UNL     1     -14.073  45.017  -1.350  1.00  0.00     0.278 C
BRANCH  10  11
HETATM   11  N2  UNL     1     -13.924  46.439  -1.547  1.00  0.00    -0.066 N
ATOM     12  H23 UNL     1     -14.833  46.900  -1.581  1.00  0.00     0.275 HD
ATOM     13  H22 UNL     1     -13.543  46.886  -0.713  1.00  0.00     0.275 HD
ATOM     14  H21 UNL     1     -13.367  46.668  -2.371  1.00  0.00     0.275 HD
ENDBRANCH  10  11
BRANCH  10  15
HETATM   15  C8  UNL     1     -14.742  44.380  -2.545  1.00  0.00     0.023 C
HETATM   16  C9  UNL     1     -16.062  43.798  -2.095  1.00  0.00     0.012 C
BRANCH  15  17
HETATM   17  C10 UNL     1     -14.920  45.365  -3.679  1.00  0.00     0.034 C
BRANCH  17  18
HETATM   18  C11 UNL     1     -15.812  44.811  -4.764  1.00  0.00     0.230 C
BRANCH  18  19
HETATM   19  N3  UNL     1     -16.251  45.870  -5.673  1.00  0.00    -0.079 N
ATOM     20  H33 UNL     1     -16.753  46.608  -5.177  1.00  0.00     0.274 HD
ATOM     21  H32 UNL     1     -15.465  46.421  -6.016  1.00  0.00     0.274 HD
ATOM     22  H31 UNL     1     -16.805  45.487  -6.438  1.00  0.00     0.274 HD
ENDBRANCH  18  19
ENDBRANCH  17  18
ENDBRANCH  15  17
ENDBRANCH  10  15
ENDBRANCH   7  10
ENDBRANCH   1   6
BRANCH   1  23
HETATM   23  C12 UNL     1      -9.764  45.154   0.934  1.00  0.00     0.137 C
BRANCH  23  24
HETATM   24  O2  UNL     1      -9.915  44.713   2.159  1.00  0.00    -0.348 OA
ATOM     25  H2  UNL     1      -9.729  43.785   2.234  1.00  0.00     0.219 HD
ENDBRANCH  23  24
BRANCH  23  26
HETATM   26  N4  UNL     1      -8.973  46.292   0.827  1.00  0.00    -0.350 N
HETATM   27  C13 UNL     1      -9.242  47.685   0.609  1.00  0.00     0.126 C
HETATM   28  C14 UNL     1      -8.279  47.985  -0.534  1.00  0.00     0.022 C
HETATM   29  C15 UNL     1      -7.003  47.399   0.051  1.00  0.00     0.037 C
HETATM   30  C16 UNL     1      -7.473  46.277   0.921  1.00  0.00     0.178 C
BRANCH  30  31
HETATM   31  C17 UNL     1      -7.066  46.518   2.313  1.00  0.00     0.243 C
HETATM   32  O3  UNL     1      -7.182  47.658   2.878  1.00  0.00    -0.271 OA
HETATM   33  N5  UNL     1      -6.525  45.475   3.088  1.00  0.00    -0.345 N
HETATM   34  C18 UNL     1      -6.090  45.714   4.467  1.00  0.00     0.131 C
HETATM   35  C23 UNL     1      -6.394  44.151   2.569  1.00  0.00     0.087 C
HETATM   36  C19 UNL     1      -4.938  44.799   4.720  1.00  0.00     0.004 C
HETATM   37  C20 UNL     1      -5.358  43.431   5.184  1.00  0.00     0.006 C
HETATM   38  C25 UNL     1      -4.152  44.618   3.434  1.00  0.00     0.008 C
HETATM   39  C21 UNL     1      -6.785  43.113   4.845  1.00  0.00     0.002 C
HETATM   40  C22 UNL     1      -7.103  43.100   3.395  1.00  0.00     0.025 C
HETATM   41  C24 UNL     1      -4.918  43.743   2.456  1.00  0.00     0.026 C
ENDBRANCH  30  31
ENDBRANCH  23  26
ENDBRANCH   1  23
TORSDOF 14
ENDMDL