MODEL 4
REMARK VINA RESULT: -7.616300030      2.442      6.204
REMARK  10 active torsions:
REMARK  status: ('A' for Active; 'I' for Inactive)
REMARK    1  A    between atoms: C2_2  and  C3_3
REMARK    2  A    between atoms: C3_3  and  N1_4
REMARK    3  A    between atoms: C3_3  and  C16_20
REMARK       I    between atoms: N1_4  and  C4_6
REMARK    4  A    between atoms: C4_6  and  C5_8
REMARK    5  A    between atoms: C5_8  and  N2_10
REMARK    6  A    between atoms: C12_16  and  C13_17
REMARK       I    between atoms: C16_20  and  N3_22
REMARK    7  A    between atoms: N3_22  and  C17_24
REMARK    8  A    between atoms: C17_24  and  C18_25
REMARK    9  A    between atoms: C17_24  and  C25_32
REMARK   10  A    between atoms: C18_25  and  C19_26
REMARK       I    between atoms: C25_32  and  N4_34
ROOT
HETATM    1  C3  UNL     1     -13.621  45.545  -1.239  1.00  0.00     0.199 C
ENDROOT
BRANCH   1   2
HETATM    2  C2  UNL     1     -14.976  45.242  -1.774  1.00  0.00    -0.003 C
HETATM    3  C1  UNL     1     -15.289  44.080  -2.320  1.00  0.00     0.009 C
ENDBRANCH   1   2
BRANCH   1   4
HETATM    4  N1  UNL     1     -12.962  44.399  -0.699  1.00  0.00    -0.343 N
HETATM    5  C4  UNL     1     -11.698  43.905  -1.100  1.00  0.00     0.241 C
HETATM    6  O1  UNL     1     -11.156  44.596  -2.040  1.00  0.00    -0.271 OA
ATOM      7  H1  UNL     1     -13.446  43.891   0.041  1.00  0.00     0.163 HD
BRANCH   5   8
HETATM    8  C5  UNL     1     -11.000  42.740  -0.570  1.00  0.00     0.172 C
HETATM    9  C6  UNL     1     -10.742  41.679  -1.622  1.00  0.00     0.042 C
BRANCH   8  10
HETATM   10  N2  UNL     1      -9.868  43.003   0.277  1.00  0.00    -0.375 N
HETATM   11  C7  UNL     1     -10.096  44.102   1.112  1.00  0.00     0.064 C
HETATM   12  C8  UNL     1      -9.337  45.355   0.898  1.00  0.00     0.020 C
HETATM   13  C9  UNL     1      -9.180  46.153   2.210  1.00  0.00     0.015 C
HETATM   14  C10 UNL     1      -8.040  45.250   0.179  1.00  0.00     0.011 C
HETATM   15  C11 UNL     1      -7.911  44.097  -0.735  1.00  0.00     0.026 C
HETATM   16  C12 UNL     1      -8.597  42.848  -0.337  1.00  0.00     0.087 C
BRANCH  16  17
HETATM   17  C13 UNL     1      -7.723  41.859   0.405  1.00  0.00     0.000 C
HETATM   18  C14 UNL     1      -8.503  40.565   0.679  1.00  0.00     0.011 C
HETATM   19  C15 UNL     1      -7.215  42.324   1.722  1.00  0.00     0.011 C
ENDBRANCH  16  17
ENDBRANCH   8  10
ENDBRANCH   5   8
ENDBRANCH   1   4
BRANCH   1  20
HETATM   20  C16 UNL     1     -13.687  46.689  -0.253  1.00  0.00     0.244 C
HETATM   21  O2  UNL     1     -14.531  46.557   0.662  1.00  0.00    -0.271 OA
HETATM   22  N3  UNL     1     -12.824  47.757  -0.449  1.00  0.00    -0.346 N
ATOM     23  H3  UNL     1     -12.197  47.692  -1.252  1.00  0.00     0.163 HD
BRANCH  22  24
HETATM   24  C17 UNL     1     -12.713  48.971   0.369  1.00  0.00     0.177 C
BRANCH  24  25
HETATM   25  C18 UNL     1     -11.243  49.179   0.546  1.00  0.00     0.039 C
BRANCH  25  26
HETATM   26  C19 UNL     1     -10.724  49.401   1.916  1.00  0.00    -0.012 C
HETATM   27  C20 UNL     1     -11.788  48.798   2.864  1.00  0.00     0.005 C
HETATM   28  C21 UNL     1     -11.981  49.653   4.083  1.00  0.00     0.000 C
HETATM   29  C22 UNL     1     -10.627  50.023   4.639  1.00  0.00     0.000 C
HETATM   30  C23 UNL     1      -9.967  50.954   3.644  1.00  0.00     0.000 C
HETATM   31  C24 UNL     1     -10.637  50.869   2.290  1.00  0.00     0.005 C
ENDBRANCH  25  26
ENDBRANCH  24  25
BRANCH  24  32
HETATM   32  C25 UNL     1     -13.408  50.091  -0.270  1.00  0.00     0.240 C
HETATM   33  O3  UNL     1     -12.675  51.045  -0.731  1.00  0.00    -0.271 OA
HETATM   34  N4  UNL     1     -14.788  50.271  -0.459  1.00  0.00    -0.364 N
HETATM   35  C26 UNL     1     -15.348  51.445  -1.109  1.00  0.00     0.149 C
ATOM     36  H4  UNL     1     -15.424  49.547  -0.126  1.00  0.00     0.161 HD
ENDBRANCH  24  32
ENDBRANCH  22  24
ENDBRANCH   1  20
TORSDOF 10
ENDMDL