MODEL 4
REMARK VINA RESULT: -6.815073303      1.381      2.978
REMARK  11 active torsions:
REMARK  status: ('A' for Active; 'I' for Inactive)
REMARK    1  A    between atoms: C2_2  and  C4_4
REMARK    2  A    between atoms: C4_4  and  N1_5
REMARK       I    between atoms: N1_5  and  C5_7
REMARK    3  A    between atoms: C5_7  and  C6_9
REMARK    4  A    between atoms: C6_9  and  C7_10
REMARK    5  A    between atoms: C6_9  and  N2_14
REMARK    6  A    between atoms: C7_10  and  C8_11
REMARK       I    between atoms: N2_14  and  C11_16
REMARK    7  A    between atoms: C11_16  and  C12_18
REMARK    8  A    between atoms: C12_18  and  N3_19
REMARK       I    between atoms: N3_19  and  C13_21
REMARK    9  A    between atoms: C13_21  and  C14_23
REMARK   10  A    between atoms: C14_23  and  C15_24
REMARK   11  A    between atoms: C14_23  and  N4_27
ROOT
HETATM    1  C12 UNL     1     -10.431  47.057   1.067  1.00  0.00     0.114 A
HETATM    2  C23 UNL     1     -10.412  48.570   0.933  1.00  0.00     0.041 A
HETATM    3  C24 UNL     1     -11.434  49.135   1.859  1.00  0.00     0.003 A
HETATM    4  C25 UNL     1     -12.034  48.011   2.636  1.00  0.00     0.003 A
HETATM    5  C26 UNL     1     -11.430  46.723   2.110  1.00  0.00     0.041 A
ENDROOT
BRANCH   1   6
HETATM    6  C11 UNL     1     -10.745  46.403  -0.216  1.00  0.00     0.246 C
HETATM    7  N2  UNL     1     -11.428  45.168  -0.351  1.00  0.00    -0.346 N
ATOM      8  H2  UNL     1     -11.715  44.667   0.490  1.00  0.00     0.163 HD
HETATM    9  O2  UNL     1     -10.395  46.962  -1.315  1.00  0.00    -0.271 OA
BRANCH   7  10
HETATM   10  C6  UNL     1     -11.733  44.596  -1.641  1.00  0.00     0.177 C
BRANCH  10  11
HETATM   11  C5  UNL     1     -13.224  44.659  -1.805  1.00  0.00     0.240 C
HETATM   12  N1  UNL     1     -13.862  44.674  -3.079  1.00  0.00    -0.359 N
ATOM     13  H1  UNL     1     -13.291  44.640  -3.924  1.00  0.00     0.162 HD
HETATM   14  O1  UNL     1     -13.936  44.699  -0.784  1.00  0.00    -0.271 OA
BRANCH  12  15
HETATM   15  C4  UNL     1     -15.300  44.735  -3.200  1.00  0.00     0.126 C
BRANCH  15  16
HETATM   16  C2  UNL     1     -15.684  44.665  -4.651  1.00  0.00    -0.005 C
HETATM   17  C1  UNL     1     -16.779  43.670  -4.890  1.00  0.00     0.011 C
HETATM   18  C3  UNL     1     -16.035  46.061  -5.128  1.00  0.00     0.011 C
ENDBRANCH  15  16
ENDBRANCH  12  15
ENDBRANCH  10  11
BRANCH  10  19
HETATM   19  C7  UNL     1     -11.251  43.231  -1.921  1.00  0.00     0.038 C
BRANCH  19  20
HETATM   20  C8  UNL     1     -10.086  42.721  -1.158  1.00  0.00    -0.020 C
HETATM   21  C9  UNL     1      -9.941  41.217  -1.208  1.00  0.00     0.009 C
HETATM   22  C10 UNL     1      -8.788  43.426  -1.393  1.00  0.00     0.009 C
ENDBRANCH  19  20
ENDBRANCH  10  19
ENDBRANCH   7  10
ENDBRANCH   1   6
BRANCH   1  23
HETATM   23  N3  UNL     1      -9.087  46.633   1.473  1.00  0.00    -0.341 N
HETATM   24  C13 UNL     1      -8.746  45.339   1.895  1.00  0.00     0.241 C
HETATM   25  O3  UNL     1      -9.617  44.447   1.951  1.00  0.00    -0.271 OA
ATOM     26  H3  UNL     1      -8.344  47.331   1.448  1.00  0.00     0.163 HD
BRANCH  24  27
HETATM   27  C14 UNL     1      -7.350  44.973   2.289  1.00  0.00     0.178 C
BRANCH  27  28
HETATM   28  C15 UNL     1      -7.384  43.510   2.570  1.00  0.00     0.009 C
HETATM   29  C16 UNL     1      -6.720  42.616   1.587  1.00  0.00     0.012 C
HETATM   30  C17 UNL     1      -6.990  43.131   3.981  1.00  0.00     0.012 C
ENDBRANCH  27  28
BRANCH  27  31
HETATM   31  N4  UNL     1      -6.739  45.846   3.182  1.00  0.00    -0.380 N
HETATM   32  C18 UNL     1      -5.343  46.072   3.017  1.00  0.00     0.123 C
HETATM   33  C19 UNL     1      -4.718  46.835   4.167  1.00  0.00     0.020 C
HETATM   34  C20 UNL     1      -5.567  48.102   4.315  1.00  0.00     0.007 C
HETATM   35  C21 UNL     1      -6.874  47.641   4.907  1.00  0.00     0.044 C
HETATM   36  C22 UNL     1      -7.382  46.410   4.265  1.00  0.00     0.059 C
ENDBRANCH  27  31
ENDBRANCH  24  27
ENDBRANCH   1  23
TORSDOF 11
ENDMDL