MODEL 4
REMARK VINA RESULT: -6.944605048      2.101      5.221
REMARK  11 active torsions:
REMARK  status: ('A' for Active; 'I' for Inactive)
REMARK    1  A    between atoms: C2_2  and  C4_4
REMARK    2  A    between atoms: C4_4  and  C5_5
REMARK    3  A    between atoms: C5_5  and  N1_6
REMARK    4  A    between atoms: C5_5  and  C12_15
REMARK       I    between atoms: N1_6  and  C6_8
REMARK    5  A    between atoms: C6_8  and  C7_10
REMARK    6  A    between atoms: C7_10  and  C8_11
REMARK       I    between atoms: C12_15  and  N2_17
REMARK    7  A    between atoms: N2_17  and  C13_19
REMARK    8  A    between atoms: C13_19  and  C15_21
REMARK       I    between atoms: C15_21  and  N3_23
REMARK    9  A    between atoms: N3_23  and  C16_25
REMARK   10  A    between atoms: C16_25  and  C17_26
REMARK   11  A    between atoms: C16_25  and  C22_33
REMARK       I    between atoms: C17_26  and  N4_28
ROOT
HETATM    1  C12 UNL     1     -11.747  43.613  -1.350  1.00  0.00     0.241 C
HETATM    2  O2  UNL     1     -11.593  42.809  -2.311  1.00  0.00    -0.271 OA
HETATM    3  N2  UNL     1     -10.695  43.657  -0.378  1.00  0.00    -0.346 N
ATOM      4  H2  UNL     1     -10.762  44.289   0.419  1.00  0.00     0.163 HD
ENDROOT
BRANCH   3   5
HETATM    5  C13 UNL     1      -9.550  42.813  -0.529  1.00  0.00     0.172 C
HETATM    6  C14 UNL     1      -9.683  41.568   0.358  1.00  0.00     0.042 C
BRANCH   5   7
HETATM    7  C15 UNL     1      -8.311  43.514  -0.113  1.00  0.00     0.240 C
HETATM    8  O3  UNL     1      -7.370  43.655  -0.913  1.00  0.00    -0.271 OA
HETATM    9  N3  UNL     1      -8.209  44.015   1.193  1.00  0.00    -0.346 N
ATOM     10  H3  UNL     1      -8.981  43.900   1.849  1.00  0.00     0.163 HD
BRANCH   9  11
HETATM   11  C16 UNL     1      -6.992  44.703   1.606  1.00  0.00     0.180 C
BRANCH  11  12
HETATM   12  C17 UNL     1      -7.278  46.116   1.894  1.00  0.00     0.243 C
HETATM   13  O4  UNL     1      -7.370  46.435   3.133  1.00  0.00    -0.271 OA
HETATM   14  N4  UNL     1      -7.457  47.143   0.953  1.00  0.00    -0.350 N
HETATM   15  C18 UNL     1      -7.715  48.561   1.288  1.00  0.00     0.126 C
HETATM   16  C21 UNL     1      -7.466  47.161  -0.495  1.00  0.00     0.126 C
HETATM   17  C19 UNL     1      -6.581  49.198   0.478  1.00  0.00     0.021 C
HETATM   18  C20 UNL     1      -6.512  48.307  -0.768  1.00  0.00     0.021 C
ENDBRANCH  11  12
BRANCH  11  19
HETATM   19  C22 UNL     1      -6.493  43.946   2.822  1.00  0.00     0.009 C
HETATM   20  C23 UNL     1      -7.521  42.920   3.267  1.00  0.00     0.012 C
HETATM   21  C24 UNL     1      -5.263  43.172   2.389  1.00  0.00     0.012 C
ENDBRANCH  11  19
ENDBRANCH   9  11
ENDBRANCH   5   7
ENDBRANCH   3   5
BRANCH   1  22
HETATM   22  C5  UNL     1     -12.932  44.473  -1.205  1.00  0.00     0.177 C
BRANCH  22  23
HETATM   23  C4  UNL     1     -13.378  44.925  -2.576  1.00  0.00     0.038 C
BRANCH  23  24
HETATM   24  C2  UNL     1     -14.873  45.133  -2.574  1.00  0.00    -0.020 C
HETATM   25  C1  UNL     1     -15.359  45.450  -3.988  1.00  0.00     0.009 C
HETATM   26  C3  UNL     1     -15.594  43.878  -2.094  1.00  0.00     0.009 C
ENDBRANCH  23  24
ENDBRANCH  22  23
BRANCH  22  27
HETATM   27  N1  UNL     1     -12.678  45.497  -0.260  1.00  0.00    -0.348 N
HETATM   28  C6  UNL     1     -13.482  46.015   0.762  1.00  0.00     0.218 C
HETATM   29  O1  UNL     1     -14.644  45.549   0.922  1.00  0.00    -0.274 OA
ATOM     30  H1  UNL     1     -11.757  45.929  -0.337  1.00  0.00     0.163 HD
BRANCH  28  31
HETATM   31  C7  UNL     1     -12.969  47.103   1.647  1.00  0.00     0.111 C
BRANCH  31  32
HETATM   32  C8  UNL     1     -12.878  48.419   0.927  1.00  0.00    -0.043 C
HETATM   33  C9  UNL     1     -12.598  49.473   1.981  1.00  0.00     0.015 C
HETATM   34  C10 UNL     1     -11.703  48.434  -0.051  1.00  0.00     0.015 C
HETATM   35  C11 UNL     1     -14.097  48.815   0.173  1.00  0.00     0.015 C
ENDBRANCH  31  32
ENDBRANCH  28  31
ENDBRANCH  22  27
ENDBRANCH   1  22
TORSDOF 11
ENDMDL