MODEL 5
REMARK VINA RESULT: -6.945307438      1.786      4.011
REMARK  11 active torsions:
REMARK  status: ('A' for Active; 'I' for Inactive)
REMARK    1  A    between atoms: C2_2  and  C4_4
REMARK    2  A    between atoms: C4_4  and  C5_5
REMARK    3  A    between atoms: C5_5  and  C6_6
REMARK    4  A    between atoms: C5_5  and  N1_14
REMARK    5  A    between atoms: C5_5  and  C22_29
REMARK    6  A    between atoms: C6_6  and  C7_7
REMARK       I    between atoms: N1_14  and  C14_16
REMARK    7  A    between atoms: C14_16  and  C15_18
REMARK    8  A    between atoms: C15_18  and  N2_20
REMARK       I    between atoms: N2_20  and  C17_22
REMARK    9  A    between atoms: C17_22  and  C18_24
REMARK   10  A    between atoms: C18_24  and  C19_25
REMARK   11  A    between atoms: C19_25  and  N3_26
REMARK       I    between atoms: C22_29  and  N4_31
ROOT
HETATM    1  C5  UNL     1      -9.554  46.815   0.841  1.00  0.00     0.114 C
ENDROOT
BRANCH   1   2
HETATM    2  C4  UNL     1      -9.615  48.202   0.325  1.00  0.00     0.045 C
BRANCH   2   3
HETATM    3  C2  UNL     1      -9.013  48.648  -0.918  1.00  0.00    -0.020 C
HETATM    4  C1  UNL     1      -9.653  49.564  -1.871  1.00  0.00     0.009 C
HETATM    5  C3  UNL     1      -7.681  49.360  -0.516  1.00  0.00     0.009 C
ENDBRANCH   2   3
ENDBRANCH   1   2
BRANCH   1   6
HETATM    6  C6  UNL     1      -8.650  45.910   0.047  1.00  0.00     0.045 C
BRANCH   6   7
HETATM    7  C7  UNL     1      -8.493  44.504   0.376  1.00  0.00    -0.012 C
HETATM    8  C8  UNL     1      -8.496  43.781  -1.018  1.00  0.00     0.005 C
HETATM    9  C9  UNL     1      -9.035  42.398  -0.831  1.00  0.00     0.004 C
HETATM   10  C10 UNL     1      -8.684  41.920   0.551  1.00  0.00    -0.019 C
HETATM   11  C11 UNL     1      -8.627  40.400   0.499  1.00  0.00     0.010 C
HETATM   12  C12 UNL     1      -7.298  42.430   0.863  1.00  0.00     0.004 C
HETATM   13  C13 UNL     1      -7.268  43.961   1.011  1.00  0.00     0.005 C
ENDBRANCH   6   7
ENDBRANCH   1   6
BRANCH   1  14
HETATM   14  N1  UNL     1     -10.897  46.265   0.787  1.00  0.00    -0.341 N
HETATM   15  C14 UNL     1     -11.751  46.016  -0.289  1.00  0.00     0.241 C
HETATM   16  O1  UNL     1     -11.520  46.219  -1.485  1.00  0.00    -0.271 OA
ATOM     17  H1  UNL     1     -11.285  46.017   1.697  1.00  0.00     0.163 HD
BRANCH  15  18
HETATM   18  C15 UNL     1     -13.137  45.432  -0.042  1.00  0.00     0.172 C
HETATM   19  C16 UNL     1     -13.608  45.787   1.342  1.00  0.00     0.042 C
BRANCH  18  20
HETATM   20  N2  UNL     1     -14.094  45.895  -0.991  1.00  0.00    -0.348 N
HETATM   21  C17 UNL     1     -14.853  45.045  -1.837  1.00  0.00     0.220 C
HETATM   22  O2  UNL     1     -14.674  43.804  -1.744  1.00  0.00    -0.274 OA
ATOM     23  H2  UNL     1     -14.242  46.902  -1.067  1.00  0.00     0.163 HD
BRANCH  21  24
HETATM   24  C18 UNL     1     -15.839  45.538  -2.814  1.00  0.00     0.133 C
BRANCH  24  25
HETATM   25  C19 UNL     1     -15.509  45.113  -4.223  1.00  0.00     0.280 C
BRANCH  25  26
HETATM   26  N3  UNL     1     -16.493  45.555  -5.174  1.00  0.00     0.080 N
HETATM   27  C20 UNL     1     -16.307  46.929  -5.585  1.00  0.00     0.309 C
HETATM   28  C21 UNL     1     -17.842  45.277  -4.796  1.00  0.00     0.309 C
ENDBRANCH  25  26
ENDBRANCH  24  25
ENDBRANCH  21  24
ENDBRANCH  18  20
ENDBRANCH  15  18
ENDBRANCH   1  14
BRANCH   1  29
HETATM   29  C22 UNL     1      -9.175  46.809   2.272  1.00  0.00     0.248 C
HETATM   30  O3  UNL     1     -10.183  46.504   3.030  1.00  0.00    -0.271 OA
HETATM   31  N4  UNL     1      -7.941  47.071   2.896  1.00  0.00    -0.350 N
HETATM   32  C23 UNL     1      -7.849  47.007   4.374  1.00  0.00     0.126 C
HETATM   33  C26 UNL     1      -6.622  47.390   2.452  1.00  0.00     0.126 C
HETATM   34  C24 UNL     1      -6.755  47.931   4.766  1.00  0.00     0.021 C
HETATM   35  C25 UNL     1      -5.742  47.532   3.680  1.00  0.00     0.021 C
ENDBRANCH   1  29
TORSDOF 11
ENDMDL