MODEL 1
REMARK VINA RESULT: -8.045475963      0.000      0.000
REMARK  8 active torsions:
REMARK  status: ('A' for Active; 'I' for Inactive)
REMARK    1  A    between atoms: C2_2  and  C3_3
REMARK    2  A    between atoms: C3_3  and  S1_4
REMARK    3  A    between atoms: S1_4  and  N1_7
REMARK    4  A    between atoms: N1_7  and  C4_9
REMARK    5  A    between atoms: C10_22  and  C11_23
REMARK    6  A    between atoms: C11_23  and  N5_24
REMARK    7  A    between atoms: N5_24  and  C12_25
REMARK    8  A    between atoms: N5_24  and  C15_28
ROOT
HETATM    1  C4  UNL     1     -12.071  44.501  -0.393  1.00  0.00     0.144 A
HETATM    2  N2  UNL     1     -12.536  43.954  -1.551  1.00  0.00    -0.284 N
ATOM      3  H2  UNL     1     -13.406  44.221  -2.012  1.00  0.00     0.188 HD
HETATM    4  N3  UNL     1     -11.703  43.030  -1.994  1.00  0.00    -0.302 N
ATOM      5  H3  UNL     1     -11.831  42.479  -2.842  1.00  0.00     0.186 HD
HETATM    6  C5  UNL     1     -10.646  42.927  -1.141  1.00  0.00     0.042 A
HETATM    7  C6  UNL     1     -10.877  43.844  -0.148  1.00  0.00     0.061 A
HETATM    8  C7  UNL     1      -9.983  44.109   1.012  1.00  0.00     0.052 C
HETATM    9  N4  UNL     1     -10.294  44.957   1.830  1.00  0.00    -0.398 N
ATOM     10  H41 UNL     1      -9.681  45.138   2.625  1.00  0.00     0.156 HD
ATOM     11  H42 UNL     1     -11.173  45.447   1.665  1.00  0.00     0.156 HD
HETATM   12  C8  UNL     1      -8.697  43.393   1.253  1.00  0.00    -0.002 A
HETATM   13  C9  UNL     1      -7.860  44.132   2.093  1.00  0.00     0.023 A
HETATM   14  C10 UNL     1      -6.629  43.634   2.429  1.00  0.00    -0.029 A
HETATM   15  C18 UNL     1      -6.272  42.390   1.907  1.00  0.00     0.009 A
HETATM   16  C19 UNL     1      -7.105  41.668   1.081  1.00  0.00     0.009 A
HETATM   17  C20 UNL     1      -8.368  42.168   0.728  1.00  0.00    -0.045 A
HETATM   18  C21 UNL     1      -9.110  41.248  -0.157  1.00  0.00     0.045 C
HETATM   19  C22 UNL     1      -9.565  41.946  -1.412  1.00  0.00     0.064 C
ENDROOT
BRANCH   1  20
HETATM   20  N1  UNL     1     -12.544  45.390   0.353  1.00  0.00    -0.268 N
ATOM     21  H1  UNL     1     -11.835  45.832   0.938  1.00  0.00     0.180 HD
BRANCH  20  22
HETATM   22  S1  UNL     1     -14.064  46.012   0.608  1.00  0.00     0.232 S
HETATM   23  O1  UNL     1     -14.606  45.392   1.907  1.00  0.00    -0.206 OA
HETATM   24  O2  UNL     1     -14.963  45.580  -0.535  1.00  0.00    -0.206 OA
BRANCH  22  25
HETATM   25  C3  UNL     1     -14.231  47.741   0.782  1.00  0.00     0.163 C
BRANCH  25  26
HETATM   26  C2  UNL     1     -12.822  48.351   0.882  1.00  0.00     0.012 C
HETATM   27  C1  UNL     1     -12.329  48.475   2.282  1.00  0.00     0.006 C
ENDBRANCH  25  26
ENDBRANCH  22  25
ENDBRANCH  20  22
ENDBRANCH   1  20
BRANCH  14  28
HETATM   28  C11 UNL     1      -5.648  44.310   3.317  1.00  0.00     0.311 C
BRANCH  28  29
HETATM   29  N5  UNL     1      -6.295  45.162   4.292  1.00  0.00     0.100 N
BRANCH  29  30
HETATM   30  C12 UNL     1      -6.335  44.529   5.539  1.00  0.00     0.216 C
HETATM   31  C13 UNL     1      -5.231  43.515   5.772  1.00  0.00     0.042 C
HETATM   32  C14 UNL     1      -6.487  45.452   6.743  1.00  0.00     0.042 C
ENDBRANCH  29  30
BRANCH  29  33
HETATM   33  C15 UNL     1      -5.869  46.479   4.127  1.00  0.00     0.216 C
HETATM   34  C16 UNL     1      -6.678  47.423   3.311  1.00  0.00     0.042 C
HETATM   35  C17 UNL     1      -4.477  46.410   3.458  1.00  0.00     0.042 C
ENDBRANCH  29  33
ENDBRANCH  28  29
ENDBRANCH  14  28
TORSDOF 8
ENDMDL