MODEL 1
REMARK VINA RESULT: -8.846136154      0.000      0.000
REMARK  8 active torsions:
REMARK  status: ('A' for Active; 'I' for Inactive)
REMARK    1  A    between atoms: C2_2  and  C3_3
REMARK    2  A    between atoms: C3_3  and  C4_4
REMARK    3  A    between atoms: C7_11  and  C8_12
REMARK    4  A    between atoms: C8_12  and  N3_13
REMARK    5  A    between atoms: C11_16  and  N4_17
REMARK    6  A    between atoms: N4_17  and  S1_19
REMARK    7  A    between atoms: S1_19  and  N5_22
REMARK    8  A    between atoms: N5_22  and  C12_24
ROOT
HETATM    1  N3  UNL     1      -8.884  45.218   0.319  1.00  0.00    -0.367 N
HETATM    2  C9  UNL     1      -9.453  44.499   1.479  1.00  0.00     0.130 C
HETATM    3  C10 UNL     1     -10.932  44.619   1.440  1.00  0.00     0.051 C
HETATM    4  C11 UNL     1     -11.186  45.526   0.210  1.00  0.00     0.134 C
HETATM    5  C22 UNL     1      -9.842  46.080  -0.130  1.00  0.00     0.089 C
ENDROOT
BRANCH   4   6
HETATM    6  N4  UNL     1     -12.153  46.545   0.378  1.00  0.00    -0.293 N
ATOM      7  H4  UNL     1     -11.843  47.439   0.761  1.00  0.00     0.174 HD
BRANCH   6   8
HETATM    8  S1  UNL     1     -13.761  46.378  -0.008  1.00  0.00     0.316 S
HETATM    9  O1  UNL     1     -14.602  45.399   0.650  1.00  0.00    -0.183 OA
HETATM   10  O2  UNL     1     -14.490  47.747   0.246  1.00  0.00    -0.183 OA
BRANCH   8  11
HETATM   11  N5  UNL     1     -13.775  46.321  -1.746  1.00  0.00    -0.293 N
ATOM     12  H5  UNL     1     -12.967  46.582  -2.310  1.00  0.00     0.174 HD
BRANCH  11  13
HETATM   13  C12 UNL     1     -14.991  45.887  -2.316  1.00  0.00     0.043 C
HETATM   14  C13 UNL     1     -14.572  45.311  -3.688  1.00  0.00     0.036 C
HETATM   15  C14 UNL     1     -15.734  44.821  -4.474  1.00  0.00    -0.012 C
HETATM   16  C15 UNL     1     -16.417  43.724  -3.684  1.00  0.00     0.009 C
HETATM   17  C19 UNL     1     -16.656  45.970  -4.776  1.00  0.00     0.009 C
HETATM   18  C16 UNL     1     -16.887  44.323  -2.397  1.00  0.00    -0.012 C
HETATM   19  C17 UNL     1     -17.809  45.460  -2.691  1.00  0.00     0.009 C
HETATM   20  C21 UNL     1     -15.657  44.755  -1.611  1.00  0.00     0.036 C
HETATM   21  C18 UNL     1     -17.079  46.563  -3.449  1.00  0.00    -0.012 C
HETATM   22  C20 UNL     1     -15.922  47.042  -2.645  1.00  0.00     0.036 C
ENDBRANCH  11  13
ENDBRANCH   8  11
ENDBRANCH   6   8
ENDBRANCH   4   6
BRANCH   1  23
HETATM   23  C8  UNL     1      -8.006  44.382  -0.349  1.00  0.00     0.105 C
BRANCH  23  24
HETATM   24  C7  UNL     1      -8.040  42.940  -0.086  1.00  0.00     0.027 A
HETATM   25  C4  UNL     1      -9.019  42.087  -0.656  1.00  0.00     0.039 A
HETATM   26  N1  UNL     1      -8.832  40.911  -0.081  1.00  0.00    -0.304 N
HETATM   27  N2  UNL     1      -7.850  40.932   0.789  1.00  0.00    -0.304 N
ATOM     28  H1  UNL     1      -9.389  40.082  -0.290  1.00  0.00     0.186 HD
HETATM   29  C5  UNL     1      -7.328  42.202   0.820  1.00  0.00     0.035 A
ATOM     30  H2  UNL     1      -7.530  40.141   1.348  1.00  0.00     0.186 HD
HETATM   31  C6  UNL     1      -6.387  42.561   1.914  1.00  0.00     0.070 C
BRANCH  25  32
HETATM   32  C3  UNL     1     -10.009  42.521  -1.664  1.00  0.00     0.059 C
BRANCH  32  33
HETATM   33  C2  UNL     1     -11.372  41.935  -1.527  1.00  0.00     0.002 C
HETATM   34  C1  UNL     1     -12.449  42.938  -1.905  1.00  0.00     0.005 C
ENDBRANCH  32  33
ENDBRANCH  25  32
ENDBRANCH  23  24
ENDBRANCH   1  23
TORSDOF 8
ENDMDL