MODEL 5
REMARK VINA RESULT: -6.941424821      1.763      6.503
REMARK  9 active torsions:
REMARK  status: ('A' for Active; 'I' for Inactive)
REMARK    1  A    between atoms: C2_2  and  C4_4
REMARK    2  A    between atoms: C4_4  and  C5_5
REMARK    3  A    between atoms: C5_5  and  C6_6
REMARK    4  A    between atoms: C6_6  and  N1_7
REMARK    5  A    between atoms: C6_6  and  C7_11
REMARK       I    between atoms: C7_11  and  N2_13
REMARK    6  A    between atoms: N2_13  and  C8_15
REMARK    7  A    between atoms: C8_15  and  C10_17
REMARK       I    between atoms: C10_17  and  N3_19
REMARK    8  A    between atoms: C13_22  and  C14_23
REMARK       I    between atoms: C14_23  and  N4_25
REMARK    9  A    between atoms: N4_25  and  C15_26
ROOT
HETATM    1  C10 UNL     1     -10.283  47.372   2.172  1.00  0.00     0.243 C
HETATM    2  O2  UNL     1     -10.588  46.529   3.048  1.00  0.00    -0.271 OA
HETATM    3  N3  UNL     1     -11.297  48.223   1.666  1.00  0.00    -0.336 N
HETATM    4  C11 UNL     1     -12.676  48.529   1.924  1.00  0.00     0.129 C
HETATM    5  C12 UNL     1     -12.733  49.300   0.640  1.00  0.00     0.056 C
HETATM    6  C13 UNL     1     -11.271  49.101   0.478  1.00  0.00     0.195 C
ENDROOT
BRANCH   1   7
HETATM    7  C8  UNL     1      -8.910  47.460   1.701  1.00  0.00     0.172 C
HETATM    8  C9  UNL     1      -8.248  48.648   2.428  1.00  0.00     0.042 C
BRANCH   7   9
HETATM    9  N2  UNL     1      -8.217  46.204   2.065  1.00  0.00    -0.346 N
HETATM   10  C7  UNL     1      -7.549  45.482   1.064  1.00  0.00     0.248 C
HETATM   11  O1  UNL     1      -7.498  45.834  -0.137  1.00  0.00    -0.271 OA
ATOM     12  H2  UNL     1      -8.226  45.868   3.028  1.00  0.00     0.163 HD
BRANCH  10  13
HETATM   13  C6  UNL     1      -6.852  44.196   1.491  1.00  0.00     0.274 C
BRANCH  13  14
HETATM   14  C5  UNL     1      -7.760  43.035   1.451  1.00  0.00     0.043 C
BRANCH  14  15
HETATM   15  C4  UNL     1      -7.883  42.319   0.151  1.00  0.00     0.006 C
BRANCH  15  16
HETATM   16  C2  UNL     1      -8.954  41.274   0.150  1.00  0.00    -0.023 C
HETATM   17  C1  UNL     1      -9.634  41.271  -1.220  1.00  0.00     0.009 C
HETATM   18  C3  UNL     1      -8.299  39.890   0.350  1.00  0.00     0.009 C
ENDBRANCH  15  16
ENDBRANCH  14  15
ENDBRANCH  13  14
BRANCH  13  19
HETATM   19  N1  UNL     1      -6.195  44.508   2.728  1.00  0.00    -0.067 N
ATOM     20  H13 UNL     1      -6.560  43.897   3.460  1.00  0.00     0.275 HD
ATOM     21  H12 UNL     1      -5.225  44.196   2.677  1.00  0.00     0.275 HD
ATOM     22  H11 UNL     1      -6.217  45.472   3.059  1.00  0.00     0.275 HD
ENDBRANCH  13  19
ENDBRANCH  10  13
ENDBRANCH   7   9
ENDBRANCH   1   7
BRANCH   6  23
HETATM   23  C14 UNL     1     -10.906  48.247  -0.760  1.00  0.00     0.310 C
HETATM   24  O3  UNL     1      -9.892  48.803  -1.343  1.00  0.00    -0.255 OA
HETATM   25  N4  UNL     1     -11.573  47.174  -1.077  1.00  0.00    -0.407 NA
BRANCH  25  26
HETATM   26  C15 UNL     1     -12.303  45.995  -1.431  1.00  0.00     0.178 C
HETATM   27  C16 UNL     1     -13.682  46.318  -1.996  1.00  0.00     0.022 C
HETATM   28  C17 UNL     1     -14.458  47.256  -1.149  1.00  0.00     0.013 C
HETATM   29  C18 UNL     1     -14.374  45.107  -2.491  1.00  0.00    -0.012 C
HETATM   30  C19 UNL     1     -15.657  44.734  -1.829  1.00  0.00     0.010 C
HETATM   31  C20 UNL     1     -13.457  43.875  -2.455  1.00  0.00     0.005 C
HETATM   32  C21 UNL     1     -12.874  43.641  -1.106  1.00  0.00     0.012 C
HETATM   33  C22 UNL     1     -12.258  44.872  -0.469  1.00  0.00    -0.015 C
HETATM   34  C23 UNL     1     -10.769  44.516  -0.301  1.00  0.00     0.018 C
HETATM   35  C24 UNL     1     -12.815  45.096   0.887  1.00  0.00     0.018 C
ENDBRANCH  25  26
ENDBRANCH   6  23
TORSDOF 9
ENDMDL