MODEL 4
REMARK VINA RESULT: -6.662612620      2.032      3.252
REMARK  11 active torsions:
REMARK  status: ('A' for Active; 'I' for Inactive)
REMARK    1  A    between atoms: C2_2  and  O1_4
REMARK    2  A    between atoms: O1_4  and  C4_5
REMARK    3  A    between atoms: C4_5  and  C5_6
REMARK    4  A    between atoms: C6_7  and  N1_8
REMARK    5  A    between atoms: N1_8  and  C7_10
REMARK    6  A    between atoms: C7_10  and  O2_11
REMARK    7  A    between atoms: C7_10  and  N2_13
REMARK       I    between atoms: N2_13  and  C8_15
REMARK    8  A    between atoms: C8_15  and  C9_17
REMARK    9  A    between atoms: C9_17  and  N3_18
REMARK   10  A    between atoms: C9_17  and  C20_32
REMARK       I    between atoms: N3_18  and  C10_20
REMARK       I    between atoms: C10_20  and  N4_22
REMARK   11  A    between atoms: C16_28  and  C17_29
ROOT
HETATM    1  C9  UNL     1     -11.153  48.003   0.855  1.00  0.00     0.186 C
ENDROOT
BRANCH   1   2
HETATM    2  C8  UNL     1     -12.175  46.902   1.043  1.00  0.00     0.248 C
HETATM    3  N2  UNL     1     -12.849  46.387  -0.062  1.00  0.00    -0.291 N
ATOM      4  H2  UNL     1     -12.589  46.779  -0.967  1.00  0.00     0.172 HD
HETATM    5  O3  UNL     1     -12.344  46.517   2.223  1.00  0.00    -0.271 OA
BRANCH   3   6
HETATM    6  C7  UNL     1     -13.841  45.395  -0.085  1.00  0.00     0.223 C
BRANCH   6   7
HETATM    7  N1  UNL     1     -13.823  44.267  -0.912  1.00  0.00    -0.333 N
ATOM      8  H1  UNL     1     -14.335  43.458  -0.559  1.00  0.00     0.168 HD
BRANCH   7   9
HETATM    9  C6  UNL     1     -13.198  44.087  -2.168  1.00  0.00     0.089 C
HETATM   10  C5  UNL     1     -11.884  43.517  -2.370  1.00  0.00     0.016 C
BRANCH  10  11
HETATM   11  C4  UNL     1     -10.693  44.039  -1.712  1.00  0.00     0.197 C
BRANCH  11  12
HETATM   12  O1  UNL     1     -10.708  44.027  -0.346  1.00  0.00    -0.383 OA
BRANCH  12  13
HETATM   13  C2  UNL     1      -9.720  43.216   0.210  1.00  0.00     0.113 C
HETATM   14  C1  UNL     1      -8.365  43.533  -0.458  1.00  0.00     0.039 C
HETATM   15  C3  UNL     1      -9.537  43.551   1.656  1.00  0.00     0.039 C
ENDBRANCH  12  13
ENDBRANCH  11  12
ENDBRANCH  10  11
ENDBRANCH   7   9
ENDBRANCH   6   7
BRANCH   6  16
HETATM   16  O2  UNL     1     -14.847  45.557   0.735  1.00  0.00    -0.332 OA
ATOM     17  H2  UNL     1     -14.768  45.232   1.624  1.00  0.00     0.221 HD
ENDBRANCH   6  16
ENDBRANCH   3   6
ENDBRANCH   1   2
BRANCH   1  18
HETATM   18  N3  UNL     1      -9.940  47.656   1.630  1.00  0.00    -0.329 N
HETATM   19  C10 UNL     1      -8.785  47.173   0.951  1.00  0.00     0.319 C
HETATM   20  O4  UNL     1      -8.784  47.038  -0.318  1.00  0.00    -0.247 OA
HETATM   21  N4  UNL     1      -7.637  46.846   1.698  1.00  0.00    -0.325 N
HETATM   22  C11 UNL     1      -6.394  46.346   1.139  1.00  0.00     0.137 C
HETATM   23  C14 UNL     1      -7.485  46.940   3.112  1.00  0.00     0.112 C
HETATM   24  C12 UNL     1      -5.535  46.170   2.361  1.00  0.00     0.035 C
HETATM   25  C13 UNL     1      -6.008  47.387   3.182  1.00  0.00     0.040 C
HETATM   26  C16 UNL     1      -6.159  45.090   3.184  1.00  0.00    -0.072 C
HETATM   27  C15 UNL     1      -7.322  45.559   3.627  1.00  0.00     0.002 C
ATOM     28  H3  UNL     1      -9.932  47.762   2.645  1.00  0.00     0.165 HD
BRANCH  26  29
HETATM   29  C17 UNL     1      -5.643  43.741   3.488  1.00  0.00     0.006 C
HETATM   30  C18 UNL     1      -6.345  43.108   4.668  1.00  0.00     0.014 C
HETATM   31  C19 UNL     1      -5.851  42.859   2.281  1.00  0.00     0.014 C
ENDBRANCH  26  29
ENDBRANCH   1  18
BRANCH   1  32
HETATM   32  C20 UNL     1     -11.654  49.344   1.327  1.00  0.00    -0.022 C
HETATM   33  C21 UNL     1     -10.910  50.432   0.525  1.00  0.00     0.017 C
HETATM   34  C22 UNL     1     -13.125  49.581   1.107  1.00  0.00     0.017 C
HETATM   35  C23 UNL     1     -11.387  49.603   2.791  1.00  0.00     0.017 C
ENDBRANCH   1  32
TORSDOF 11
ENDMDL