MODEL 5
REMARK VINA RESULT: -7.183016150      1.891      2.618
REMARK  9 active torsions:
REMARK  status: ('A' for Active; 'I' for Inactive)
REMARK    1  A    between atoms: C2_2  and  C4_4
REMARK    2  A    between atoms: C4_4  and  N1_5
REMARK       I    between atoms: N1_5  and  C5_7
REMARK       I    between atoms: C5_7  and  N2_9
REMARK    3  A    between atoms: C9_17  and  N5_18
REMARK    4  A    between atoms: N5_18  and  C10_20
REMARK    5  A    between atoms: C10_20  and  C11_21
REMARK    6  A    between atoms: C11_21  and  C12_22
REMARK    7  A    between atoms: C12_22  and  C13_23
REMARK    8  A    between atoms: C13_23  and  C14_24
REMARK    9  A    between atoms: C14_24  and  N6_25
ROOT
HETATM    1  N1  UNL     1     -10.918  49.666   0.773  1.00  0.00    -0.322 N
ATOM      2  H1  UNL     1     -10.779  49.700   1.783  1.00  0.00     0.169 HD
HETATM    3  C5  UNL     1     -10.455  48.522   0.119  1.00  0.00     0.323 C
HETATM    4  O1  UNL     1     -10.547  48.357  -1.111  1.00  0.00    -0.247 OA
HETATM    5  N2  UNL     1      -9.822  47.428   0.858  1.00  0.00    -0.315 N
HETATM    6  C6  UNL     1      -9.383  46.253   0.187  1.00  0.00     0.173 A
HETATM    7  C7  UNL     1      -8.693  45.440   1.196  1.00  0.00     0.032 A
HETATM    8  C8  UNL     1      -8.789  46.063   2.389  1.00  0.00     0.065 A
HETATM    9  N3  UNL     1      -8.148  45.296   3.307  1.00  0.00    -0.300 N
ATOM     10  H3  UNL     1      -8.056  45.513   4.299  1.00  0.00     0.186 HD
HETATM   11  N4  UNL     1      -7.664  44.227   2.710  1.00  0.00    -0.285 N
ATOM     12  H4  UNL     1      -7.137  43.488   3.175  1.00  0.00     0.188 HD
HETATM   13  C9  UNL     1      -7.962  44.251   1.413  1.00  0.00     0.129 A
HETATM   14  C21 UNL     1      -9.550  47.349   2.249  1.00  0.00     0.074 A
HETATM   15  C22 UNL     1      -8.665  48.449   2.793  1.00  0.00     0.045 C
HETATM   16  C23 UNL     1     -10.800  47.176   3.089  1.00  0.00     0.045 C
ENDROOT
BRANCH  13  17
HETATM   17  N5  UNL     1      -7.723  43.473   0.468  1.00  0.00    -0.354 N
ATOM     18  H5  UNL     1      -6.807  43.662   0.060  1.00  0.00     0.166 HD
BRANCH  17  19
HETATM   19  C10 UNL     1      -8.356  42.416  -0.188  1.00  0.00     0.062 C
BRANCH  19  20
HETATM   20  C11 UNL     1      -9.320  42.774  -1.286  1.00  0.00     0.044 C
BRANCH  20  21
HETATM   21  C12 UNL     1     -10.450  41.772  -1.323  1.00  0.00     0.007 C
BRANCH  21  22
HETATM   22  C13 UNL     1     -11.739  42.423  -1.728  1.00  0.00     0.020 C
BRANCH  22  23
HETATM   23  C14 UNL     1     -11.635  43.938  -1.699  1.00  0.00     0.117 C
BRANCH  23  24
HETATM   24  N6  UNL     1     -12.821  44.624  -2.062  1.00  0.00    -0.408 N
HETATM   25  C15 UNL     1     -14.010  43.856  -2.176  1.00  0.00     0.148 C
HETATM   26  C16 UNL     1     -15.185  44.778  -1.857  1.00  0.00     0.135 C
HETATM   27  C17 UNL     1     -16.449  43.947  -1.905  1.00  0.00     0.041 C
HETATM   28  O2  UNL     1     -15.033  45.261  -0.580  1.00  0.00    -0.378 OA
HETATM   29  C18 UNL     1     -13.858  45.965  -0.376  1.00  0.00     0.135 C
HETATM   30  C19 UNL     1     -13.078  45.336   0.765  1.00  0.00     0.041 C
HETATM   31  C20 UNL     1     -12.969  45.959  -1.598  1.00  0.00     0.148 C
ENDBRANCH  23  24
ENDBRANCH  22  23
ENDBRANCH  21  22
ENDBRANCH  20  21
ENDBRANCH  19  20
ENDBRANCH  17  19
ENDBRANCH  13  17
BRANCH   1  32
HETATM   32  C4  UNL     1     -11.550  50.770   0.193  1.00  0.00     0.069 C
BRANCH  32  33
HETATM   33  C2  UNL     1     -12.984  50.993   0.153  1.00  0.00     0.016 C
HETATM   34  C1  UNL     1     -13.864  49.895  -0.318  1.00  0.00     0.015 C
HETATM   35  C3  UNL     1     -13.216  52.194  -0.818  1.00  0.00     0.015 C
ENDBRANCH  32  33
ENDBRANCH   1  32
TORSDOF 9
ENDMDL