MODEL 1
REMARK VINA RESULT: -6.371699318      0.000      0.000
REMARK  10 active torsions:
REMARK  status: ('A' for Active; 'I' for Inactive)
REMARK    1  A    between atoms: C2_2  and  C3_3
REMARK    2  A    between atoms: C3_3  and  C4_4
REMARK    3  A    between atoms: N1_7  and  C6_8
REMARK    4  A    between atoms: C6_8  and  C7_9
REMARK    5  A    between atoms: C6_8  and  C9_11
REMARK    6  A    between atoms: C9_11  and  O2_12
REMARK       I    between atoms: N2_19  and  C15_20
REMARK    7  A    between atoms: C15_20  and  C16_22
REMARK    8  A    between atoms: C16_22  and  N3_23
REMARK    9  A    between atoms: C16_22  and  C21_32
REMARK       I    between atoms: N3_23  and  C17_25
REMARK       I    between atoms: C17_25  and  N4_27
REMARK   10  A    between atoms: N4_27  and  C18_29
ROOT
HETATM    1  C4  UNL     1     -12.823  47.491   0.864  1.00  0.00     0.180 C
HETATM    2  C5  UNL     1     -13.709  46.568   0.136  1.00  0.00     0.243 C
HETATM    3  O1  UNL     1     -14.755  46.279   0.823  1.00  0.00    -0.271 OA
HETATM    4  N1  UNL     1     -13.747  45.892  -1.122  1.00  0.00    -0.344 N
HETATM    5  C10 UNL     1     -12.747  45.524  -2.092  1.00  0.00     0.126 C
HETATM    6  C11 UNL     1     -11.324  45.620  -1.580  1.00  0.00     0.022 C
HETATM    7  C12 UNL     1     -10.912  47.046  -1.730  1.00  0.00     0.026 C
HETATM    8  C13 UNL     1     -10.469  47.572  -0.372  1.00  0.00     0.084 C
HETATM    9  C14 UNL     1     -10.281  49.070  -0.561  1.00  0.00     0.032 C
HETATM   10  N2  UNL     1     -11.408  47.239   0.662  1.00  0.00    -0.333 N
HETATM   11  C15 UNL     1     -10.848  46.469   1.695  1.00  0.00     0.244 C
HETATM   12  O3  UNL     1     -11.663  46.080   2.613  1.00  0.00    -0.271 OA
ENDROOT
BRANCH   1  13
HETATM   13  C3  UNL     1     -13.172  48.942   0.614  1.00  0.00     0.035 C
BRANCH  13  14
HETATM   14  C2  UNL     1     -12.895  49.832   1.804  1.00  0.00    -0.002 C
HETATM   15  C1  UNL     1     -12.660  51.265   1.462  1.00  0.00     0.005 C
ENDBRANCH  13  14
ENDBRANCH   1  13
BRANCH  11  16
HETATM   16  C16 UNL     1      -9.449  46.044   1.865  1.00  0.00     0.181 C
BRANCH  16  17
HETATM   17  N3  UNL     1      -9.431  44.564   1.976  1.00  0.00    -0.330 N
HETATM   18  C17 UNL     1      -9.051  43.741   0.906  1.00  0.00     0.317 C
HETATM   19  O4  UNL     1      -8.734  44.265  -0.189  1.00  0.00    -0.247 OA
HETATM   20  N4  UNL     1      -9.009  42.332   1.011  1.00  0.00    -0.339 N
ATOM     21  H4  UNL     1      -9.254  41.907   1.905  1.00  0.00     0.164 HD
ATOM     22  H3  UNL     1      -9.703  44.132   2.859  1.00  0.00     0.165 HD
BRANCH  20  23
HETATM   23  C18 UNL     1      -8.639  41.464  -0.080  1.00  0.00     0.078 C
HETATM   24  C19 UNL     1      -8.270  40.074   0.442  1.00  0.00     0.032 C
HETATM   25  C20 UNL     1      -9.691  41.403  -1.131  1.00  0.00     0.032 C
ENDBRANCH  20  23
ENDBRANCH  16  17
BRANCH  16  26
HETATM   26  C21 UNL     1      -8.902  46.511   3.198  1.00  0.00     0.009 C
HETATM   27  C22 UNL     1      -7.495  45.988   3.409  1.00  0.00     0.012 C
HETATM   28  C23 UNL     1      -8.816  48.049   3.203  1.00  0.00     0.012 C
ENDBRANCH  16  26
ENDBRANCH  11  16
BRANCH   4  29
HETATM   29  C6  UNL     1     -15.075  45.513  -1.465  1.00  0.00     0.110 C
BRANCH  29  30
HETATM   30  C7  UNL     1     -15.234  44.067  -1.840  1.00  0.00     0.023 C
HETATM   31  C8  UNL     1     -16.472  43.842  -2.698  1.00  0.00     0.007 C
ENDBRANCH  29  30
BRANCH  29  32
HETATM   32  C9  UNL     1     -15.614  46.341  -2.640  1.00  0.00     0.189 C
BRANCH  32  33
HETATM   33  O2  UNL     1     -15.766  47.677  -2.275  1.00  0.00    -0.399 OA
ATOM     34  H2  UNL     1     -15.767  48.238  -3.042  1.00  0.00     0.209 HD
ENDBRANCH  32  33
ENDBRANCH  29  32
ENDBRANCH   4  29
TORSDOF 10
ENDMDL