MODEL 3
REMARK VINA RESULT: -7.780374715      2.829      4.390
REMARK  8 active torsions:
REMARK  status: ('A' for Active; 'I' for Inactive)
REMARK    1  A    between atoms: C4_9  and  S1_10
REMARK    2  A    between atoms: S1_10  and  N3_13
REMARK    3  A    between atoms: C7_16  and  C8_17
REMARK    4  A    between atoms: C8_17  and  N4_20
REMARK       I    between atoms: N4_20  and  C11_22
REMARK    5  A    between atoms: C11_22  and  C12_24
REMARK    6  A    between atoms: C13_25  and  C14_26
REMARK    7  A    between atoms: C14_26  and  C15_27
REMARK    8  A    between atoms: C15_27  and  C17_29
ROOT
HETATM    1  N3  UNL     1     -13.172  45.017  -1.680  1.00  0.00    -0.205 NA
HETATM    2  C5  UNL     1     -12.651  43.740  -2.120  1.00  0.00     0.108 C
HETATM    3  C6  UNL     1     -11.174  43.869  -2.356  1.00  0.00     0.022 C
HETATM    4  C7  UNL     1     -10.482  44.179  -1.075  1.00  0.00     0.015 C
HETATM    5  C20 UNL     1     -11.444  44.498   0.010  1.00  0.00     0.022 C
HETATM    6  C21 UNL     1     -12.603  45.380  -0.421  1.00  0.00     0.108 C
ENDROOT
BRANCH   4   7
HETATM    7  C8  UNL     1      -9.478  43.110  -0.687  1.00  0.00     0.029 C
HETATM    8  C9  UNL     1     -10.044  41.728  -0.861  1.00  0.00     0.038 C
HETATM    9  C10 UNL     1      -8.210  43.210  -1.500  1.00  0.00     0.038 C
BRANCH   7  10
HETATM   10  N4  UNL     1      -9.161  43.342   0.701  1.00  0.00    -0.349 N
HETATM   11  C11 UNL     1      -7.955  42.851   1.240  1.00  0.00     0.241 C
HETATM   12  O4  UNL     1      -7.164  42.219   0.522  1.00  0.00    -0.269 OA
ATOM     13  H4  UNL     1      -9.809  43.861   1.293  1.00  0.00     0.163 HD
BRANCH  11  14
HETATM   14  C12 UNL     1      -7.605  43.067   2.638  1.00  0.00     0.070 C
HETATM   15  C13 UNL     1      -6.381  42.935   3.100  1.00  0.00    -0.021 C
BRANCH  15  16
HETATM   16  C14 UNL     1      -6.054  43.158   4.512  1.00  0.00     0.031 C
BRANCH  16  17
HETATM   17  C15 UNL     1      -5.355  44.474   4.745  1.00  0.00    -0.012 C
HETATM   18  C16 UNL     1      -6.331  45.497   5.219  1.00  0.00     0.010 C
BRANCH  17  19
HETATM   19  C17 UNL     1      -4.588  44.914   3.519  1.00  0.00    -0.019 C
HETATM   20  C18 UNL     1      -4.941  46.290   3.051  1.00  0.00     0.010 C
HETATM   21  C19 UNL     1      -3.102  44.908   3.833  1.00  0.00     0.010 C
ENDBRANCH  17  19
ENDBRANCH  16  17
ENDBRANCH  15  16
ENDBRANCH  11  14
ENDBRANCH   7  10
ENDBRANCH   4   7
BRANCH   1  22
HETATM   22  S1  UNL     1     -14.887  44.953  -1.688  1.00  0.00     0.261 S
HETATM   23  O2  UNL     1     -15.304  43.501  -1.854  1.00  0.00    -0.204 OA
HETATM   24  O3  UNL     1     -15.329  45.362  -0.288  1.00  0.00    -0.204 OA
BRANCH  22  25
HETATM   25  C4  UNL     1     -15.625  45.954  -2.889  1.00  0.00     0.170 A
HETATM   26  C2  UNL     1     -15.922  45.620  -4.172  1.00  0.00     0.049 A
HETATM   27  C1  UNL     1     -15.706  44.340  -4.893  1.00  0.00     0.071 C
HETATM   28  N1  UNL     1     -16.491  46.726  -4.735  1.00  0.00    -0.310 N
HETATM   29  C3  UNL     1     -16.547  47.722  -3.826  1.00  0.00     0.325 A
ATOM     30  H1  UNL     1     -16.823  46.790  -5.697  1.00  0.00     0.170 HD
HETATM   31  O1  UNL     1     -17.018  48.862  -4.049  1.00  0.00    -0.247 OA
HETATM   32  N2  UNL     1     -16.010  47.232  -2.696  1.00  0.00    -0.296 N
ATOM     33  H2  UNL     1     -15.910  47.749  -1.822  1.00  0.00     0.171 HD
ENDBRANCH  22  25
ENDBRANCH   1  22
TORSDOF 8
ENDMDL