MODEL 5
REMARK VINA RESULT: -7.175236778      3.658      7.471
REMARK  10 active torsions:
REMARK  status: ('A' for Active; 'I' for Inactive)
REMARK    1  A    between atoms: C6_6  and  N1_7
REMARK    2  A    between atoms: N1_7  and  C7_9
REMARK    3  A    between atoms: C7_9  and  C8_10
REMARK    4  A    between atoms: C8_10  and  N2_11
REMARK    5  A    between atoms: N2_11  and  C9_12
REMARK    6  A    between atoms: N2_11  and  C11_14
REMARK    7  A    between atoms: C13_18  and  N4_19
REMARK    8  A    between atoms: N4_19  and  C14_21
REMARK    9  A    between atoms: C14_21  and  C15_22
REMARK   10  A    between atoms: C20_33  and  C21_34
ROOT
HETATM    1  C1  UNL     1      -9.261  46.416   2.449  1.00  0.00     0.018 C
HETATM    2  C2  UNL     1     -10.103  46.417   1.567  1.00  0.00    -0.077 C
HETATM    3  C3  UNL     1     -11.121  46.397   0.532  1.00  0.00     0.029 A
HETATM    4  C4  UNL     1     -11.188  45.237  -0.215  1.00  0.00     0.039 A
HETATM    5  C5  UNL     1     -12.161  45.149  -1.207  1.00  0.00     0.037 A
HETATM    6  C6  UNL     1     -12.256  44.004  -1.977  1.00  0.00     0.133 A
HETATM    7  N3  UNL     1     -13.242  43.998  -2.934  1.00  0.00    -0.176 N
ATOM      8  H3  UNL     1     -13.335  43.165  -3.516  1.00  0.00     0.186 HD
HETATM    9  C13 UNL     1     -14.083  45.002  -3.153  1.00  0.00     0.680 A
HETATM   10  N7  UNL     1     -13.976  46.104  -2.399  1.00  0.00    -0.191 N
ATOM     11  H7  UNL     1     -14.611  46.887  -2.552  1.00  0.00     0.184 HD
HETATM   12  C18 UNL     1     -13.034  46.182  -1.442  1.00  0.00     0.064 A
HETATM   13  C19 UNL     1     -12.932  47.339  -0.662  1.00  0.00     0.044 A
HETATM   14  C20 UNL     1     -11.978  47.444   0.319  1.00  0.00    -0.005 A
ENDROOT
BRANCH  14  15
HETATM   15  C21 UNL     1     -11.852  48.646   1.105  1.00  0.00    -0.024 A
HETATM   16  C22 UNL     1     -11.076  49.675   0.594  1.00  0.00     0.012 A
HETATM   17  C23 UNL     1     -10.931  50.824   1.340  1.00  0.00     0.001 A
HETATM   18  C24 UNL     1     -11.549  50.945   2.575  1.00  0.00     0.000 A
HETATM   19  C25 UNL     1     -12.306  49.912   3.049  1.00  0.00     0.001 A
HETATM   20  C26 UNL     1     -12.477  48.741   2.333  1.00  0.00     0.012 A
ENDBRANCH  14  15
BRANCH   6  21
HETATM   21  N1  UNL     1     -11.559  43.027  -1.899  1.00  0.00    -0.353 N
ATOM     22  H1  UNL     1     -10.739  43.306  -2.436  1.00  0.00     0.166 HD
BRANCH  21  23
HETATM   23  C7  UNL     1     -11.228  41.762  -1.508  1.00  0.00     0.082 C
BRANCH  23  24
HETATM   24  C8  UNL     1      -9.735  41.465  -1.473  1.00  0.00     0.161 C
BRANCH  24  25
HETATM   25  N2  UNL     1      -9.035  42.312  -0.548  1.00  0.00    -0.409 N
BRANCH  25  26
HETATM   26  C9  UNL     1      -8.561  41.650   0.612  1.00  0.00     0.112 C
HETATM   27  C10 UNL     1      -8.337  40.179   0.475  1.00  0.00     0.026 C
ENDBRANCH  25  26
BRANCH  25  28
HETATM   28  C11 UNL     1      -8.159  43.254  -1.159  1.00  0.00     0.112 C
HETATM   29  C12 UNL     1      -7.640  44.199  -0.098  1.00  0.00     0.026 C
ENDBRANCH  25  28
ENDBRANCH  24  25
ENDBRANCH  23  24
ENDBRANCH  21  23
ENDBRANCH   6  21
BRANCH   9  30
HETATM   30  N4  UNL     1     -14.981  44.905  -4.079  1.00  0.00    -0.219 N
ATOM     31  H4  UNL     1     -14.832  45.371  -4.974  1.00  0.00     0.178 HD
BRANCH  30  32
HETATM   32  C14 UNL     1     -16.179  44.156  -3.869  1.00  0.00     0.214 C
BRANCH  32  33
HETATM   33  C15 UNL     1     -17.379  45.025  -4.032  1.00  0.00     0.099 A
HETATM   34  N5  UNL     1     -18.027  45.699  -3.041  1.00  0.00    -0.353 N
HETATM   35  C16 UNL     1     -19.050  46.365  -3.592  1.00  0.00     0.106 A
ATOM     36  H5  UNL     1     -17.777  45.697  -2.052  1.00  0.00     0.166 HD
HETATM   37  C17 UNL     1     -19.039  46.099  -4.953  1.00  0.00     0.106 A
HETATM   38  N6  UNL     1     -18.004  45.276  -5.191  1.00  0.00    -0.353 N
ATOM     39  H6  UNL     1     -17.739  44.903  -6.102  1.00  0.00     0.166 HD
ENDBRANCH  32  33
ENDBRANCH  30  32
ENDBRANCH   9  30
TORSDOF 10
ENDMDL