MODEL 5
REMARK VINA RESULT: -6.983311223      3.852      6.865
REMARK  8 active torsions:
REMARK  status: ('A' for Active; 'I' for Inactive)
REMARK    1  A    between atoms: C2_2  and  C3_3
REMARK    2  A    between atoms: C3_3  and  C5_5
REMARK    3  A    between atoms: C5_5  and  C18_24
REMARK    4  A    between atoms: N1_6  and  S1_8
REMARK    5  A    between atoms: S1_8  and  C6_11
REMARK    6  A    between atoms: C8_13  and  O3_14
REMARK    7  A    between atoms: C10_16  and  C11_17
REMARK       I    between atoms: C18_24  and  N2_26
REMARK    8  A    between atoms: N2_26  and  C19_27
ROOT
HETATM    1  C5  UNL     1     -13.000  44.063  -1.255  1.00  0.00     0.106 C
HETATM    2  N1  UNL     1     -12.944  45.113  -0.402  1.00  0.00    -0.277 N
ATOM      3  H1  UNL     1     -12.019  45.524  -0.525  1.00  0.00     0.179 HD
ENDROOT
BRANCH   2   4
HETATM    4  S1  UNL     1     -13.667  45.994   0.703  1.00  0.00     0.263 S
HETATM    5  O1  UNL     1     -14.774  46.963   0.048  1.00  0.00    -0.200 OA
HETATM    6  O2  UNL     1     -14.484  45.322   1.735  1.00  0.00    -0.200 OA
BRANCH   4   7
HETATM    7  C6  UNL     1     -12.633  47.217   1.450  1.00  0.00     0.088 A
HETATM    8  C7  UNL     1     -12.923  48.555   1.344  1.00  0.00     0.063 A
HETATM    9  C8  UNL     1     -12.132  49.525   1.927  1.00  0.00     0.076 A
HETATM   10  C10 UNL     1     -10.957  49.165   2.708  1.00  0.00    -0.015 A
HETATM   11  C14 UNL     1     -10.716  47.823   2.780  1.00  0.00    -0.045 A
HETATM   12  C15 UNL     1      -9.584  47.316   3.591  1.00  0.00     0.049 C
HETATM   13  C16 UNL     1     -11.519  46.881   2.167  1.00  0.00    -0.032 A
HETATM   14  C17 UNL     1     -11.084  45.438   2.078  1.00  0.00     0.050 C
BRANCH   9  15
HETATM   15  O3  UNL     1     -12.297  50.849   1.885  1.00  0.00    -0.355 OA
HETATM   16  C9  UNL     1     -12.906  51.778   1.143  1.00  0.00     0.210 C
ENDBRANCH   9  15
BRANCH  10  17
HETATM   17  C11 UNL     1     -10.236  50.246   3.356  1.00  0.00     0.014 C
HETATM   18  C12 UNL     1      -8.784  50.417   3.128  1.00  0.00     0.015 C
HETATM   19  C13 UNL     1     -10.525  50.205   4.888  1.00  0.00     0.015 C
ENDBRANCH  10  17
ENDBRANCH   4   7
ENDBRANCH   2   4
BRANCH   1  20
HETATM   20  C3  UNL     1     -14.044  44.111  -2.404  1.00  0.00     0.038 C
HETATM   21  C4  UNL     1     -14.170  45.584  -2.910  1.00  0.00     0.016 C
BRANCH  20  22
HETATM   22  C2  UNL     1     -15.413  43.892  -1.812  1.00  0.00     0.006 C
HETATM   23  C1  UNL     1     -16.477  43.807  -2.903  1.00  0.00     0.006 C
ENDBRANCH  20  22
ENDBRANCH   1  20
BRANCH   1  24
HETATM   24  C18 UNL     1     -11.715  43.532  -1.779  1.00  0.00     0.342 C
HETATM   25  O4  UNL     1     -11.643  43.401  -3.035  1.00  0.00    -0.250 OA
HETATM   26  N2  UNL     1     -10.661  43.218  -0.965  1.00  0.00    -0.330 NA
BRANCH  26  27
HETATM   27  C19 UNL     1      -9.785  42.973  -0.263  1.00  0.00     0.262 A
HETATM   28  N3  UNL     1      -8.471  43.571  -0.729  1.00  0.00    -0.325 N
HETATM   29  C20 UNL     1      -7.629  43.280   0.248  1.00  0.00     0.109 A
ATOM     30  H3  UNL     1      -8.281  44.079  -1.593  1.00  0.00     0.169 HD
HETATM   31  C21 UNL     1      -8.237  42.597   1.219  1.00  0.00     0.109 A
HETATM   32  N4  UNL     1      -9.534  42.414   0.907  1.00  0.00    -0.325 N
ATOM     33  H4  UNL     1     -10.216  41.921   1.484  1.00  0.00     0.169 HD
ENDBRANCH  26  27
ENDBRANCH   1  24
TORSDOF 8
ENDMDL