MODEL 5
REMARK VINA RESULT: -7.237213537      0.919      1.629
REMARK  9 active torsions:
REMARK  status: ('A' for Active; 'I' for Inactive)
REMARK    1  A    between atoms: C2_2  and  N1_3
REMARK    2  A    between atoms: N1_3  and  C3_4
REMARK    3  A    between atoms: N1_3  and  C5_6
REMARK    4  A    between atoms: C5_6  and  C6_7
REMARK    5  A    between atoms: C6_7  and  N2_8
REMARK    6  A    between atoms: N2_8  and  C7_11
REMARK    7  A    between atoms: C13_19  and  S1_20
REMARK    8  A    between atoms: S1_20  and  N4_23
REMARK    9  A    between atoms: N4_23  and  C14_25
ROOT
HETATM    1  C7  UNL     1      -7.847  42.550   0.911  1.00  0.00     0.195 A
HETATM    2  C8  UNL     1      -8.187  42.822  -0.562  1.00  0.00     0.028 A
HETATM    3  C9  UNL     1      -9.304  42.019  -1.136  1.00  0.00     0.064 C
HETATM    4  C10 UNL     1     -10.561  42.819  -1.282  1.00  0.00     0.017 A
HETATM    5  N3  UNL     1     -11.547  42.846  -2.195  1.00  0.00    -0.358 N
ATOM      6  H3  UNL     1     -11.582  42.249  -3.021  1.00  0.00     0.166 HD
HETATM    7  C11 UNL     1     -12.481  43.757  -1.882  1.00  0.00     0.044 A
HETATM    8  C12 UNL     1     -13.674  44.178  -2.468  1.00  0.00     0.055 A
HETATM    9  C13 UNL     1     -14.454  45.166  -1.905  1.00  0.00     0.081 A
HETATM   10  C18 UNL     1     -13.994  45.717  -0.728  1.00  0.00     0.026 A
HETATM   11  C19 UNL     1     -12.821  45.319  -0.130  1.00  0.00     0.016 A
HETATM   12  C20 UNL     1     -12.060  44.344  -0.697  1.00  0.00    -0.001 A
HETATM   13  C21 UNL     1     -10.861  43.750  -0.333  1.00  0.00    -0.023 A
HETATM   14  C22 UNL     1      -9.970  43.967   0.810  1.00  0.00     0.048 C
HETATM   15  C23 UNL     1      -8.514  43.781   0.489  1.00  0.00     0.027 A
ENDROOT
BRANCH   1  16
HETATM   16  N2  UNL     1      -6.447  42.426   1.164  1.00  0.00    -0.069 N
ATOM     17  H22 UNL     1      -5.907  43.018   0.533  1.00  0.00     0.277 HD
ATOM     18  H21 UNL     1      -6.100  41.513   0.870  1.00  0.00     0.277 HD
BRANCH  16  19
HETATM   19  C6  UNL     1      -6.102  42.692   2.552  1.00  0.00     0.262 C
BRANCH  19  20
HETATM   20  C5  UNL     1      -5.528  44.081   2.700  1.00  0.00     0.299 C
BRANCH  20  21
HETATM   21  N1  UNL     1      -5.391  44.411   4.081  1.00  0.00     0.089 N
BRANCH  21  22
HETATM   22  C2  UNL     1      -5.928  43.468   5.011  1.00  0.00     0.268 C
HETATM   23  C1  UNL     1      -4.985  43.451   6.216  1.00  0.00     0.037 C
ENDBRANCH  21  22
BRANCH  21  24
HETATM   24  C3  UNL     1      -4.033  44.810   4.420  1.00  0.00     0.268 C
HETATM   25  C4  UNL     1      -3.159  44.902   3.168  1.00  0.00     0.037 C
ENDBRANCH  21  24
ENDBRANCH  20  21
ENDBRANCH  19  20
ENDBRANCH  16  19
ENDBRANCH   1  16
BRANCH   9  26
HETATM   26  S1  UNL     1     -15.956  45.669  -2.679  1.00  0.00     0.259 S
HETATM   27  O1  UNL     1     -15.948  44.981  -4.038  1.00  0.00    -0.201 OA
HETATM   28  O2  UNL     1     -17.055  45.110  -1.818  1.00  0.00    -0.201 OA
BRANCH  26  29
HETATM   29  N4  UNL     1     -15.955  47.353  -2.824  1.00  0.00    -0.307 N
ATOM     30  H4  UNL     1     -15.319  47.928  -2.272  1.00  0.00     0.173 HD
BRANCH  29  31
HETATM   31  C14 UNL     1     -16.863  47.942  -3.737  1.00  0.00     0.029 C
HETATM   32  C15 UNL     1     -16.481  47.912  -5.178  1.00  0.00     0.038 C
HETATM   33  C16 UNL     1     -16.972  49.430  -3.362  1.00  0.00     0.038 C
HETATM   34  C17 UNL     1     -18.295  47.406  -3.596  1.00  0.00     0.038 C
ENDBRANCH  29  31
ENDBRANCH  26  29
ENDBRANCH   9  26
TORSDOF 9
ENDMDL