MODEL 4
REMARK VINA RESULT: -5.699614871      2.030      5.556
REMARK  5 active torsions:
REMARK  status: ('A' for Active; 'I' for Inactive)
REMARK    1  A    between atoms: C2_2  and  C3_3
REMARK    2  A    between atoms: C2_2  and  N5_19
REMARK    3  A    between atoms: N3_8  and  C4_9
REMARK    4  A    between atoms: C8_13  and  N4_14
REMARK    5  A    between atoms: N4_14  and  C9_15
ROOT
HETATM    1  C3  UNL     1     -34.090  32.483  -0.807  1.00  0.00     0.108 A
HETATM    2  N1  UNL     1     -34.155  33.812  -0.550  1.00  0.00    -0.283 N
ATOM      3  H1  UNL     1     -34.721  34.484  -1.067  1.00  0.00     0.188 HD
HETATM    4  N2  UNL     1     -33.375  34.104   0.469  1.00  0.00    -0.237 N
ATOM      5  H2  UNL     1     -33.255  35.041   0.852  1.00  0.00     0.208 HD
HETATM    6  N3  UNL     1     -32.773  33.038   0.929  1.00  0.00    -0.240 N
HETATM    7  C8  UNL     1     -33.212  31.981   0.130  1.00  0.00     0.218 A
ENDROOT
BRANCH   1   8
HETATM    8  C2  UNL     1     -34.827  31.781  -1.870  1.00  0.00     0.136 C
HETATM    9  C1  UNL     1     -35.714  32.731  -2.660  1.00  0.00     0.039 C
BRANCH   8  10
HETATM   10  N5  UNL     1     -35.717  30.779  -1.332  1.00  0.00    -0.383 N
HETATM   11  C13 UNL     1     -36.048  29.744  -2.234  1.00  0.00     0.122 C
HETATM   12  C14 UNL     1     -37.045  28.744  -1.781  1.00  0.00     0.020 C
HETATM   13  C15 UNL     1     -38.026  29.219  -0.760  1.00  0.00     0.007 C
HETATM   14  C16 UNL     1     -38.068  30.712  -0.600  1.00  0.00     0.044 C
HETATM   15  C17 UNL     1     -36.668  31.208  -0.413  1.00  0.00     0.059 C
ENDBRANCH   8  10
ENDBRANCH   1   8
BRANCH   7  16
HETATM   16  N4  UNL     1     -32.815  30.851   0.320  1.00  0.00    -0.417 NA
BRANCH  16  17
HETATM   17  C9  UNL     1     -32.807  29.513   0.463  1.00  0.00     0.085 C
HETATM   18  C10 UNL     1     -33.983  28.874   1.231  1.00  0.00     0.053 C
HETATM   19  C11 UNL     1     -31.536  28.922   1.120  1.00  0.00     0.053 C
HETATM   20  C12 UNL     1     -32.826  28.715  -0.871  1.00  0.00     0.053 C
ENDBRANCH  16  17
ENDBRANCH   7  16
BRANCH   6  21
HETATM   21  C4  UNL     1     -31.857  32.985   2.024  1.00  0.00     0.047 C
HETATM   22  C5  UNL     1     -31.472  34.405   2.442  1.00  0.00     0.040 C
HETATM   23  C6  UNL     1     -32.563  32.381   3.223  1.00  0.00     0.040 C
HETATM   24  C7  UNL     1     -30.631  32.171   1.778  1.00  0.00     0.040 C
ENDBRANCH   6  21
TORSDOF 5
ENDMDL