MODEL 2
REMARK VINA RESULT: -6.461146014      2.440      5.436
REMARK  4 active torsions:
REMARK  status: ('A' for Active; 'I' for Inactive)
REMARK    1  A    between atoms: C2_2  and  N1_4
REMARK       I    between atoms: N2_7  and  C6_8
REMARK    2  A    between atoms: C6_8  and  O2_10
REMARK    3  A    between atoms: O2_10  and  C7_11
REMARK    4  A    between atoms: C15_19  and  N3_20
ROOT
HETATM    1  N1  UNL     1     -33.084  31.372   0.447  1.00  0.00     0.123 N
HETATM    2  C4  UNL     1     -33.083  32.634  -0.267  1.00  0.00     0.296 C
HETATM    3  C5  UNL     1     -34.548  32.991  -0.521  1.00  0.00     0.161 C
HETATM    4  N2  UNL     1     -35.277  31.912   0.119  1.00  0.00    -0.290 N
HETATM    5  C6  UNL     1     -36.588  32.003   0.607  1.00  0.00     0.365 C
HETATM    6  O1  UNL     1     -37.218  33.106   0.493  1.00  0.00    -0.238 OA
HETATM    7  C12 UNL     1     -34.326  30.804   0.103  1.00  0.00     0.238 C
HETATM    8  C13 UNL     1     -34.794  29.619   0.856  1.00  0.00     0.067 C
HETATM    9  C14 UNL     1     -33.861  28.444   0.652  1.00  0.00     0.037 C
HETATM   10  C15 UNL     1     -33.953  28.051  -0.810  1.00  0.00     0.183 C
HETATM   11  C16 UNL     1     -33.303  29.221  -1.563  1.00  0.00     0.037 C
HETATM   12  C17 UNL     1     -34.243  30.396  -1.378  1.00  0.00     0.067 C
ENDROOT
BRANCH   1  13
HETATM   13  C2  UNL     1     -32.753  31.522   1.819  1.00  0.00     0.218 C
HETATM   14  C1  UNL     1     -32.558  32.934   2.295  1.00  0.00     0.042 C
HETATM   15  C3  UNL     1     -31.446  30.795   2.079  1.00  0.00     0.042 C
ENDBRANCH   1  13
BRANCH   5  16
HETATM   16  O2  UNL     1     -37.294  30.991   1.219  1.00  0.00    -0.298 OA
BRANCH  16  17
HETATM   17  C7  UNL     1     -38.359  30.334   0.590  1.00  0.00     0.133 C
HETATM   18  C8  UNL     1     -38.756  29.045   1.306  1.00  0.00     0.032 C
HETATM   19  C9  UNL     1     -39.715  28.452   0.281  1.00  0.00     0.002 C
HETATM   20  C10 UNL     1     -39.080  28.773  -1.033  1.00  0.00     0.002 C
HETATM   21  C11 UNL     1     -38.033  29.829  -0.780  1.00  0.00     0.032 C
ENDBRANCH  16  17
ENDBRANCH   5  16
BRANCH  10  22
HETATM   22  N3  UNL     1     -33.319  26.801  -1.089  1.00  0.00    -0.075 N
ATOM     23  H33 UNL     1     -33.500  26.126  -0.346  1.00  0.00     0.274 HD
ATOM     24  H32 UNL     1     -33.779  26.323  -1.864  1.00  0.00     0.274 HD
ATOM     25  H31 UNL     1     -32.318  26.895  -1.260  1.00  0.00     0.274 HD
ENDBRANCH  10  22
TORSDOF 4
ENDMDL