MODEL 5
REMARK VINA RESULT: -5.872198456      2.657      4.045
REMARK  4 active torsions:
REMARK  status: ('A' for Active; 'I' for Inactive)
REMARK    1  A    between atoms: C2_2  and  C3_3
REMARK    2  A    between atoms: C3_3  and  C4_4
REMARK       I    between atoms: C4_4  and  N1_6
REMARK    3  A    between atoms: N1_6  and  C5_8
REMARK    4  A    between atoms: C5_8  and  N2_10
ROOT
HETATM    1  C4  UNL     1     -33.482  28.324  -0.023  1.00  0.00     0.227 C
HETATM    2  O1  UNL     1     -33.858  28.122   1.155  1.00  0.00    -0.273 OA
HETATM    3  N1  UNL     1     -32.500  29.310  -0.270  1.00  0.00    -0.304 N
ATOM      4  H1  UNL     1     -32.197  29.472  -1.231  1.00  0.00     0.171 HD
ENDROOT
BRANCH   1   5
HETATM    5  C3  UNL     1     -34.069  27.533  -1.127  1.00  0.00     0.137 C
BRANCH   5   6
HETATM    6  C2  UNL     1     -35.213  28.211  -1.763  1.00  0.00    -0.062 C
HETATM    7  C1  UNL     1     -36.110  29.093  -0.970  1.00  0.00     0.045 C
HETATM    8  C10 UNL     1     -35.462  28.047  -3.038  1.00  0.00    -0.019 C
HETATM    9  C11 UNL     1     -36.551  28.628  -3.875  1.00  0.00     0.047 C
HETATM   10  S3  UNL     1     -34.534  27.034  -4.225  1.00  0.00    -0.134 SA
HETATM   11  C12 UNL     1     -36.960  27.581  -4.877  1.00  0.00     0.015 C
HETATM   12  C13 UNL     1     -35.701  27.189  -5.639  1.00  0.00     0.079 C
ENDBRANCH   5   6
ENDBRANCH   1   5
BRANCH   3  13
HETATM   13  C5  UNL     1     -31.918  30.086   0.770  1.00  0.00     0.176 C
HETATM   14  S1  UNL     1     -30.655  29.510   1.650  1.00  0.00    -0.041 SA
BRANCH  13  15
HETATM   15  N2  UNL     1     -32.420  31.379   1.069  1.00  0.00    -0.357 N
HETATM   16  C6  UNL     1     -32.118  31.971   2.334  1.00  0.00     0.135 C
HETATM   17  C7  UNL     1     -31.539  33.363   2.239  1.00  0.00     0.093 C
HETATM   18  S2  UNL     1     -32.485  34.384   1.048  1.00  0.00    -0.166 SA
HETATM   19  C8  UNL     1     -33.852  33.298   0.483  1.00  0.00     0.093 C
HETATM   20  C9  UNL     1     -33.220  32.011   0.047  1.00  0.00     0.135 C
ENDBRANCH  13  15
ENDBRANCH   3  13
TORSDOF 4
ENDMDL