MODEL 5
REMARK VINA RESULT: -6.736602001      1.461      2.034
REMARK  4 active torsions:
REMARK  status: ('A' for Active; 'I' for Inactive)
REMARK       I    between atoms: N1_2  and  C2_4
REMARK    1  A    between atoms: C2_4  and  O2_6
REMARK    2  A    between atoms: O2_6  and  C3_7
REMARK    3  A    between atoms: C3_7  and  C4_9
REMARK    4  A    between atoms: C10_16  and  C11_17
ROOT
HETATM    1  C4  UNL     1     -31.742  31.871   0.964  1.00  0.00     0.091 C
HETATM    2  C5  UNL     1     -31.364  31.145   2.250  1.00  0.00     0.041 C
HETATM    3  C6  UNL     1     -30.724  29.863   1.864  1.00  0.00     0.169 C
HETATM    4  O4  UNL     1     -31.195  29.204   0.814  1.00  0.00    -0.380 OA
HETATM    5  C7  UNL     1     -32.332  29.556   0.194  1.00  0.00     0.061 C
HETATM    6  C8  UNL     1     -33.459  28.700   0.759  1.00  0.00     0.038 C
HETATM    7  C9  UNL     1     -33.917  27.656  -0.237  1.00  0.00     0.008 C
HETATM    8  C10 UNL     1     -34.471  28.387  -1.427  1.00  0.00    -0.007 C
HETATM    9  C15 UNL     1     -33.399  29.189  -2.060  1.00  0.00     0.008 C
HETATM   10  C16 UNL     1     -32.115  29.250  -1.293  1.00  0.00     0.038 C
HETATM   11  C17 UNL     1     -32.761  30.982   0.287  1.00  0.00     0.052 C
ENDROOT
BRANCH   1  12
HETATM   12  C3  UNL     1     -32.374  33.155   1.364  1.00  0.00     0.271 C
HETATM   13  O3  UNL     1     -33.040  33.280   2.422  1.00  0.00    -0.264 OA
BRANCH  12  14
HETATM   14  O2  UNL     1     -32.238  34.274   0.555  1.00  0.00    -0.227 OA
BRANCH  14  15
HETATM   15  C2  UNL     1     -33.190  34.668  -0.368  1.00  0.00     0.367 C
HETATM   16  N1  UNL     1     -34.579  34.452  -0.162  1.00  0.00    -0.341 N
HETATM   17  C1  UNL     1     -35.560  34.871  -1.141  1.00  0.00     0.151 C
ATOM     18  H1  UNL     1     -34.891  33.991   0.693  1.00  0.00     0.164 HD
HETATM   19  O1  UNL     1     -32.830  35.237  -1.429  1.00  0.00    -0.238 OA
ENDBRANCH  14  15
ENDBRANCH  12  14
ENDBRANCH   1  12
BRANCH   8  20
HETATM   20  C11 UNL     1     -35.197  27.470  -2.380  1.00  0.00    -0.048 C
HETATM   21  C12 UNL     1     -34.912  26.017  -2.060  1.00  0.00     0.015 C
HETATM   22  C13 UNL     1     -36.684  27.650  -2.344  1.00  0.00     0.015 C
HETATM   23  C14 UNL     1     -34.745  27.695  -3.814  1.00  0.00     0.015 C
ENDBRANCH   8  20
TORSDOF 4
ENDMDL