MODEL 2
REMARK VINA RESULT: -6.702658126      2.567      6.985
REMARK  5 active torsions:
REMARK  status: ('A' for Active; 'I' for Inactive)
REMARK    1  A    between atoms: C2_2  and  O1_3
REMARK    2  A    between atoms: O1_3  and  C3_4
REMARK       I    between atoms: C3_4  and  N1_6
REMARK    3  A    between atoms: N1_6  and  C4_8
REMARK       I    between atoms: N2_15  and  C11_16
REMARK    4  A    between atoms: C11_16  and  O4_18
REMARK    5  A    between atoms: O4_18  and  C12_19
ROOT
HETATM    1  C4  UNL     1     -33.503  28.854  -1.350  1.00  0.00     0.051 C
HETATM    2  C5  UNL     1     -34.800  28.958  -0.598  1.00  0.00     0.033 C
HETATM    3  C6  UNL     1     -34.729  29.149   0.856  1.00  0.00     0.004 C
HETATM    4  C7  UNL     1     -33.437  28.978   1.546  1.00  0.00     0.025 C
HETATM    5  C8  UNL     1     -32.265  29.625   0.856  1.00  0.00     0.089 C
HETATM    6  C9  UNL     1     -31.522  28.549   0.077  1.00  0.00     0.028 C
HETATM    7  C10 UNL     1     -32.577  27.844  -0.770  1.00  0.00     0.035 C
HETATM    8  N2  UNL     1     -32.650  30.655  -0.057  1.00  0.00    -0.321 N
HETATM    9  C11 UNL     1     -32.800  31.992   0.387  1.00  0.00     0.363 C
HETATM   10  O3  UNL     1     -32.584  32.240   1.598  1.00  0.00    -0.238 OA
HETATM   11  C16 UNL     1     -32.874  30.254  -1.435  1.00  0.00     0.159 C
ENDROOT
BRANCH   1  12
HETATM   12  N1  UNL     1     -33.813  28.473  -2.714  1.00  0.00    -0.326 N
HETATM   13  C3  UNL     1     -34.279  27.207  -3.121  1.00  0.00     0.361 C
HETATM   14  O2  UNL     1     -34.476  26.263  -2.314  1.00  0.00    -0.238 OA
ATOM     15  H1  UNL     1     -33.685  29.180  -3.438  1.00  0.00     0.165 HD
BRANCH  13  16
HETATM   16  O1  UNL     1     -34.547  26.946  -4.478  1.00  0.00    -0.304 OA
BRANCH  16  17
HETATM   17  C2  UNL     1     -35.699  26.194  -4.817  1.00  0.00     0.176 C
HETATM   18  C1  UNL     1     -35.590  25.791  -6.268  1.00  0.00     0.034 C
ENDBRANCH  16  17
ENDBRANCH  13  16
ENDBRANCH   1  12
BRANCH   9  19
HETATM   19  O4  UNL     1     -33.167  33.040  -0.426  1.00  0.00    -0.294 OA
BRANCH  19  20
HETATM   20  C12 UNL     1     -34.502  33.486  -0.576  1.00  0.00     0.061 C
HETATM   21  C13 UNL     1     -35.398  32.948   0.519  1.00  0.00     0.046 C
HETATM   22  C14 UNL     1     -35.088  33.099  -1.903  1.00  0.00     0.046 C
HETATM   23  C15 UNL     1     -34.519  34.996  -0.486  1.00  0.00     0.046 C
ENDBRANCH  19  20
ENDBRANCH   9  19
TORSDOF 5
ENDMDL