MODEL 1
REMARK VINA RESULT: -6.567238963      0.000      0.000
REMARK  2 active torsions:
REMARK  status: ('A' for Active; 'I' for Inactive)
REMARK    1  A    between atoms: C7_8  and  N2_9
REMARK    2  A    between atoms: C10_12  and  N3_13
ROOT
HETATM    1  N2  UNL     1     -34.478  29.160  -0.803  1.00  0.00     0.093 N
HETATM    2  C8  UNL     1     -35.442  30.017  -0.206  1.00  0.00     0.275 C
HETATM    3  C9  UNL     1     -35.003  31.424   0.066  1.00  0.00     0.056 C
HETATM    4  C10 UNL     1     -33.528  31.583   0.005  1.00  0.00     0.095 C
HETATM    5  C14 UNL     1     -33.089  31.098  -1.384  1.00  0.00     0.056 C
HETATM    6  C15 UNL     1     -33.639  29.784  -1.777  1.00  0.00     0.275 C
ENDROOT
BRANCH   1   7
HETATM    7  C7  UNL     1     -35.218  28.103  -1.493  1.00  0.00     0.227 C
HETATM    8  C6  UNL     1     -34.266  27.013  -1.912  1.00  0.00     0.071 C
HETATM    9  C5  UNL     1     -35.016  26.025  -2.786  1.00  0.00     0.225 C
HETATM   10  N1  UNL     1     -36.431  26.180  -2.536  1.00  0.00     0.093 N
HETATM   11  C4  UNL     1     -34.798  26.450  -4.229  1.00  0.00     0.038 C
HETATM   12  C1  UNL     1     -37.220  25.097  -3.025  1.00  0.00     0.310 C
HETATM   13  C2  UNL     1     -36.728  27.409  -3.261  1.00  0.00     0.225 C
HETATM   14  C3  UNL     1     -36.107  27.102  -4.613  1.00  0.00     0.038 C
HETATM   15  C16 UNL     1     -36.004  28.588  -2.665  1.00  0.00     0.071 C
ENDBRANCH   1   7
BRANCH   4  16
HETATM   16  N3  UNL     1     -33.077  32.960   0.098  1.00  0.00    -0.328 N
HETATM   17  C11 UNL     1     -33.208  33.901  -0.890  1.00  0.00     0.111 A
HETATM   18  C12 UNL     1     -32.668  35.074  -0.459  1.00  0.00     0.107 A
HETATM   19  N4  UNL     1     -32.221  34.837   0.773  1.00  0.00    -0.342 N
HETATM   20  C13 UNL     1     -32.460  33.545   1.139  1.00  0.00     0.178 A
ATOM     21  H4  UNL     1     -31.761  35.530   1.364  1.00  0.00     0.167 HD
HETATM   22  S1  UNL     1     -32.042  32.904   2.583  1.00  0.00    -0.040 SA
ENDBRANCH   4  16
TORSDOF 2
ENDMDL