MODEL 1
REMARK VINA RESULT: -6.676087792      0.000      0.000
REMARK  4 active torsions:
REMARK  status: ('A' for Active; 'I' for Inactive)
REMARK    1  A    between atoms: C2_2  and  O1_3
REMARK    2  A    between atoms: O1_3  and  C3_4
REMARK    3  A    between atoms: C3_4  and  C4_6
REMARK    4  A    between atoms: C10_13  and  C11_14
ROOT
HETATM    1  C4  UNL     1     -32.324  32.477   1.176  1.00  0.00     0.144 C
HETATM    2  C5  UNL     1     -33.786  32.132   1.502  1.00  0.00     0.292 C
HETATM    3  N1  UNL     1     -34.269  31.395   0.377  1.00  0.00     0.122 N
HETATM    4  C6  UNL     1     -35.709  31.384   0.381  1.00  0.00     0.313 C
HETATM    5  C7  UNL     1     -33.663  30.125   0.173  1.00  0.00     0.320 C
HETATM    6  C8  UNL     1     -33.060  30.004  -1.208  1.00  0.00     0.073 C
HETATM    7  C9  UNL     1     -34.045  29.516  -2.238  1.00  0.00     0.010 C
HETATM    8  C10 UNL     1     -34.825  28.329  -1.808  1.00  0.00    -0.007 C
HETATM    9  C15 UNL     1     -34.265  27.834  -0.497  1.00  0.00     0.010 C
HETATM   10  C16 UNL     1     -34.559  28.953   0.514  1.00  0.00     0.073 C
HETATM   11  N2  UNL     1     -32.532  30.030   1.111  1.00  0.00    -0.033 N
ATOM     12  H21 UNL     1     -32.041  29.142   1.017  1.00  0.00     0.280 HD
ATOM     13  H22 UNL     1     -32.852  29.932   2.075  1.00  0.00     0.280 HD
HETATM   14  C17 UNL     1     -31.632  31.152   0.963  1.00  0.00     0.200 C
HETATM   15  C18 UNL     1     -30.537  30.983   1.992  1.00  0.00     0.041 C
ENDROOT
BRANCH   1  16
HETATM   16  C3  UNL     1     -31.719  33.310   2.212  1.00  0.00     0.266 C
HETATM   17  O2  UNL     1     -32.051  33.124   3.409  1.00  0.00    -0.265 OA
BRANCH  16  18
HETATM   18  O1  UNL     1     -30.786  34.309   1.974  1.00  0.00    -0.321 OA
BRANCH  18  19
HETATM   19  C2  UNL     1     -31.045  35.667   2.364  1.00  0.00     0.174 C
HETATM   20  C1  UNL     1     -30.458  35.979   3.699  1.00  0.00     0.034 C
ENDBRANCH  18  19
ENDBRANCH  16  18
ENDBRANCH   1  16
BRANCH   8  21
HETATM   21  C11 UNL     1     -34.938  27.245  -2.838  1.00  0.00    -0.048 C
HETATM   22  C12 UNL     1     -34.633  25.899  -2.212  1.00  0.00     0.015 C
HETATM   23  C13 UNL     1     -33.926  27.438  -3.959  1.00  0.00     0.015 C
HETATM   24  C14 UNL     1     -36.291  27.160  -3.465  1.00  0.00     0.015 C
ENDBRANCH   8  21
TORSDOF 4
ENDMDL