MODEL 1
REMARK VINA RESULT: -6.432290468      0.000      0.000
REMARK  3 active torsions:
REMARK  status: ('A' for Active; 'I' for Inactive)
REMARK    1  A    between atoms: C2_2  and  O1_3
REMARK    2  A    between atoms: O1_3  and  C3_4
REMARK    3  A    between atoms: C3_4  and  C4_6
ROOT
HETATM    1  C4  UNL     1     -34.271  30.435   0.949  1.00  0.00     0.110 C
HETATM    2  C5  UNL     1     -33.132  31.328   1.147  1.00  0.00     0.033 C
HETATM    3  C6  UNL     1     -33.265  31.890   2.584  1.00  0.00     0.020 C
HETATM    4  C7  UNL     1     -32.204  32.775   3.055  1.00  0.00     0.021 C
HETATM    5  C8  UNL     1     -31.044  32.949   2.097  1.00  0.00     0.120 C
HETATM    6  N1  UNL     1     -30.823  31.629   1.555  1.00  0.00    -0.381 N
ATOM      7  H1  UNL     1     -29.863  31.285   1.520  1.00  0.00     0.160 HD
HETATM    8  C9  UNL     1     -31.771  30.843   1.104  1.00  0.00     0.099 C
HETATM    9  N2  UNL     1     -31.286  29.573   0.653  1.00  0.00    -0.087 NA
HETATM   10  C10 UNL     1     -33.378  32.469   0.133  1.00  0.00     0.010 C
HETATM   11  C11 UNL     1     -34.331  33.499   0.613  1.00  0.00     0.007 C
HETATM   12  C12 UNL     1     -35.779  33.159   0.549  1.00  0.00     0.001 C
HETATM   13  C13 UNL     1     -36.151  31.821   0.104  1.00  0.00     0.011 C
HETATM   14  C14 UNL     1     -34.978  30.931  -0.337  1.00  0.00    -0.023 C
HETATM   15  C15 UNL     1     -35.595  29.794  -1.074  1.00  0.00     0.017 C
HETATM   16  C16 UNL     1     -34.034  31.770  -1.076  1.00  0.00    -0.035 C
HETATM   17  C17 UNL     1     -34.776  32.735  -1.961  1.00  0.00     0.016 C
HETATM   18  C18 UNL     1     -32.975  31.146  -1.895  1.00  0.00     0.016 C
ENDROOT
BRANCH   1  19
HETATM   19  C3  UNL     1     -34.184  28.991   0.974  1.00  0.00     0.265 C
HETATM   20  O2  UNL     1     -34.003  28.384   2.105  1.00  0.00    -0.265 OA
BRANCH  19  21
HETATM   21  O1  UNL     1     -34.268  28.082  -0.048  1.00  0.00    -0.322 OA
BRANCH  21  22
HETATM   22  C2  UNL     1     -33.240  27.378  -0.656  1.00  0.00     0.174 C
HETATM   23  C1  UNL     1     -33.410  26.969  -2.067  1.00  0.00     0.034 C
ENDBRANCH  21  22
ENDBRANCH  19  21
ENDBRANCH   1  19
TORSDOF 3
ENDMDL