MODEL 2
REMARK VINA RESULT: -7.086206062      0.864      1.386
REMARK  3 active torsions:
REMARK  status: ('A' for Active; 'I' for Inactive)
REMARK    1  A    between atoms: C4_6  and  N2_7
REMARK    2  A    between atoms: C9_15  and  N4_16
REMARK    3  A    between atoms: N4_16  and  C10_17
ROOT
HETATM    1  C1  UNL     1     -31.123  28.187   0.283  1.00  0.00     0.055 C
HETATM    2  C2  UNL     1     -32.455  28.080  -0.342  1.00  0.00     0.012 A
HETATM    3  C3  UNL     1     -32.782  26.981  -1.082  1.00  0.00     0.117 A
HETATM    4  N1  UNL     1     -33.994  26.882  -1.652  1.00  0.00    -0.201 N
ATOM      5  H1  UNL     1     -34.235  26.060  -2.208  1.00  0.00     0.183 HD
HETATM    6  C4  UNL     1     -34.900  27.886  -1.483  1.00  0.00     0.682 A
HETATM    7  N3  UNL     1     -34.571  28.934  -0.768  1.00  0.00    -0.164 N
ATOM      8  H3  UNL     1     -35.276  29.664  -0.665  1.00  0.00     0.187 HD
HETATM    9  C9  UNL     1     -33.373  29.139  -0.150  1.00  0.00     0.195 A
ENDROOT
BRANCH   9  10
HETATM   10  N4  UNL     1     -33.112  30.129   0.457  1.00  0.00    -0.424 NA
BRANCH  10  11
HETATM   11  C10 UNL     1     -32.812  31.248   1.135  1.00  0.00     0.165 C
HETATM   12  C11 UNL     1     -31.487  31.205   1.851  1.00  0.00     0.040 C
HETATM   13  C12 UNL     1     -30.866  32.510   2.120  1.00  0.00     0.007 C
HETATM   14  C13 UNL     1     -31.926  33.576   2.289  1.00  0.00    -0.019 C
HETATM   15  C14 UNL     1     -31.330  34.919   2.657  1.00  0.00     0.010 C
HETATM   16  C15 UNL     1     -32.528  33.757   0.909  1.00  0.00     0.007 C
HETATM   17  C16 UNL     1     -33.053  32.481   0.335  1.00  0.00     0.040 C
ENDBRANCH  10  11
ENDBRANCH   9  10
BRANCH   6  18
HETATM   18  N2  UNL     1     -36.132  27.700  -2.165  1.00  0.00    -0.216 N
HETATM   19  C5  UNL     1     -37.125  28.801  -2.078  1.00  0.00     0.151 C
HETATM   20  C6  UNL     1     -37.209  29.369  -3.485  1.00  0.00     0.094 C
HETATM   21  S1  UNL     1     -37.917  28.050  -4.516  1.00  0.00    -0.166 SA
HETATM   22  C7  UNL     1     -37.743  26.522  -3.583  1.00  0.00     0.094 C
HETATM   23  C8  UNL     1     -36.382  26.530  -2.916  1.00  0.00     0.151 C
ENDBRANCH   6  18
TORSDOF 3
ENDMDL