MODEL 4
REMARK VINA RESULT: -6.538354697      2.323      4.538
REMARK  3 active torsions:
REMARK  status: ('A' for Active; 'I' for Inactive)
REMARK    1  A    between atoms: C2_2  and  O1_3
REMARK    2  A    between atoms: O1_3  and  C3_4
REMARK       I    between atoms: C3_4  and  N1_6
REMARK    3  A    between atoms: C15_18  and  O3_19
ROOT
HETATM    1  C3  UNL     1     -35.537  30.427  -1.473  1.00  0.00     0.366 C
HETATM    2  O2  UNL     1     -35.779  31.614  -1.689  1.00  0.00    -0.238 OA
HETATM    3  N1  UNL     1     -34.273  29.943  -1.109  1.00  0.00    -0.299 N
HETATM    4  C4  UNL     1     -34.232  28.501  -0.941  1.00  0.00     0.149 C
HETATM    5  C5  UNL     1     -33.239  28.071   0.044  1.00  0.00     0.069 C
HETATM    6  C6  UNL     1     -31.876  28.690  -0.302  1.00  0.00     0.031 C
HETATM    7  C7  UNL     1     -32.052  30.167   0.001  1.00  0.00     0.078 C
HETATM    8  C8  UNL     1     -33.095  30.693  -0.927  1.00  0.00     0.002 C
HETATM    9  C9  UNL     1     -33.185  32.193  -0.909  1.00  0.00     0.054 C
HETATM   10  C10 UNL     1     -33.850  32.840   0.234  1.00  0.00     0.010 C
HETATM   11  C11 UNL     1     -32.924  33.552   1.192  1.00  0.00    -0.018 C
HETATM   12  C12 UNL     1     -32.439  34.873   0.649  1.00  0.00     0.010 C
HETATM   13  C13 UNL     1     -31.818  32.638   1.608  1.00  0.00     0.008 C
HETATM   14  C14 UNL     1     -32.448  31.405   2.195  1.00  0.00     0.050 C
HETATM   15  C15 UNL     1     -32.248  30.178   1.442  1.00  0.00     0.115 C
HETATM   16  S1  UNL     1     -33.597  28.940   1.623  1.00  0.00    -0.124 SA
ENDROOT
BRANCH   1  17
HETATM   17  O1  UNL     1     -36.660  29.574  -1.626  1.00  0.00    -0.304 OA
BRANCH  17  18
HETATM   18  C2  UNL     1     -37.847  29.783  -0.859  1.00  0.00     0.176 C
HETATM   19  C1  UNL     1     -37.497  29.655   0.604  1.00  0.00     0.034 C
ENDBRANCH  17  18
ENDBRANCH   1  17
BRANCH  15  20
HETATM   20  O3  UNL     1     -31.116  29.512   1.996  1.00  0.00    -0.379 OA
ATOM     21  H3  UNL     1     -30.699  30.142   2.572  1.00  0.00     0.211 HD
ENDBRANCH  15  20
TORSDOF 3
ENDMDL