MODEL 3
REMARK VINA RESULT: -6.692149991      2.360      4.467
REMARK  5 active torsions:
REMARK  status: ('A' for Active; 'I' for Inactive)
REMARK    1  A    between atoms: C2_2  and  O1_3
REMARK    2  A    between atoms: C2_2  and  N1_5
REMARK    3  A    between atoms: N1_5  and  C3_7
REMARK    4  A    between atoms: C11_16  and  O2_17
REMARK    5  A    between atoms: O2_17  and  C12_18
REMARK       I    between atoms: C12_18  and  N3_20
ROOT
HETATM    1  C3  UNL     1     -32.270  34.130   0.951  1.00  0.00     0.079 C
HETATM    2  C4  UNL     1     -33.518  34.446   0.237  1.00  0.00     0.025 C
HETATM    3  C5  UNL     1     -33.785  33.750  -1.056  1.00  0.00     0.002 C
HETATM    4  C6  UNL     1     -35.084  33.036  -1.178  1.00  0.00     0.001 C
HETATM    5  C7  UNL     1     -35.559  32.189  -0.090  1.00  0.00     0.019 C
HETATM    6  C8  UNL     1     -34.991  30.768  -0.037  1.00  0.00     0.095 C
HETATM    7  C9  UNL     1     -34.277  30.497  -1.257  1.00  0.00     0.064 C
HETATM    8  N2  UNL     1     -33.711  30.260  -2.229  1.00  0.00    -0.197 NA
HETATM    9  C10 UNL     1     -34.337  30.475   1.233  1.00  0.00     0.052 C
HETATM   10  C11 UNL     1     -32.904  30.478   1.469  1.00  0.00     0.138 C
HETATM   11  C15 UNL     1     -32.323  31.802   2.011  1.00  0.00     0.013 C
HETATM   12  C16 UNL     1     -33.182  32.357   3.103  1.00  0.00     0.012 C
HETATM   13  C17 UNL     1     -31.825  32.701   0.966  1.00  0.00     0.031 C
ENDROOT
BRANCH  10  14
HETATM   14  O2  UNL     1     -32.031  30.064   0.457  1.00  0.00    -0.298 OA
BRANCH  14  15
HETATM   15  C12 UNL     1     -31.100  29.046   0.608  1.00  0.00     0.362 C
HETATM   16  O3  UNL     1     -30.117  29.299   1.346  1.00  0.00    -0.238 OA
HETATM   17  N3  UNL     1     -31.177  27.772   0.004  1.00  0.00    -0.337 N
HETATM   18  C13 UNL     1     -30.097  26.823   0.289  1.00  0.00     0.154 C
HETATM   19  C14 UNL     1     -32.255  27.366  -0.876  1.00  0.00     0.154 C
ENDBRANCH  14  15
ENDBRANCH  10  14
BRANCH   1  20
HETATM   20  N1  UNL     1     -32.143  34.725   2.227  1.00  0.00    -0.393 N
ATOM     21  H1  UNL     1     -32.517  34.230   3.037  1.00  0.00     0.156 HD
BRANCH  20  22
HETATM   22  C2  UNL     1     -31.520  35.974   2.428  1.00  0.00     0.209 C
HETATM   23  C1  UNL     1     -30.691  36.169   3.658  1.00  0.00     0.062 C
BRANCH  22  24
HETATM   24  O1  UNL     1     -30.683  36.304   1.315  1.00  0.00    -0.378 OA
ATOM     25  H1  UNL     1     -30.875  37.207   1.092  1.00  0.00     0.212 HD
ENDBRANCH  22  24
ENDBRANCH  20  22
ENDBRANCH   1  20
TORSDOF 5
ENDMDL