MODEL 5
REMARK VINA RESULT: -6.498425393      2.148      6.733
REMARK  4 active torsions:
REMARK  status: ('A' for Active; 'I' for Inactive)
REMARK    1  A    between atoms: O1_1  and  C1_3
REMARK    2  A    between atoms: C1_3  and  C2_4
REMARK    3  A    between atoms: C4_7  and  N1_8
REMARK    4  A    between atoms: N1_8  and  C5_10
ROOT
HETATM    1  C2  UNL     1     -33.741  27.720  -0.988  1.00  0.00     0.054 A
HETATM    2  C3  UNL     1     -32.403  27.419  -1.061  1.00  0.00     0.081 A
HETATM    3  S1  UNL     1     -31.754  28.397   0.174  1.00  0.00    -0.064 SA
HETATM    4  C4  UNL     1     -33.194  29.126   0.715  1.00  0.00     0.145 A
HETATM    5  N2  UNL     1     -34.119  28.570  -0.099  1.00  0.00    -0.337 N
ATOM      6  H2  UNL     1     -35.103  28.820  -0.009  1.00  0.00     0.168 HD
ENDROOT
BRANCH   1   7
HETATM    7  C1  UNL     1     -34.686  27.042  -1.980  1.00  0.00     0.130 C
HETATM    8  C11 UNL     1     -34.205  27.384  -3.399  1.00  0.00     0.317 C
HETATM    9  N3  UNL     1     -35.339  27.305  -4.279  1.00  0.00     0.091 N
HETATM   10  C12 UNL     1     -36.288  26.259  -3.919  1.00  0.00     0.273 C
HETATM   11  C16 UNL     1     -36.097  28.553  -4.209  1.00  0.00     0.273 C
HETATM   12  C13 UNL     1     -36.977  26.588  -2.625  1.00  0.00     0.038 C
HETATM   13  C14 UNL     1     -36.081  27.606  -1.894  1.00  0.00     0.031 C
HETATM   14  C15 UNL     1     -36.183  28.885  -2.733  1.00  0.00     0.038 C
BRANCH   7  15
HETATM   15  O1  UNL     1     -34.684  25.680  -1.784  1.00  0.00    -0.381 OA
ATOM     16  H1  UNL     1     -35.357  25.271  -2.316  1.00  0.00     0.211 HD
ENDBRANCH   7  15
ENDBRANCH   1   7
BRANCH   4  17
HETATM   17  N1  UNL     1     -33.443  30.018   1.603  1.00  0.00    -0.366 N
ATOM     18  H1  UNL     1     -33.878  29.653   2.451  1.00  0.00     0.162 HD
BRANCH  17  19
HETATM   19  C5  UNL     1     -33.226  31.408   1.620  1.00  0.00     0.083 C
HETATM   20  C6  UNL     1     -31.879  31.606   2.303  1.00  0.00     0.025 C
HETATM   21  C7  UNL     1     -31.314  32.964   2.112  1.00  0.00     0.002 C
HETATM   22  C8  UNL     1     -32.347  33.944   1.624  1.00  0.00     0.000 C
HETATM   23  C9  UNL     1     -32.811  33.467   0.258  1.00  0.00     0.002 C
HETATM   24  C10 UNL     1     -33.284  32.024   0.270  1.00  0.00     0.025 C
ENDBRANCH  17  19
ENDBRANCH   4  17
TORSDOF 4
ENDMDL