MODEL 5
REMARK VINA RESULT: -6.360525764      2.114      5.330
REMARK  4 active torsions:
REMARK  status: ('A' for Active; 'I' for Inactive)
REMARK    1  A    between atoms: O1_2  and  C2_3
REMARK    2  A    between atoms: C15_16  and  O2_17
REMARK    3  A    between atoms: C17_20  and  C19_22
REMARK    4  A    between atoms: C19_22  and  O3_23
ROOT
HETATM    1  C2  UNL     1     -33.120  32.097   1.500  1.00  0.00     0.128 C
HETATM    2  C3  UNL     1     -32.168  30.873   1.563  1.00  0.00     0.038 C
HETATM    3  C4  UNL     1     -32.762  29.672   0.926  1.00  0.00     0.004 C
HETATM    4  C5  UNL     1     -31.601  28.845   0.371  1.00  0.00    -0.043 C
HETATM    5  C6  UNL     1     -30.756  29.513  -0.630  1.00  0.00     0.015 C
HETATM    6  C7  UNL     1     -30.704  28.594   1.600  1.00  0.00     0.015 C
HETATM    7  C8  UNL     1     -32.069  27.478  -0.067  1.00  0.00     0.009 C
HETATM    8  C9  UNL     1     -33.330  27.533  -0.865  1.00  0.00     0.002 C
HETATM    9  C10 UNL     1     -33.809  28.886  -1.220  1.00  0.00     0.010 C
HETATM   10  C11 UNL     1     -33.889  29.873  -0.035  1.00  0.00    -0.035 C
HETATM   11  C12 UNL     1     -35.138  29.300   0.675  1.00  0.00     0.016 C
HETATM   12  C13 UNL     1     -34.076  31.209  -0.603  1.00  0.00     0.013 C
HETATM   13  C14 UNL     1     -33.247  32.330   0.050  1.00  0.00     0.049 C
HETATM   14  C15 UNL     1     -33.793  33.614  -0.428  1.00  0.00     0.126 C
HETATM   15  C16 UNL     1     -34.930  33.206  -1.355  1.00  0.00     0.044 C
HETATM   16  C17 UNL     1     -35.381  31.818  -0.822  1.00  0.00    -0.015 C
HETATM   17  C18 UNL     1     -36.167  31.233  -1.999  1.00  0.00     0.018 C
ENDROOT
BRANCH  16  18
HETATM   18  C19 UNL     1     -36.319  32.163   0.237  1.00  0.00     0.173 C
BRANCH  18  19
HETATM   19  O3  UNL     1     -37.016  33.322  -0.221  1.00  0.00    -0.400 OA
ATOM     20  H3  UNL     1     -37.820  33.358   0.284  1.00  0.00     0.209 HD
ENDBRANCH  18  19
ENDBRANCH  16  18
BRANCH  14  21
HETATM   21  O2  UNL     1     -34.173  34.529   0.513  1.00  0.00    -0.395 OA
ATOM     22  H2  UNL     1     -34.050  34.299   1.426  1.00  0.00     0.210 HD
ENDBRANCH  14  21
BRANCH   1  23
HETATM   23  O1  UNL     1     -32.647  33.131   2.230  1.00  0.00    -0.390 OA
HETATM   24  C1  UNL     1     -31.291  33.276   2.301  1.00  0.00     0.202 C
ENDBRANCH   1  23
TORSDOF 4
ENDMDL