MODEL 1
REMARK VINA RESULT: -7.535203510      0.000      0.000
REMARK  3 active torsions:
REMARK  status: ('A' for Active; 'I' for Inactive)
REMARK    1  A    between atoms: N1_1  and  C1_4
REMARK    2  A    between atoms: N4_15  and  C8_16
REMARK    3  A    between atoms: N5_19  and  C11_20
ROOT
HETATM    1  C1  UNL     1     -31.940  33.026   1.127  1.00  0.00     0.109 A
HETATM    2  N2  UNL     1     -32.609  33.833   0.287  1.00  0.00    -0.338 N
ATOM      3  H2  UNL     1     -32.511  34.847   0.336  1.00  0.00     0.168 HD
HETATM    4  C2  UNL     1     -33.416  33.251  -0.625  1.00  0.00     0.183 A
HETATM    5  N3  UNL     1     -33.557  31.931  -0.704  1.00  0.00    -0.338 N
ATOM      6  H3  UNL     1     -34.180  31.541  -1.411  1.00  0.00     0.168 HD
HETATM    7  C3  UNL     1     -32.897  31.089   0.126  1.00  0.00     0.114 A
HETATM    8  C4  UNL     1     -32.068  31.644   1.065  1.00  0.00     0.029 A
HETATM    9  C5  UNL     1     -31.255  30.834   2.044  1.00  0.00     0.048 C
HETATM   10  C6  UNL     1     -31.128  29.430   1.553  1.00  0.00     0.025 C
HETATM   11  C7  UNL     1     -32.463  28.871   1.097  1.00  0.00     0.125 C
HETATM   12  N4  UNL     1     -33.079  29.688   0.064  1.00  0.00    -0.362 N
ENDROOT
BRANCH  12  13
HETATM   13  C8  UNL     1     -33.852  29.114  -1.005  1.00  0.00     0.089 C
HETATM   14  C9  UNL     1     -33.412  27.649  -1.249  1.00  0.00     0.055 C
HETATM   15  C10 UNL     1     -34.542  26.867  -1.920  1.00  0.00     0.275 C
HETATM   16  N5  UNL     1     -35.337  27.657  -2.812  1.00  0.00     0.093 N
HETATM   17  C16 UNL     1     -35.930  28.823  -2.179  1.00  0.00     0.275 C
HETATM   18  C17 UNL     1     -35.317  29.003  -0.776  1.00  0.00     0.055 C
BRANCH  16  19
HETATM   19  C11 UNL     1     -36.446  26.857  -3.273  1.00  0.00     0.223 C
HETATM   20  C12 UNL     1     -36.139  26.219  -4.633  1.00  0.00     0.036 C
HETATM   21  C13 UNL     1     -37.351  25.303  -4.779  1.00  0.00     0.002 C
HETATM   22  C14 UNL     1     -37.692  24.874  -3.359  1.00  0.00     0.002 C
HETATM   23  C15 UNL     1     -36.710  25.634  -2.456  1.00  0.00     0.036 C
ENDBRANCH  16  19
ENDBRANCH  12  13
BRANCH   1  24
HETATM   24  N1  UNL     1     -31.150  33.498   2.044  1.00  0.00    -0.385 N
ATOM     25  H12 UNL     1     -31.044  32.937   2.889  1.00  0.00     0.157 HD
ATOM     26  H11 UNL     1     -30.665  34.388   1.929  1.00  0.00     0.157 HD
ENDBRANCH   1  24
TORSDOF 3
ENDMDL