MODEL 4
REMARK VINA RESULT: -6.902593469      2.939      5.755
REMARK  4 active torsions:
REMARK  status: ('A' for Active; 'I' for Inactive)
REMARK    1  A    between atoms: C2_3  and  C3_4
REMARK    2  A    between atoms: C10_11  and  O1_12
REMARK    3  A    between atoms: C14_17  and  C15_18
REMARK    4  A    between atoms: C15_18  and  O2_21
ROOT
HETATM    1  C1  UNL     1     -35.640  30.605   0.288  1.00  0.00     0.314 C
HETATM    2  N1  UNL     1     -34.392  30.897  -0.339  1.00  0.00     0.118 N
HETATM    3  C2  UNL     1     -33.251  30.814   0.562  1.00  0.00     0.232 C
HETATM    4  C9  UNL     1     -33.366  31.799   1.690  1.00  0.00     0.068 C
HETATM    5  C10 UNL     1     -33.399  33.203   1.111  1.00  0.00     0.128 C
HETATM    6  C11 UNL     1     -34.513  33.295   0.129  1.00  0.00     0.074 C
HETATM    7  C12 UNL     1     -34.513  34.629  -0.589  1.00  0.00     0.014 C
HETATM    8  C13 UNL     1     -35.726  34.657  -1.486  1.00  0.00     0.036 C
HETATM    9  C14 UNL     1     -35.645  33.452  -2.389  1.00  0.00     0.158 C
HETATM   10  O3  UNL     1     -35.613  32.274  -1.685  1.00  0.00    -0.348 OA
HETATM   11  C18 UNL     1     -34.433  32.202  -0.924  1.00  0.00     0.365 C
ENDROOT
BRANCH   3  12
HETATM   12  C3  UNL     1     -33.104  29.422   1.115  1.00  0.00     0.019 C
HETATM   13  C4  UNL     1     -32.992  28.392   0.003  1.00  0.00     0.007 C
HETATM   14  C5  UNL     1     -31.619  27.768  -0.027  1.00  0.00     0.000 C
HETATM   15  C6  UNL     1     -30.597  28.877  -0.131  1.00  0.00     0.000 C
HETATM   16  C7  UNL     1     -30.620  29.646   1.186  1.00  0.00     0.000 C
HETATM   17  C8  UNL     1     -31.872  29.321   1.972  1.00  0.00     0.007 C
ENDBRANCH   3  12
BRANCH   5  18
HETATM   18  O1  UNL     1     -32.163  33.560   0.578  1.00  0.00    -0.395 OA
ATOM     19  H1  UNL     1     -32.016  33.141  -0.262  1.00  0.00     0.210 HD
ENDBRANCH   5  18
BRANCH   9  20
HETATM   20  C15 UNL     1     -36.734  33.434  -3.436  1.00  0.00     0.076 C
HETATM   21  C16 UNL     1     -37.804  32.464  -2.925  1.00  0.00     0.048 C
HETATM   22  C17 UNL     1     -37.379  34.802  -3.451  1.00  0.00     0.048 C
BRANCH  20  23
HETATM   23  O2  UNL     1     -36.262  33.064  -4.673  1.00  0.00    -0.388 OA
ATOM     24  H2  UNL     1     -36.790  33.417  -5.380  1.00  0.00     0.210 HD
ENDBRANCH  20  23
ENDBRANCH   9  20
TORSDOF 4
ENDMDL