MODEL 3
REMARK VINA RESULT: -6.279753520      1.559      6.676
REMARK  7 active torsions:
REMARK  status: ('A' for Active; 'I' for Inactive)
REMARK    1  A    between atoms: C2_2  and  C3_3
REMARK    2  A    between atoms: C3_3  and  C4_4
REMARK    3  A    between atoms: C4_4  and  C5_5
REMARK    4  A    between atoms: C5_5  and  C6_6
REMARK    5  A    between atoms: C7_7  and  C8_8
REMARK    6  A    between atoms: C8_8  and  O1_9
REMARK    7  A    between atoms: C16_19  and  O3_20
ROOT
HETATM    1  C5  UNL     1     -34.006  29.561  -0.553  1.00  0.00     0.233 C
HETATM    2  O2  UNL     1     -33.141  30.513  -1.027  1.00  0.00    -0.337 OA
HETATM    3  C14 UNL     1     -33.062  31.442  -0.014  1.00  0.00     0.157 C
HETATM    4  C15 UNL     1     -33.140  32.865  -0.521  1.00  0.00     0.066 C
HETATM    5  C16 UNL     1     -34.547  33.334  -0.277  1.00  0.00     0.123 C
HETATM    6  C17 UNL     1     -35.104  32.448   0.825  1.00  0.00     0.066 C
HETATM    7  C18 UNL     1     -34.280  31.199   0.824  1.00  0.00     0.157 C
HETATM    8  O4  UNL     1     -35.019  30.203   0.148  1.00  0.00    -0.337 OA
ENDROOT
BRANCH   1   9
HETATM    9  C4  UNL     1     -33.358  28.581   0.406  1.00  0.00     0.083 C
BRANCH   9  10
HETATM   10  C3  UNL     1     -32.281  27.854  -0.385  1.00  0.00     0.006 C
BRANCH  10  11
HETATM   11  C2  UNL     1     -30.901  28.138   0.172  1.00  0.00    -0.004 C
HETATM   12  C1  UNL     1     -30.085  26.877  -0.008  1.00  0.00     0.005 C
ENDBRANCH  10  11
ENDBRANCH   9  10
ENDBRANCH   1   9
BRANCH   1  13
HETATM   13  C6  UNL     1     -34.656  28.794  -1.625  1.00  0.00    -0.035 C
HETATM   14  C7  UNL     1     -35.189  28.179  -2.517  1.00  0.00    -0.063 C
BRANCH  14  15
HETATM   15  C8  UNL     1     -35.836  27.457  -3.609  1.00  0.00     0.121 C
HETATM   16  C9  UNL     1     -36.672  26.363  -3.013  1.00  0.00     0.051 C
HETATM   17  C10 UNL     1     -37.279  25.488  -4.054  1.00  0.00     0.004 C
HETATM   18  C11 UNL     1     -36.766  25.614  -5.421  1.00  0.00     0.000 C
HETATM   19  C12 UNL     1     -35.417  26.169  -5.630  1.00  0.00     0.004 C
HETATM   20  C13 UNL     1     -34.767  26.781  -4.432  1.00  0.00     0.051 C
BRANCH  15  21
HETATM   21  O1  UNL     1     -36.615  28.277  -4.405  1.00  0.00    -0.378 OA
ATOM     22  H1  UNL     1     -36.275  28.365  -5.287  1.00  0.00     0.211 HD
ENDBRANCH  15  21
ENDBRANCH  14  15
ENDBRANCH   1  13
BRANCH   5  23
HETATM   23  O3  UNL     1     -34.601  34.644   0.198  1.00  0.00    -0.395 OA
ATOM     24  H3  UNL     1     -34.311  34.718   1.099  1.00  0.00     0.210 HD
ENDBRANCH   5  23
TORSDOF 7
ENDMDL