MODEL 3
REMARK VINA RESULT: -7.206471282      0.523      1.140
REMARK  3 active torsions:
REMARK  status: ('A' for Active; 'I' for Inactive)
REMARK    1  A    between atoms: N1_7  and  C7_8
REMARK    2  A    between atoms: C9_12  and  N3_13
REMARK    3  A    between atoms: N3_13  and  C10_15
ROOT
HETATM    1  C7  UNL     1     -34.912  33.378  -0.401  1.00  0.00     0.683 A
HETATM    2  N2  UNL     1     -34.477  32.246   0.228  1.00  0.00    -0.184 N
ATOM      3  H2  UNL     1     -34.880  31.316   0.110  1.00  0.00     0.184 HD
HETATM    4  C8  UNL     1     -33.443  32.544   1.021  1.00  0.00     0.137 A
HETATM    5  C9  UNL     1     -32.676  31.717   1.856  1.00  0.00     0.134 A
HETATM    6  N4  UNL     1     -31.699  32.320   2.530  1.00  0.00    -0.337 N
ATOM      7  H4  UNL     1     -31.113  31.759   3.149  1.00  0.00     0.168 HD
HETATM    8  C16 UNL     1     -31.447  33.658   2.426  1.00  0.00     0.183 A
HETATM    9  N5  UNL     1     -32.194  34.433   1.620  1.00  0.00    -0.336 N
ATOM     10  H5  UNL     1     -31.999  35.431   1.549  1.00  0.00     0.168 HD
HETATM   11  C17 UNL     1     -33.199  33.893   0.909  1.00  0.00     0.153 A
HETATM   12  N6  UNL     1     -34.103  34.371   0.041  1.00  0.00    -0.174 N
ATOM     13  H6  UNL     1     -34.172  35.348  -0.246  1.00  0.00     0.186 HD
ENDROOT
BRANCH   5  14
HETATM   14  N3  UNL     1     -32.946  30.529   1.911  1.00  0.00    -0.370 N
ATOM     15  H3  UNL     1     -33.667  30.382   2.617  1.00  0.00     0.161 HD
BRANCH  14  16
HETATM   16  C10 UNL     1     -32.607  29.304   1.341  1.00  0.00     0.083 C
HETATM   17  C11 UNL     1     -31.474  29.518   0.326  1.00  0.00     0.025 C
HETATM   18  C12 UNL     1     -30.816  28.193  -0.012  1.00  0.00     0.002 C
HETATM   19  C13 UNL     1     -31.870  27.140  -0.300  1.00  0.00     0.000 C
HETATM   20  C14 UNL     1     -33.206  27.781  -0.554  1.00  0.00     0.002 C
HETATM   21  C15 UNL     1     -33.713  28.571   0.617  1.00  0.00     0.025 C
ENDBRANCH  14  16
ENDBRANCH   5  14
BRANCH   1  22
HETATM   22  N1  UNL     1     -35.977  33.510  -1.322  1.00  0.00    -0.209 N
HETATM   23  C2  UNL     1     -37.360  33.743  -0.988  1.00  0.00     0.042 C
HETATM   24  C1  UNL     1     -38.199  32.493  -1.149  1.00  0.00     0.039 C
HETATM   25  C3  UNL     1     -37.513  34.327   0.401  1.00  0.00     0.039 C
HETATM   26  C4  UNL     1     -37.805  34.728  -2.041  1.00  0.00     0.032 C
HETATM   27  C5  UNL     1     -37.097  34.173  -3.275  1.00  0.00     0.023 C
HETATM   28  C6  UNL     1     -35.897  33.437  -2.760  1.00  0.00     0.142 C
ENDBRANCH   1  22
TORSDOF 3
ENDMDL