MODEL 2
REMARK VINA RESULT: -7.794990036      0.791      1.300
REMARK  4 active torsions:
REMARK  status: ('A' for Active; 'I' for Inactive)
REMARK    1  A    between atoms: C6_6  and  N1_7
REMARK    2  A    between atoms: N1_7  and  C7_9
REMARK    3  A    between atoms: C9_15  and  N4_16
REMARK    4  A    between atoms: N4_16  and  N5_18
ROOT
HETATM    1  C7  UNL     1     -33.343  32.309  -0.064  1.00  0.00     0.693 A
HETATM    2  N2  UNL     1     -34.522  32.838  -0.448  1.00  0.00    -0.187 N
ATOM      3  H2  UNL     1     -35.240  32.227  -0.839  1.00  0.00     0.185 HD
HETATM    4  C8  UNL     1     -34.771  34.154  -0.327  1.00  0.00     0.215 A
HETATM    5  N3  UNL     1     -33.860  35.001   0.181  1.00  0.00    -0.185 N
ATOM      6  H3  UNL     1     -34.058  35.998   0.270  1.00  0.00     0.185 HD
HETATM    7  C9  UNL     1     -32.678  34.488   0.569  1.00  0.00     0.712 A
HETATM    8  N6  UNL     1     -32.441  33.170   0.443  1.00  0.00    -0.021 N
ATOM      9  H6  UNL     1     -31.537  32.808   0.745  1.00  0.00     0.203 HD
ENDROOT
BRANCH   7  10
HETATM   10  N4  UNL     1     -31.773  35.287   1.066  1.00  0.00    -0.132 N
ATOM     11  H4  UNL     1     -31.431  36.074   0.515  1.00  0.00     0.205 HD
BRANCH  10  12
HETATM   12  N5  UNL     1     -31.273  35.066   2.345  1.00  0.00    -0.295 N
HETATM   13  C10 UNL     1     -31.082  36.046   3.169  1.00  0.00     0.004 C
HETATM   14  C11 UNL     1     -31.401  37.421   2.737  1.00  0.00     0.054 C
HETATM   15  C15 UNL     1     -30.546  35.703   4.509  1.00  0.00     0.054 C
HETATM   16  C12 UNL     1     -31.883  38.304   3.841  1.00  0.00     0.006 C
HETATM   17  C13 UNL     1     -31.600  37.779   5.215  1.00  0.00     0.001 C
HETATM   18  C14 UNL     1     -30.291  37.017   5.229  1.00  0.00     0.006 C
ATOM     19  H5  UNL     1     -31.053  34.115   2.640  1.00  0.00     0.186 HD
ENDBRANCH  10  12
ENDBRANCH   7  10
BRANCH   1  20
HETATM   20  N1  UNL     1     -33.063  31.053  -0.163  1.00  0.00    -0.221 N
ATOM     21  H1  UNL     1     -32.609  30.675  -0.994  1.00  0.00     0.178 HD
BRANCH  20  22
HETATM   22  C6  UNL     1     -33.421  30.202   0.954  1.00  0.00     0.099 C
HETATM   23  C5  UNL     1     -33.499  28.746   0.497  1.00  0.00     0.026 C
HETATM   24  C4  UNL     1     -32.293  28.498  -0.366  1.00  0.00     0.002 C
HETATM   25  C3  UNL     1     -31.033  29.109   0.148  1.00  0.00     0.004 C
HETATM   26  C2  UNL     1     -31.071  29.567   1.566  1.00  0.00    -0.017 C
HETATM   27  C1  UNL     1     -29.932  30.571   1.770  1.00  0.00     0.010 C
HETATM   28  C16 UNL     1     -32.326  30.215   2.003  1.00  0.00     0.030 C
ENDBRANCH  20  22
ENDBRANCH   1  20
TORSDOF 4
ENDMDL