MODEL 2
REMARK VINA RESULT: -6.235744832      2.898      5.500
REMARK  2 active torsions:
REMARK  status: ('A' for Active; 'I' for Inactive)
REMARK    1  A    between atoms: C16_20  and  C17_21
REMARK    2  A    between atoms: C17_21  and  O3_22
ROOT
HETATM    1  O1  UNL     1     -34.258  28.125   0.732  1.00  0.00    -0.273 OA
HETATM    2  C1  UNL     1     -34.308  29.050  -0.078  1.00  0.00     0.227 C
HETATM    3  N1  UNL     1     -34.146  30.383   0.491  1.00  0.00    -0.329 N
ATOM      4  H1  UNL     1     -33.794  30.476   1.444  1.00  0.00     0.165 HD
HETATM    5  C2  UNL     1     -34.468  31.567  -0.251  1.00  0.00     0.137 C
HETATM    6  C3  UNL     1     -35.164  32.513   0.740  1.00  0.00     0.061 C
HETATM    7  C4  UNL     1     -35.648  33.753   0.025  1.00  0.00     0.005 C
HETATM    8  C5  UNL     1     -34.419  34.498  -0.460  1.00  0.00     0.000 C
HETATM    9  C6  UNL     1     -33.639  33.584  -1.356  1.00  0.00     0.005 C
HETATM   10  C7  UNL     1     -33.193  32.320  -0.666  1.00  0.00     0.061 C
HETATM   11  O2  UNL     1     -35.196  31.378  -1.376  1.00  0.00    -0.355 OA
HETATM   12  C8  UNL     1     -35.594  30.143  -1.713  1.00  0.00     0.138 C
HETATM   13  C9  UNL     1     -36.750  29.563  -0.934  1.00  0.00     0.033 C
HETATM   14  C10 UNL     1     -37.245  28.403  -1.701  1.00  0.00     0.008 C
HETATM   15  C11 UNL     1     -36.267  27.505  -2.365  1.00  0.00    -0.003 C
HETATM   16  C12 UNL     1     -36.794  27.302  -3.749  1.00  0.00     0.005 C
HETATM   17  C13 UNL     1     -35.939  26.604  -4.719  1.00  0.00     0.000 C
HETATM   18  C14 UNL     1     -34.563  27.138  -4.708  1.00  0.00     0.001 C
HETATM   19  C15 UNL     1     -34.206  28.081  -3.650  1.00  0.00     0.013 C
HETATM   20  C16 UNL     1     -34.812  27.841  -2.258  1.00  0.00    -0.001 C
HETATM   21  C18 UNL     1     -34.501  29.085  -1.518  1.00  0.00     0.118 C
ENDROOT
BRANCH  20  22
HETATM   22  C17 UNL     1     -33.965  26.725  -1.694  1.00  0.00     0.175 C
BRANCH  22  23
HETATM   23  O3  UNL     1     -34.692  25.498  -1.677  1.00  0.00    -0.400 OA
ATOM     24  H3  UNL     1     -34.708  25.129  -0.802  1.00  0.00     0.209 HD
ENDBRANCH  22  23
ENDBRANCH  20  22
TORSDOF 2
ENDMDL