MODEL 1
REMARK VINA RESULT: -7.480400066      0.000      0.000
REMARK  3 active torsions:
REMARK  status: ('A' for Active; 'I' for Inactive)
REMARK    1  A    between atoms: C2_2  and  O1_4
REMARK    2  A    between atoms: O1_4  and  C4_5
REMARK    3  A    between atoms: C18_22  and  N2_24
ROOT
HETATM    1  C4  UNL     1     -33.166  27.858  -0.844  1.00  0.00     0.153 C
HETATM    2  C5  UNL     1     -31.693  27.772  -0.907  1.00  0.00     0.034 C
HETATM    3  C6  UNL     1     -31.158  28.157   0.477  1.00  0.00     0.009 C
HETATM    4  C7  UNL     1     -32.272  29.007   1.029  1.00  0.00     0.021 C
HETATM    5  C8  UNL     1     -32.183  30.373   0.374  1.00  0.00     0.049 C
HETATM    6  C9  UNL     1     -33.615  30.784   0.293  1.00  0.00     0.167 C
HETATM    7  N1  UNL     1     -34.429  29.593   0.340  1.00  0.00    -0.056 N
ATOM      8  H11 UNL     1     -35.051  29.508  -0.464  1.00  0.00     0.278 HD
ATOM      9  H12 UNL     1     -35.146  29.634   1.064  1.00  0.00     0.278 HD
HETATM   10  C10 UNL     1     -33.553  28.465   0.489  1.00  0.00     0.219 C
HETATM   11  C11 UNL     1     -33.959  31.808   1.353  1.00  0.00     0.057 C
HETATM   12  C12 UNL     1     -32.959  31.990   2.404  1.00  0.00    -0.023 C
HETATM   13  C13 UNL     1     -32.253  33.091   2.540  1.00  0.00    -0.030 C
HETATM   14  C14 UNL     1     -32.415  34.240   1.636  1.00  0.00     0.027 C
HETATM   15  C15 UNL     1     -32.872  33.807   0.256  1.00  0.00     0.016 C
HETATM   16  C16 UNL     1     -34.018  32.856   0.304  1.00  0.00     0.001 C
HETATM   17  C17 UNL     1     -35.328  33.619   0.343  1.00  0.00     0.018 C
HETATM   18  C18 UNL     1     -33.968  31.779  -0.760  1.00  0.00     0.161 C
HETATM   19  C19 UNL     1     -35.339  31.616  -1.391  1.00  0.00     0.049 C
ENDROOT
BRANCH  18  20
HETATM   20  N2  UNL     1     -32.904  31.984  -1.706  1.00  0.00    -0.068 N
ATOM     21  H23 UNL     1     -32.238  31.213  -1.681  1.00  0.00     0.275 HD
ATOM     22  H22 UNL     1     -33.240  31.879  -2.664  1.00  0.00     0.275 HD
ATOM     23  H21 UNL     1     -32.433  32.880  -1.579  1.00  0.00     0.275 HD
ENDBRANCH  18  20
BRANCH   1  24
HETATM   24  O1  UNL     1     -33.870  26.713  -1.015  1.00  0.00    -0.379 OA
BRANCH  24  25
HETATM   25  C2  UNL     1     -34.335  26.450  -2.279  1.00  0.00     0.114 C
HETATM   26  C1  UNL     1     -34.464  27.791  -2.992  1.00  0.00     0.039 C
HETATM   27  C3  UNL     1     -35.746  25.904  -2.146  1.00  0.00     0.039 C
ENDBRANCH  24  25
ENDBRANCH   1  24
TORSDOF 3
ENDMDL