MODEL 5
REMARK VINA RESULT: -6.858439662      3.508      4.796
REMARK  1 active torsions:
REMARK  status: ('A' for Active; 'I' for Inactive)
REMARK       I    between atoms: C1_4  and  N3_6
REMARK       I    between atoms: C2_8  and  N4_9
REMARK       I    between atoms: C2_8  and  N5_13
REMARK    1  A    between atoms: N4_9  and  O1_11
ROOT
HETATM    1  N1  UNL     1       0.825  69.713  68.045  1.00  0.00    -0.373 N
ATOM      2  H11 UNL     1       0.497  70.280  67.264  1.00  0.00     0.158 HD
ATOM      3  H12 UNL     1       0.442  69.893  68.973  1.00  0.00     0.158 HD
HETATM    4  C1  UNL     1       1.714  68.773  67.884  1.00  0.00     0.200 C
HETATM    5  N2  UNL     1       2.170  67.983  68.972  1.00  0.00    -0.063 NA
HETATM    6  N3  UNL     1       2.248  68.521  66.591  1.00  0.00    -0.162 N
ATOM      7  H3  UNL     1       2.953  69.147  66.202  1.00  0.00     0.187 HD
HETATM    8  C2  UNL     1       1.847  67.516  65.918  1.00  0.00     0.702 C
HETATM    9  N4  UNL     1       0.859  66.632  66.454  1.00  0.00    -0.099 N
ATOM     10  H4  UNL     1       0.866  66.409  67.449  1.00  0.00     0.213 HD
HETATM   11  N5  UNL     1       2.354  67.231  64.631  1.00  0.00    -0.216 N
HETATM   12  C3  UNL     1       2.684  65.852  64.321  1.00  0.00     0.141 C
HETATM   13  C4  UNL     1       4.170  65.866  63.936  1.00  0.00     0.020 C
HETATM   14  C5  UNL     1       4.231  66.619  62.619  1.00  0.00     0.003 C
HETATM   15  C6  UNL     1       3.902  68.070  62.920  1.00  0.00     0.020 C
HETATM   16  C7  UNL     1       2.566  68.224  63.601  1.00  0.00     0.141 C
ENDROOT
BRANCH   9  17
HETATM   17  O1  UNL     1      -0.088  66.088  65.651  1.00  0.00    -0.276 OA
ATOM     18  H1  UNL     1      -0.942  66.497  65.565  1.00  0.00     0.245 HD
ENDBRANCH   9  17
TORSDOF 1
ENDMDL