MODEL 5
REMARK VINA RESULT: -7.284280240      1.582      3.554
REMARK  3 active torsions:
REMARK  status: ('A' for Active; 'I' for Inactive)
REMARK    1  A    between atoms: N1_1  and  C1_5
REMARK    2  A    between atoms: C3_7  and  N2_8
REMARK    3  A    between atoms: C10_18  and  N3_19
ROOT
HETATM    1  C1  UNL     1       2.196  67.267  63.437  1.00  0.00     0.221 C
HETATM    2  C2  UNL     1       3.206  68.308  63.207  1.00  0.00     0.073 C
HETATM    3  C3  UNL     1       4.467  68.217  63.979  1.00  0.00     0.126 C
HETATM    4  C4  UNL     1       5.034  66.846  64.114  1.00  0.00     0.043 C
HETATM    5  C5  UNL     1       4.543  66.061  65.273  1.00  0.00    -0.009 C
HETATM    6  C6  UNL     1       4.469  66.823  66.563  1.00  0.00     0.009 C
HETATM    7  C7  UNL     1       3.605  68.047  66.320  1.00  0.00    -0.009 C
HETATM    8  C8  UNL     1       4.332  68.913  65.327  1.00  0.00     0.043 C
HETATM    9  C9  UNL     1       2.230  67.666  65.904  1.00  0.00     0.045 C
HETATM   10  C10 UNL     1       2.158  66.664  64.799  1.00  0.00     0.152 C
HETATM   11  C11 UNL     1       3.168  65.535  64.962  1.00  0.00     0.045 C
ENDROOT
BRANCH   1  12
HETATM   12  N1  UNL     1       0.876  67.837  63.115  1.00  0.00    -0.072 N
ATOM     13  H13 UNL     1       0.740  67.977  62.115  1.00  0.00     0.274 HD
ATOM     14  H12 UNL     1       0.115  67.176  63.266  1.00  0.00     0.274 HD
ATOM     15  H11 UNL     1       0.765  68.696  63.652  1.00  0.00     0.274 HD
ENDBRANCH   1  12
BRANCH  10  16
HETATM   16  N3  UNL     1       0.846  66.005  64.940  1.00  0.00    -0.068 N
ATOM     17  H33 UNL     1       0.254  66.436  65.650  1.00  0.00     0.275 HD
ATOM     18  H32 UNL     1       0.229  66.165  64.143  1.00  0.00     0.275 HD
ATOM     19  H31 UNL     1       1.027  65.017  65.114  1.00  0.00     0.275 HD
ENDBRANCH  10  16
BRANCH   3  20
HETATM   20  N2  UNL     1       5.472  69.007  63.244  1.00  0.00    -0.070 N
ATOM     21  H23 UNL     1       6.402  68.966  63.663  1.00  0.00     0.275 HD
ATOM     22  H22 UNL     1       5.720  68.604  62.341  1.00  0.00     0.275 HD
ATOM     23  H21 UNL     1       5.105  69.956  63.174  1.00  0.00     0.275 HD
ENDBRANCH   3  20
TORSDOF 3
ENDMDL