MODEL 3
REMARK VINA RESULT: -5.922889422      0.057      1.256
REMARK  3 active torsions:
REMARK  status: ('A' for Active; 'I' for Inactive)
REMARK    1  A    between atoms: C2_2  and  N1_5
REMARK       I    between atoms: C5_7  and  N3_9
REMARK    2  A    between atoms: N3_9  and  S1_11
REMARK    3  A    between atoms: S1_11  and  N4_13
ROOT
HETATM    1  N1  UNL     1       2.454  66.319  65.917  1.00  0.00    -0.356 N
ATOM      2  H1  UNL     1       2.334  65.560  66.588  1.00  0.00     0.163 HD
HETATM    3  C5  UNL     1       1.422  66.854  65.374  1.00  0.00     0.197 C
HETATM    4  N2  UNL     1       1.512  67.911  64.434  1.00  0.00    -0.063 NA
HETATM    5  N3  UNL     1       0.156  66.337  65.755  1.00  0.00    -0.275 N
ATOM      6  H3  UNL     1       0.012  65.338  65.902  1.00  0.00     0.179 HD
ENDROOT
BRANCH   1   7
HETATM    7  C2  UNL     1       3.769  66.773  65.596  1.00  0.00     0.021 C
HETATM    8  C1  UNL     1       4.046  66.404  64.154  1.00  0.00     0.037 C
HETATM    9  C3  UNL     1       4.801  66.130  66.524  1.00  0.00     0.037 C
HETATM   10  C4  UNL     1       3.846  68.264  65.812  1.00  0.00     0.037 C
ENDBRANCH   1   7
BRANCH   5  11
HETATM   11  S1  UNL     1      -1.009  67.369  65.938  1.00  0.00     0.102 S
HETATM   12  C6  UNL     1      -2.368  66.553  66.693  1.00  0.00     0.160 C
HETATM   13  O1  UNL     1      -0.473  68.498  66.769  1.00  0.00    -0.229 OA
BRANCH  11  14
HETATM   14  N4  UNL     1      -1.387  67.972  64.368  1.00  0.00    -0.345 N
ATOM     15  H42 UNL     1      -0.741  68.449  63.740  1.00  0.00     0.167 HD
ATOM     16  H41 UNL     1      -2.370  67.758  64.202  1.00  0.00     0.167 HD
ENDBRANCH  11  14
ENDBRANCH   5  11
TORSDOF 3
ENDMDL