MODEL 2
REMARK VINA RESULT: -7.371256234      2.111      4.073
REMARK  0 active torsions:
REMARK  status: ('A' for Active; 'I' for Inactive)
ROOT
HETATM    1  C1  UNL     1       2.258  68.442  68.487  1.00  0.00     0.004 C
HETATM    2  C2  UNL     1       2.475  67.019  68.851  1.00  0.00     0.033 C
HETATM    3  C3  UNL     1       2.558  66.097  67.610  1.00  0.00     0.192 C
HETATM    4  N1  UNL     1       1.218  66.403  67.056  1.00  0.00    -0.064 N
ATOM      5  H11 UNL     1       0.498  66.403  67.778  1.00  0.00     0.278 HD
ATOM      6  H12 UNL     1       0.859  65.638  66.486  1.00  0.00     0.278 HD
HETATM    7  C4  UNL     1       1.250  67.675  66.311  1.00  0.00     0.219 C
HETATM    8  C5  UNL     1       1.331  68.734  67.335  1.00  0.00     0.035 C
HETATM    9  C6  UNL     1       2.103  67.683  65.122  1.00  0.00     0.249 C
HETATM   10  N2  UNL     1       3.306  68.494  65.068  1.00  0.00    -0.038 N
ATOM     11  H21 UNL     1       3.540  68.898  65.974  1.00  0.00     0.280 HD
ATOM     12  H22 UNL     1       3.163  69.364  64.554  1.00  0.00     0.280 HD
HETATM   13  C7  UNL     1       4.378  67.719  64.528  1.00  0.00     0.384 C
HETATM   14  C8  UNL     1       5.454  67.239  65.485  1.00  0.00     0.063 C
HETATM   15  C9  UNL     1       4.906  66.139  66.444  1.00  0.00     0.012 C
HETATM   16  C10 UNL     1       3.510  66.557  66.608  1.00  0.00     0.049 C
HETATM   17  C11 UNL     1       2.865  66.343  65.251  1.00  0.00     0.227 C
HETATM   18  N3  UNL     1       3.737  66.447  64.132  1.00  0.00    -0.039 N
ATOM     19  H31 UNL     1       4.351  65.654  63.946  1.00  0.00     0.280 HD
ATOM     20  H32 UNL     1       3.312  66.408  63.206  1.00  0.00     0.280 HD
ENDROOT
TORSDOF 0
ENDMDL