MODEL 2
REMARK VINA RESULT: -6.343481130      2.106      2.268
REMARK  2 active torsions:
REMARK  status: ('A' for Active; 'I' for Inactive)
REMARK    1  A    between atoms: C3_3  and  N1_5
REMARK    2  A    between atoms: N1_5  and  C4_7
ROOT
HETATM    1  C1  UNL     1       4.511  68.868  64.870  1.00  0.00     0.020 C
HETATM    2  C2  UNL     1       3.961  68.329  65.794  1.00  0.00    -0.048 C
HETATM    3  C3  UNL     1       3.321  67.680  66.910  1.00  0.00     0.156 C
HETATM    4  S1  UNL     1       3.731  66.120  67.199  1.00  0.00    -0.050 SA
ENDROOT
BRANCH   3   5
HETATM    5  N1  UNL     1       2.385  68.295  67.747  1.00  0.00    -0.319 N
ATOM      6  H1  UNL     1       2.669  68.579  68.685  1.00  0.00     0.169 HD
BRANCH   5   7
HETATM    7  C4  UNL     1       1.146  68.519  67.360  1.00  0.00     0.168 A
HETATM    8  N2  UNL     1       0.329  69.497  67.752  1.00  0.00    -0.278 N
HETATM    9  N3  UNL     1      -0.856  69.543  67.250  1.00  0.00    -0.278 N
ATOM     10  H2  UNL     1       0.635  70.193  68.432  1.00  0.00     0.189 HD
HETATM   11  C5  UNL     1      -1.215  68.616  66.364  1.00  0.00     0.160 A
ATOM     12  H3  UNL     1      -1.509  70.277  67.526  1.00  0.00     0.189 HD
HETATM   13  N4  UNL     1      -2.369  68.495  65.746  1.00  0.00    -0.379 N
HETATM   14  S2  UNL     1       0.186  67.655  66.251  1.00  0.00    -0.015 SA
ATOM     15  H42 UNL     1      -3.208  69.071  65.814  1.00  0.00     0.158 HD
ATOM     16  H41 UNL     1      -2.644  67.785  65.068  1.00  0.00     0.158 HD
ENDBRANCH   5   7
ENDBRANCH   3   5
TORSDOF 2
ENDMDL