MODEL 4
REMARK VINA RESULT: -7.351001784      4.456      6.610
REMARK  2 active torsions:
REMARK  status: ('A' for Active; 'I' for Inactive)
REMARK    1  A    between atoms: C2_2  and  N1_3
REMARK    2  A    between atoms: N2_11  and  N3_13
ROOT
HETATM    1  C1  UNL     1       1.225  61.272  70.985  1.00  0.00     0.090 C
HETATM    2  C2  UNL     1       1.940  61.795  69.791  1.00  0.00     0.091 C
HETATM    3  N2  UNL     1       2.599  60.945  69.068  1.00  0.00    -0.287 N
ATOM      4  H2  UNL     1       3.097  61.284  68.244  1.00  0.00     0.188 HD
ENDROOT
BRANCH   2   5
HETATM    5  N1  UNL     1       1.866  63.163  69.513  1.00  0.00    -0.352 N
HETATM    6  C3  UNL     1       2.855  63.970  69.469  1.00  0.00    -0.012 C
HETATM    7  C4  UNL     1       2.645  65.400  69.162  1.00  0.00     0.052 C
HETATM    8  C8  UNL     1       4.212  63.427  69.733  1.00  0.00     0.052 C
HETATM    9  C5  UNL     1       3.640  65.916  68.146  1.00  0.00     0.006 C
HETATM   10  C6  UNL     1       4.890  65.090  68.082  1.00  0.00     0.001 C
HETATM   11  C7  UNL     1       5.196  64.543  69.454  1.00  0.00     0.006 C
ATOM     12  H1  UNL     1       0.940  63.552  69.330  1.00  0.00     0.166 HD
ENDBRANCH   2   5
BRANCH   3  13
HETATM   13  N3  UNL     1       2.654  59.589  69.373  1.00  0.00    -0.275 N
HETATM   14  C9  UNL     1       3.730  59.041  69.878  1.00  0.00     0.215 C
HETATM   15  N4  UNL     1       4.894  59.794  70.143  1.00  0.00    -0.065 NA
HETATM   16  N5  UNL     1       3.726  57.651  70.170  1.00  0.00    -0.065 NA
ATOM     17  H3  UNL     1       1.835  59.007  69.199  1.00  0.00     0.189 HD
ENDBRANCH   3  13
TORSDOF 2
ENDMDL