MODEL 5
REMARK VINA RESULT: -6.855140576      1.395      1.906
REMARK  0 active torsions:
REMARK  status: ('A' for Active; 'I' for Inactive)
ROOT
HETATM    1  O1  UNL     1       1.173  66.497  66.936  1.00  0.00    -0.274 OA
HETATM    2  C1  UNL     1       2.336  66.231  66.515  1.00  0.00     0.217 C
HETATM    3  C2  UNL     1       3.429  66.927  67.242  1.00  0.00     0.104 C
HETATM    4  C3  UNL     1       4.501  67.456  66.331  1.00  0.00     0.036 C
HETATM    5  C4  UNL     1       3.997  68.658  65.552  1.00  0.00     0.232 C
HETATM    6  N1  UNL     1       5.009  69.156  64.669  1.00  0.00    -0.074 N
ATOM      7  H11 UNL     1       5.932  68.787  64.897  1.00  0.00     0.277 HD
ATOM      8  H12 UNL     1       5.201  70.145  64.826  1.00  0.00     0.277 HD
HETATM    9  C5  UNL     1       4.642  68.887  63.296  1.00  0.00     0.259 C
HETATM   10  C6  UNL     1       5.536  67.833  62.714  1.00  0.00     0.259 C
HETATM   11  N2  UNL     1       4.862  67.015  61.751  1.00  0.00    -0.074 N
ATOM     12  H21 UNL     1       5.252  67.156  60.820  1.00  0.00     0.277 HD
ATOM     13  H22 UNL     1       3.913  67.353  61.590  1.00  0.00     0.277 HD
HETATM   14  C7  UNL     1       4.852  65.608  62.095  1.00  0.00     0.232 C
HETATM   15  C8  UNL     1       3.706  65.271  63.016  1.00  0.00     0.029 C
HETATM   16  C9  UNL     1       4.144  64.190  63.966  1.00  0.00     0.021 C
HETATM   17  C10 UNL     1       3.566  64.324  65.339  1.00  0.00     0.122 C
HETATM   18  N3  UNL     1       2.542  65.337  65.437  1.00  0.00    -0.361 N
ATOM     19  H3  UNL     1       1.900  65.418  64.648  1.00  0.00     0.162 HD
ENDROOT
TORSDOF 0
ENDMDL