MODEL 1
REMARK VINA RESULT: -6.856753280      0.000      0.000
REMARK  1 active torsions:
REMARK  status: ('A' for Active; 'I' for Inactive)
REMARK    1  A    between atoms: C2_2  and  N1_5
REMARK       I    between atoms: N1_5  and  C5_7
REMARK       I    between atoms: C5_7  and  N3_11
ROOT
HETATM    1  N1  UNL     1       2.829  68.353  66.718  1.00  0.00    -0.218 N
ATOM      2  H1  UNL     1       3.408  69.180  66.573  1.00  0.00     0.178 HD
HETATM    3  C5  UNL     1       2.968  67.244  65.821  1.00  0.00     0.670 C
HETATM    4  N2  UNL     1       2.308  66.163  66.048  1.00  0.00    -0.235 N
ATOM      5  H21 UNL     1       2.407  65.374  65.409  1.00  0.00     0.174 HD
ATOM      6  H22 UNL     1       1.703  66.133  66.869  1.00  0.00     0.174 HD
HETATM    7  N3  UNL     1       3.805  67.285  64.686  1.00  0.00    -0.217 N
HETATM    8  C6  UNL     1       3.230  66.964  63.390  1.00  0.00     0.143 C
HETATM    9  C7  UNL     1       3.524  68.083  62.441  1.00  0.00     0.048 C
HETATM   10  C8  UNL     1       4.999  68.035  62.097  1.00  0.00     0.234 C
HETATM   11  N4  UNL     1       5.770  68.968  62.868  1.00  0.00    -0.074 N
ATOM     12  H41 UNL     1       5.691  69.905  62.473  1.00  0.00     0.277 HD
ATOM     13  H42 UNL     1       6.767  68.803  62.732  1.00  0.00     0.277 HD
HETATM   14  C9  UNL     1       5.456  68.989  64.264  1.00  0.00     0.252 C
HETATM   15  C10 UNL     1       5.203  67.649  64.866  1.00  0.00     0.168 C
ENDROOT
BRANCH   1  16
HETATM   16  C2  UNL     1       1.910  68.339  67.804  1.00  0.00     0.036 C
HETATM   17  C1  UNL     1       2.231  67.261  68.825  1.00  0.00     0.038 C
HETATM   18  C3  UNL     1       0.462  68.214  67.341  1.00  0.00     0.038 C
HETATM   19  C4  UNL     1       1.990  69.666  68.532  1.00  0.00     0.038 C
ENDBRANCH   1  16
TORSDOF 1
ENDMDL