MODEL 2
REMARK VINA RESULT: -7.159691541      2.283      3.261
REMARK  5 active torsions:
REMARK  status: ('A' for Active; 'I' for Inactive)
REMARK    1  A    between atoms: C4_4  and  C5_5
REMARK    2  A    between atoms: C6_6  and  C7_7
REMARK    3  A    between atoms: C7_7  and  N3_13
REMARK    4  A    between atoms: N1_8  and  N2_10
REMARK    5  A    between atoms: N3_13  and  C8_15
ROOT
HETATM    1  C1  UNL     1       5.465  65.703  66.381  1.00  0.00     0.017 C
HETATM    2  C2  UNL     1       5.514  66.714  65.713  1.00  0.00    -0.089 C
HETATM    3  C3  UNL     1       5.579  67.894  64.905  1.00  0.00     0.072 C
HETATM    4  C4  UNL     1       4.629  68.804  64.909  1.00  0.00     0.073 C
ENDROOT
BRANCH   4   5
HETATM    5  C5  UNL     1       3.492  68.593  65.758  1.00  0.00    -0.070 C
HETATM    6  C6  UNL     1       2.527  68.392  66.479  1.00  0.00    -0.025 C
BRANCH   6   7
HETATM    7  C7  UNL     1       1.394  68.132  67.321  1.00  0.00     0.172 C
HETATM    8  N1  UNL     1       1.275  68.749  68.464  1.00  0.00    -0.285 N
ATOM      9  H1  UNL     1       0.460  68.548  69.044  1.00  0.00     0.188 HD
BRANCH   8  10
HETATM   10  N2  UNL     1       2.201  69.661  68.924  1.00  0.00    -0.343 N
ATOM     11  H22 UNL     1       2.536  70.363  68.265  1.00  0.00     0.176 HD
ATOM     12  H21 UNL     1       2.555  69.659  69.880  1.00  0.00     0.176 HD
ENDBRANCH   8  10
BRANCH   7  13
HETATM   13  N3  UNL     1       0.431  67.201  66.873  1.00  0.00    -0.360 N
ATOM     14  H3  UNL     1       0.579  66.207  67.045  1.00  0.00     0.162 HD
BRANCH  13  15
HETATM   15  C8  UNL     1      -0.754  67.627  66.180  1.00  0.00     0.021 C
HETATM   16  C9  UNL     1      -1.869  66.620  66.463  1.00  0.00     0.037 C
HETATM   17  C10 UNL     1      -1.222  68.970  66.688  1.00  0.00     0.037 C
HETATM   18  C11 UNL     1      -0.422  67.682  64.704  1.00  0.00     0.037 C
ENDBRANCH  13  15
ENDBRANCH   7  13
ENDBRANCH   6   7
ENDBRANCH   4   5
TORSDOF 5
ENDMDL