MODEL 4
REMARK VINA RESULT: -6.076189287      2.294      2.573
REMARK  2 active torsions:
REMARK  status: ('A' for Active; 'I' for Inactive)
REMARK       I    between atoms: C1_4  and  N3_6
REMARK    1  A    between atoms: N3_6  and  C2_8
REMARK    2  A    between atoms: C2_8  and  N4_10
ROOT
HETATM    1  C2  UNL     1       2.831  65.087  64.470  1.00  0.00     0.200 C
HETATM    2  S1  UNL     1       3.399  63.532  64.528  1.00  0.00    -0.038 SA
ENDROOT
BRANCH   1   3
HETATM    3  N3  UNL     1       1.415  65.314  64.556  1.00  0.00    -0.306 N
HETATM    4  C1  UNL     1       0.920  66.420  65.285  1.00  0.00     0.188 C
HETATM    5  N1  UNL     1       0.273  67.333  64.656  1.00  0.00    -0.373 N
HETATM    6  N2  UNL     1       1.149  66.493  66.682  1.00  0.00    -0.064 NA
ATOM      7  H12 UNL     1      -0.083  68.131  65.182  1.00  0.00     0.158 HD
ATOM      8  H11 UNL     1       0.109  67.281  63.650  1.00  0.00     0.158 HD
ATOM      9  H3  UNL     1       0.767  64.678  64.091  1.00  0.00     0.171 HD
ENDBRANCH   1   3
BRANCH   1  10
HETATM   10  N4  UNL     1       3.726  66.180  64.337  1.00  0.00    -0.232 N
HETATM   11  C3  UNL     1       4.700  66.391  65.388  1.00  0.00     0.159 C
HETATM   12  C4  UNL     1       5.279  67.792  65.150  1.00  0.00     0.024 C
HETATM   13  C5  UNL     1       4.042  68.657  64.876  1.00  0.00     0.030 C
HETATM   14  C6  UNL     1       3.590  68.293  63.481  1.00  0.00     0.201 C
HETATM   15  O1  UNL     1       3.614  66.952  63.242  1.00  0.00    -0.276 OA
ENDBRANCH   1  10
TORSDOF 2
ENDMDL