MODEL 4
REMARK VINA RESULT: -5.928637128      5.491      7.178
REMARK  4 active torsions:
REMARK  status: ('A' for Active; 'I' for Inactive)
REMARK    1  A    between atoms: C2_2  and  O2_4
REMARK    2  A    between atoms: O2_4  and  C3_5
REMARK    3  A    between atoms: C3_5  and  C5_7
REMARK    4  A    between atoms: C13_15  and  O3_16
ROOT
HETATM    1  C5  UNL     1     -27.297  82.824   8.181  1.00  0.00     0.023 C
HETATM    2  C6  UNL     1     -27.988  83.739   7.153  1.00  0.00     0.009 C
HETATM    3  C7  UNL     1     -27.327  85.057   7.166  1.00  0.00     0.011 C
HETATM    4  C8  UNL     1     -25.911  85.000   6.622  1.00  0.00    -0.027 C
HETATM    5  C9  UNL     1     -25.197  86.130   7.395  1.00  0.00     0.017 C
HETATM    6  C10 UNL     1     -25.838  85.394   5.208  1.00  0.00    -0.014 C
HETATM    7  C11 UNL     1     -27.161  85.931   4.626  1.00  0.00     0.018 C
HETATM    8  C12 UNL     1     -24.892  86.585   4.943  1.00  0.00     0.018 C
HETATM    9  C13 UNL     1     -25.456  84.374   4.195  1.00  0.00     0.126 C
HETATM   10  C14 UNL     1     -24.454  83.374   4.635  1.00  0.00     0.033 C
HETATM   11  C15 UNL     1     -25.042  82.760   5.866  1.00  0.00     0.013 C
HETATM   12  C16 UNL     1     -25.202  83.746   7.035  1.00  0.00    -0.029 C
HETATM   13  C17 UNL     1     -23.763  84.042   7.404  1.00  0.00     0.016 C
HETATM   14  C18 UNL     1     -25.811  82.959   8.171  1.00  0.00    -0.034 C
HETATM   15  C19 UNL     1     -25.186  83.241   9.511  1.00  0.00     0.016 C
HETATM   16  C20 UNL     1     -25.311  81.487   8.011  1.00  0.00     0.016 C
ENDROOT
BRANCH   1  17
HETATM   17  C3  UNL     1     -28.068  82.773   9.428  1.00  0.00     0.132 C
HETATM   18  C4  UNL     1     -28.220  81.515  10.186  1.00  0.00     0.040 C
BRANCH  17  19
HETATM   19  O2  UNL     1     -29.366  83.326   9.379  1.00  0.00    -0.316 OA
BRANCH  19  20
HETATM   20  C2  UNL     1     -30.536  82.591   9.317  1.00  0.00     0.255 C
HETATM   21  C1  UNL     1     -31.128  82.131   8.026  1.00  0.00     0.126 C
HETATM   22  O1  UNL     1     -31.096  82.316  10.412  1.00  0.00    -0.266 OA
ENDBRANCH  19  20
ENDBRANCH  17  19
ENDBRANCH   1  17
BRANCH   9  23
HETATM   23  O3  UNL     1     -26.600  83.678   3.795  1.00  0.00    -0.395 OA
ATOM     24  H3  UNL     1     -26.509  82.764   4.038  1.00  0.00     0.210 HD
ENDBRANCH   9  23
TORSDOF 4
ENDMDL