MODEL 5
REMARK VINA RESULT: -6.752452507      1.613      2.373
REMARK  4 active torsions:
REMARK  status: ('A' for Active; 'I' for Inactive)
REMARK    1  A    between atoms: C3_3  and  C4_4
REMARK    2  A    between atoms: C4_4  and  O2_6
REMARK    3  A    between atoms: O2_6  and  C5_7
REMARK    4  A    between atoms: C10_12  and  O3_13
ROOT
HETATM    1  C5  UNL     1     -25.539  82.618  10.227  1.00  0.00     0.136 C
HETATM    2  C6  UNL     1     -24.450  81.816  10.917  1.00  0.00     0.034 C
HETATM    3  C7  UNL     1     -24.078  82.374  12.260  1.00  0.00     0.014 C
HETATM    4  C8  UNL     1     -22.605  82.772  12.334  1.00  0.00    -0.014 C
HETATM    5  C9  UNL     1     -21.836  81.443  12.392  1.00  0.00     0.018 C
HETATM    6  C10 UNL     1     -22.403  83.441  13.657  1.00  0.00     0.126 C
HETATM    7  C11 UNL     1     -22.175  84.931  13.516  1.00  0.00     0.033 C
HETATM    8  C12 UNL     1     -20.889  85.076  12.721  1.00  0.00     0.011 C
HETATM    9  C13 UNL     1     -20.912  84.350  11.424  1.00  0.00    -0.043 C
HETATM   10  C14 UNL     1     -20.644  85.374  10.327  1.00  0.00     0.015 C
HETATM   11  C15 UNL     1     -19.675  83.438  11.377  1.00  0.00     0.015 C
HETATM   12  C16 UNL     1     -22.139  83.538  11.158  1.00  0.00     0.004 C
HETATM   13  C17 UNL     1     -23.250  84.348  10.477  1.00  0.00     0.007 C
HETATM   14  C18 UNL     1     -23.618  83.819   9.141  1.00  0.00     0.007 C
HETATM   15  C19 UNL     1     -24.955  83.201   8.986  1.00  0.00     0.011 C
HETATM   16  C20 UNL     1     -24.880  82.090   7.954  1.00  0.00     0.012 C
ENDROOT
BRANCH   1  17
HETATM   17  O2  UNL     1     -26.626  81.804  10.091  1.00  0.00    -0.312 OA
BRANCH  17  18
HETATM   18  C4  UNL     1     -27.858  81.895  10.676  1.00  0.00     0.282 C
HETATM   19  O1  UNL     1     -27.768  82.204  11.875  1.00  0.00    -0.260 OA
BRANCH  18  20
HETATM   20  C3  UNL     1     -29.119  81.660   9.981  1.00  0.00     0.077 C
HETATM   21  C2  UNL     1     -29.482  82.495   9.022  1.00  0.00    -0.025 C
HETATM   22  C1  UNL     1     -30.744  82.333   8.265  1.00  0.00     0.036 C
ENDBRANCH  18  20
ENDBRANCH  17  18
ENDBRANCH   1  17
BRANCH   6  23
HETATM   23  O3  UNL     1     -23.450  83.165  14.562  1.00  0.00    -0.395 OA
ATOM     24  H3  UNL     1     -23.212  82.498  15.195  1.00  0.00     0.210 HD
ENDBRANCH   6  23
TORSDOF 4
ENDMDL