MODEL 4
REMARK VINA RESULT: -6.798555534      1.661      6.547
REMARK  4 active torsions:
REMARK  status: ('A' for Active; 'I' for Inactive)
REMARK    1  A    between atoms: C2_2  and  C3_3
REMARK    2  A    between atoms: C10_10  and  O1_12
REMARK    3  A    between atoms: C17_19  and  O2_20
REMARK    4  A    between atoms: O2_20  and  C18_21
ROOT
HETATM    1  C3  UNL     1     -27.043  81.796  10.269  1.00  0.00    -0.040 C
HETATM    2  C4  UNL     1     -27.113  81.701  11.801  1.00  0.00     0.015 C
HETATM    3  C5  UNL     1     -28.418  82.219   9.818  1.00  0.00     0.017 C
HETATM    4  C6  UNL     1     -28.338  82.605   8.392  1.00  0.00     0.025 C
HETATM    5  C7  UNL     1     -27.353  83.716   8.224  1.00  0.00     0.001 C
HETATM    6  C8  UNL     1     -27.539  84.134   6.811  1.00  0.00     0.009 C
HETATM    7  C9  UNL     1     -28.983  83.727   6.477  1.00  0.00     0.038 C
HETATM    8  C10 UNL     1     -29.569  83.270   7.827  1.00  0.00     0.058 C
HETATM    9  C11 UNL     1     -29.970  84.516   8.546  1.00  0.00     0.046 C
HETATM   10  C12 UNL     1     -25.930  83.318   8.569  1.00  0.00    -0.035 C
HETATM   11  C13 UNL     1     -25.456  82.370   7.528  1.00  0.00     0.016 C
HETATM   12  C14 UNL     1     -25.156  84.618   8.524  1.00  0.00     0.010 C
HETATM   13  C15 UNL     1     -23.696  84.480   8.351  1.00  0.00     0.003 C
HETATM   14  C16 UNL     1     -22.983  83.513   9.215  1.00  0.00     0.032 C
HETATM   15  C17 UNL     1     -23.648  83.423  10.550  1.00  0.00     0.132 C
HETATM   16  C20 UNL     1     -24.653  82.266  10.455  1.00  0.00     0.038 C
HETATM   17  C21 UNL     1     -25.982  82.782   9.962  1.00  0.00     0.005 C
ENDROOT
BRANCH  15  18
HETATM   18  O2  UNL     1     -22.693  83.178  11.566  1.00  0.00    -0.316 OA
BRANCH  18  19
HETATM   19  C18 UNL     1     -23.038  83.314  12.907  1.00  0.00     0.255 C
HETATM   20  C19 UNL     1     -22.619  82.341  13.950  1.00  0.00     0.126 C
HETATM   21  O3  UNL     1     -23.742  84.329  13.202  1.00  0.00    -0.266 OA
ENDBRANCH  18  19
ENDBRANCH  15  18
BRANCH   1  22
HETATM   22  C2  UNL     1     -26.748  80.397   9.790  1.00  0.00     0.005 C
HETATM   23  C1  UNL     1     -26.743  79.412  10.941  1.00  0.00     0.006 C
ENDBRANCH   1  22
BRANCH   8  24
HETATM   24  O1  UNL     1     -30.620  82.387   7.635  1.00  0.00    -0.390 OA
ATOM     25  H1  UNL     1     -31.465  82.766   7.847  1.00  0.00     0.210 HD
ENDBRANCH   8  24
TORSDOF 4
ENDMDL