MODEL 4
REMARK VINA RESULT: -6.654245852      3.014      5.424
REMARK  2 active torsions:
REMARK  status: ('A' for Active; 'I' for Inactive)
REMARK    1  A    between atoms: C2_2  and  C3_3
REMARK    2  A    between atoms: C11_13  and  C12_14
ROOT
HETATM    1  C1  UNL     1     -23.870  84.309   5.452  1.00  0.00     0.058 C
HETATM    2  C2  UNL     1     -24.871  83.246   5.918  1.00  0.00     0.145 C
HETATM    3  C4  UNL     1     -25.995  83.257   4.908  1.00  0.00     0.049 C
HETATM    4  C5  UNL     1     -26.924  84.391   5.295  1.00  0.00     0.004 C
HETATM    5  C6  UNL     1     -28.041  83.780   6.126  1.00  0.00     0.012 C
HETATM    6  C7  UNL     1     -27.602  83.752   7.574  1.00  0.00    -0.014 C
HETATM    7  C8  UNL     1     -27.154  85.161   7.937  1.00  0.00     0.018 C
HETATM    8  C9  UNL     1     -26.372  82.878   7.646  1.00  0.00     0.132 C
HETATM    9  C10 UNL     1     -26.101  82.636   9.119  1.00  0.00     0.038 C
HETATM   10  C11 UNL     1     -27.174  81.768   9.730  1.00  0.00     0.003 C
HETATM   11  C13 UNL     1     -28.511  81.994   9.129  1.00  0.00    -0.005 C
HETATM   12  C14 UNL     1     -29.632  81.801  10.131  1.00  0.00     0.005 C
HETATM   13  C15 UNL     1     -30.922  81.665   9.316  1.00  0.00     0.000 C
HETATM   14  C16 UNL     1     -31.171  82.899   8.521  1.00  0.00     0.000 C
HETATM   15  C17 UNL     1     -29.997  83.385   7.736  1.00  0.00     0.006 C
HETATM   16  C18 UNL     1     -28.695  83.340   8.502  1.00  0.00     0.001 C
HETATM   17  O3  UNL     1     -25.255  83.579   7.179  1.00  0.00    -0.363 OA
ENDROOT
BRANCH   2  18
HETATM   18  C3  UNL     1     -24.176  81.947   5.815  1.00  0.00     0.208 C
HETATM   19  O1  UNL     1     -22.955  81.930   6.177  1.00  0.00    -0.646 OA
HETATM   20  O2  UNL     1     -24.754  80.782   5.362  1.00  0.00    -0.646 OA
ENDBRANCH   2  18
BRANCH  10  21
HETATM   21  C12 UNL     1     -27.127  81.983  11.224  1.00  0.00     0.091 C
HETATM   22  S1  UNL     1     -26.595  80.474  12.097  1.00  0.00    -0.097 SA
ENDBRANCH  10  21
TORSDOF 2
ENDMDL