MODEL 1
REMARK VINA RESULT: -8.564758475      0.000      0.000
REMARK  1 active torsions:
REMARK  status: ('A' for Active; 'I' for Inactive)
REMARK    1  A    between atoms: C14_16  and  C15_17
ROOT
HETATM    1  C1  UNL     1     -24.764  82.949   7.047  1.00  0.00     0.018 C
HETATM    2  C2  UNL     1     -25.488  83.186   8.368  1.00  0.00    -0.015 C
HETATM    3  C3  UNL     1     -25.142  84.594   8.807  1.00  0.00     0.012 C
HETATM    4  C4  UNL     1     -23.666  84.843   8.866  1.00  0.00     0.010 C
HETATM    5  C5  UNL     1     -23.209  85.251  10.256  1.00  0.00     0.048 C
HETATM    6  C6  UNL     1     -21.883  85.955  10.086  1.00  0.00     0.195 C
HETATM    7  C7  UNL     1     -21.416  86.597  11.372  1.00  0.00     0.066 C
HETATM    8  C8  UNL     1     -20.539  85.395  11.539  1.00  0.00     0.188 C
HETATM    9  C9  UNL     1     -21.068  84.381  12.501  1.00  0.00     0.036 C
HETATM   10  C10 UNL     1     -22.566  84.240  12.456  1.00  0.00     0.037 C
HETATM   11  C11 UNL     1     -22.969  83.973  11.030  1.00  0.00     0.166 C
HETATM   12  O1  UNL     1     -24.115  83.189  11.062  1.00  0.00    -0.235 OA
HETATM   13  O2  UNL     1     -24.034  82.315  10.088  1.00  0.00    -0.234 OA
HETATM   14  C12 UNL     1     -25.196  82.150   9.389  1.00  0.00     0.168 C
HETATM   15  C13 UNL     1     -26.437  82.248  10.291  1.00  0.00     0.041 C
HETATM   16  C14 UNL     1     -27.505  82.167   9.263  1.00  0.00    -0.007 C
HETATM   17  C21 UNL     1     -26.987  83.101   8.177  1.00  0.00     0.017 C
HETATM   18  N1  UNL     1     -20.762  85.063  10.163  1.00  0.00    -0.066 N
ATOM     19  H11 UNL     1     -19.997  85.163   9.495  1.00  0.00     0.278 HD
ATOM     20  H12 UNL     1     -20.883  84.085   9.899  1.00  0.00     0.278 HD
ENDROOT
BRANCH  16  21
HETATM   21  C15 UNL     1     -28.877  82.517   9.713  1.00  0.00    -0.010 C
HETATM   22  C16 UNL     1     -29.712  81.400  10.201  1.00  0.00     0.005 C
HETATM   23  C17 UNL     1     -31.200  81.645  10.065  1.00  0.00     0.000 C
HETATM   24  C18 UNL     1     -31.600  81.855   8.623  1.00  0.00     0.000 C
HETATM   25  C19 UNL     1     -30.505  82.445   7.797  1.00  0.00     0.000 C
HETATM   26  C20 UNL     1     -29.573  83.301   8.625  1.00  0.00     0.005 C
ENDBRANCH  16  21
TORSDOF 1
ENDMDL