MODEL 4
REMARK VINA RESULT: -6.071992176      3.703      6.659
REMARK  4 active torsions:
REMARK  status: ('A' for Active; 'I' for Inactive)
REMARK    1  A    between atoms: O1_2  and  C2_3
REMARK    2  A    between atoms: C2_3  and  C3_5
REMARK    3  A    between atoms: C3_5  and  C4_6
REMARK    4  A    between atoms: C4_6  and  C5_7
ROOT
HETATM    1  C3  UNL     1     -23.570  87.242   8.930  1.00  0.00     0.060 C
HETATM    2  C9  UNL     1     -24.176  88.382   8.088  1.00  0.00     0.013 C
HETATM    3  C10 UNL     1     -23.645  89.680   8.668  1.00  0.00     0.007 C
HETATM    4  C11 UNL     1     -22.233  89.858   8.099  1.00  0.00     0.011 C
HETATM    5  C12 UNL     1     -22.007  88.420   7.584  1.00  0.00    -0.023 C
HETATM    6  C13 UNL     1     -20.836  88.282   6.745  1.00  0.00     0.062 C
HETATM    7  C14 UNL     1     -19.848  87.265   7.102  1.00  0.00    -0.019 C
HETATM    8  N1  UNL     1     -18.593  87.372   6.885  1.00  0.00    -0.406 N
ATOM      9  H11 UNL     1     -17.903  86.663   7.134  1.00  0.00     0.155 HD
ATOM     10  H12 UNL     1     -18.231  88.212   6.433  1.00  0.00     0.155 HD
HETATM   11  C15 UNL     1     -20.383  86.025   7.769  1.00  0.00     0.056 C
HETATM   12  C16 UNL     1     -21.122  86.493   8.978  1.00  0.00    -0.007 C
HETATM   13  C17 UNL     1     -19.976  86.935   9.925  1.00  0.00     0.011 C
HETATM   14  C18 UNL     1     -22.148  87.540   8.800  1.00  0.00     0.018 C
HETATM   15  C19 UNL     1     -23.351  88.343   6.828  1.00  0.00    -0.035 C
HETATM   16  C20 UNL     1     -23.554  89.651   6.044  1.00  0.00     0.016 C
HETATM   17  C21 UNL     1     -23.509  87.281   5.869  1.00  0.00     0.016 C
ENDROOT
BRANCH   1  18
HETATM   18  C2  UNL     1     -24.165  86.016   8.417  1.00  0.00     0.268 C
HETATM   19  O2  UNL     1     -23.641  84.942   8.078  1.00  0.00    -0.264 OA
BRANCH  18  20
HETATM   20  O1  UNL     1     -25.554  86.046   8.284  1.00  0.00    -0.326 OA
HETATM   21  C1  UNL     1     -26.233  85.248   7.348  1.00  0.00     0.213 C
ENDBRANCH  18  20
ENDBRANCH   1  18
BRANCH   1  22
HETATM   22  C4  UNL     1     -24.111  87.321  10.377  1.00  0.00     0.048 C
BRANCH  22  23
HETATM   23  C5  UNL     1     -23.438  86.337  11.244  1.00  0.00    -0.023 C
HETATM   24  C6  UNL     1     -23.277  86.559  12.521  1.00  0.00    -0.091 C
HETATM   25  C7  UNL     1     -22.598  85.562  13.379  1.00  0.00     0.042 C
HETATM   26  C8  UNL     1     -23.784  87.810  13.133  1.00  0.00     0.042 C
ENDBRANCH  22  23
ENDBRANCH   1  22
TORSDOF 4
ENDMDL