MODEL 2
REMARK VINA RESULT: -7.136937669      4.298      6.707
REMARK  4 active torsions:
REMARK  status: ('A' for Active; 'I' for Inactive)
REMARK    1  A    between atoms: O1_2  and  C2_3
REMARK    2  A    between atoms: C2_3  and  C3_5
REMARK    3  A    between atoms: C3_5  and  C4_6
REMARK    4  A    between atoms: C4_6  and  N1_7
ROOT
HETATM    1  C4  UNL     1     -24.261  85.450   6.169  1.00  0.00     0.132 C
HETATM    2  C5  UNL     1     -24.679  84.077   5.721  1.00  0.00     0.040 C
HETATM    3  C6  UNL     1     -26.169  83.943   5.917  1.00  0.00     0.012 C
HETATM    4  C7  UNL     1     -26.573  83.927   7.365  1.00  0.00    -0.040 C
HETATM    5  C8  UNL     1     -27.975  84.381   7.606  1.00  0.00     0.009 C
HETATM    6  C9  UNL     1     -28.951  84.052   6.548  1.00  0.00     0.001 C
HETATM    7  C10 UNL     1     -30.095  83.179   6.924  1.00  0.00     0.000 C
HETATM    8  C11 UNL     1     -30.796  83.512   8.181  1.00  0.00     0.000 C
HETATM    9  C12 UNL     1     -31.169  82.290   9.018  1.00  0.00     0.000 C
HETATM   10  C13 UNL     1     -30.385  82.245  10.313  1.00  0.00     0.000 C
HETATM   11  C14 UNL     1     -29.167  81.373  10.034  1.00  0.00     0.000 C
HETATM   12  C15 UNL     1     -28.020  81.649  10.951  1.00  0.00     0.000 C
HETATM   13  C16 UNL     1     -26.750  81.380  10.168  1.00  0.00     0.000 C
HETATM   14  C17 UNL     1     -26.238  82.619   9.478  1.00  0.00     0.001 C
HETATM   15  C18 UNL     1     -26.277  82.562   7.991  1.00  0.00     0.009 C
HETATM   16  C19 UNL     1     -25.666  84.895   8.143  1.00  0.00     0.012 C
HETATM   17  C20 UNL     1     -25.198  86.005   7.230  1.00  0.00     0.040 C
ENDROOT
BRANCH   1  18
HETATM   18  C3  UNL     1     -22.850  85.449   6.729  1.00  0.00     0.149 C
BRANCH  18  19
HETATM   19  C2  UNL     1     -22.068  86.608   6.271  1.00  0.00     0.260 C
HETATM   20  O2  UNL     1     -21.289  86.542   5.289  1.00  0.00    -0.265 OA
BRANCH  19  21
HETATM   21  O1  UNL     1     -22.189  87.812   6.940  1.00  0.00    -0.326 OA
HETATM   22  C1  UNL     1     -22.151  89.057   6.240  1.00  0.00     0.213 C
ENDBRANCH  19  21
ENDBRANCH  18  19
ENDBRANCH   1  18
BRANCH   1  23
HETATM   23  N1  UNL     1     -24.291  86.404   5.070  1.00  0.00    -0.070 N
ATOM     24  H13 UNL     1     -25.120  86.998   5.082  1.00  0.00     0.275 HD
ATOM     25  H12 UNL     1     -23.596  87.144   5.166  1.00  0.00     0.275 HD
ATOM     26  H11 UNL     1     -24.193  85.874   4.204  1.00  0.00     0.275 HD
ENDBRANCH   1  23
TORSDOF 4
ENDMDL