MODEL 5
REMARK VINA RESULT: -6.288054268      5.689      7.472
REMARK  5 active torsions:
REMARK  status: ('A' for Active; 'I' for Inactive)
REMARK    1  A    between atoms: S1_2  and  C2_3
REMARK    2  A    between atoms: C2_3  and  C3_7
REMARK    3  A    between atoms: C3_7  and  C4_8
REMARK    4  A    between atoms: C4_8  and  O2_10
REMARK    5  A    between atoms: O2_10  and  C5_11
ROOT
HETATM    1  C3  UNL     1     -25.486  83.802   7.111  1.00  0.00     0.104 C
HETATM    2  C8  UNL     1     -26.435  83.654   5.899  1.00  0.00     0.015 C
HETATM    3  C9  UNL     1     -25.634  83.351   4.657  1.00  0.00     0.007 C
HETATM    4  C10 UNL     1     -24.826  84.618   4.472  1.00  0.00     0.011 C
HETATM    5  C11 UNL     1     -25.296  85.564   5.533  1.00  0.00    -0.032 C
HETATM    6  C12 UNL     1     -25.176  86.987   5.256  1.00  0.00     0.010 C
HETATM    7  C13 UNL     1     -23.886  87.637   5.608  1.00  0.00     0.001 C
HETATM    8  C14 UNL     1     -24.028  88.181   7.034  1.00  0.00     0.000 C
HETATM    9  C15 UNL     1     -23.778  87.033   7.957  1.00  0.00     0.000 C
HETATM   10  C16 UNL     1     -24.969  86.099   7.957  1.00  0.00     0.007 C
HETATM   11  C17 UNL     1     -24.744  85.081   6.855  1.00  0.00     0.020 C
HETATM   12  C18 UNL     1     -26.753  85.118   5.669  1.00  0.00    -0.004 C
HETATM   13  C19 UNL     1     -27.489  85.334   4.368  1.00  0.00     0.011 C
ENDROOT
BRANCH   1  14
HETATM   14  C2  UNL     1     -24.582  82.630   7.118  1.00  0.00     0.059 C
HETATM   15  N1  UNL     1     -24.967  81.458   7.141  1.00  0.00    -0.396 N
ATOM     16  H12 UNL     1     -24.344  80.650   7.146  1.00  0.00     0.156 HD
ATOM     17  H11 UNL     1     -25.968  81.260   7.170  1.00  0.00     0.156 HD
BRANCH  14  18
HETATM   18  S1  UNL     1     -22.804  82.983   7.066  1.00  0.00    -0.120 SA
HETATM   19  C1  UNL     1     -22.190  82.944   8.767  1.00  0.00     0.097 C
ENDBRANCH  14  18
ENDBRANCH   1  14
BRANCH   1  20
HETATM   20  C4  UNL     1     -26.298  83.815   8.360  1.00  0.00     0.275 C
HETATM   21  O1  UNL     1     -25.691  83.626   9.471  1.00  0.00    -0.264 OA
BRANCH  20  22
HETATM   22  O2  UNL     1     -27.640  84.007   8.468  1.00  0.00    -0.316 OA
BRANCH  22  23
HETATM   23  C5  UNL     1     -28.628  83.024   8.371  1.00  0.00     0.123 C
HETATM   24  C6  UNL     1     -29.830  83.645   7.688  1.00  0.00     0.040 C
HETATM   25  C7  UNL     1     -29.094  82.513   9.713  1.00  0.00     0.040 C
ENDBRANCH  22  23
ENDBRANCH  20  22
ENDBRANCH   1  20
TORSDOF 5
ENDMDL