MODEL 3
REMARK VINA RESULT: -6.220140982      2.086      3.082
REMARK  4 active torsions:
REMARK  status: ('A' for Active; 'I' for Inactive)
REMARK    1  A    between atoms: C2_2  and  O2_4
REMARK    2  A    between atoms: O2_4  and  C3_5
REMARK    3  A    between atoms: C3_5  and  C4_6
REMARK    4  A    between atoms: C19_21  and  O3_23
ROOT
HETATM    1  C4  UNL     1     -22.473  83.656  12.178  1.00  0.00    -0.018 C
HETATM    2  C5  UNL     1     -22.191  83.797  13.684  1.00  0.00     0.018 C
HETATM    3  C6  UNL     1     -21.263  83.004  11.595  1.00  0.00     0.012 C
HETATM    4  C7  UNL     1     -20.310  84.052  11.118  1.00  0.00     0.002 C
HETATM    5  C8  UNL     1     -20.928  84.798   9.988  1.00  0.00     0.010 C
HETATM    6  C9  UNL     1     -22.349  85.197  10.192  1.00  0.00    -0.035 C
HETATM    7  C10 UNL     1     -23.192  84.349   9.221  1.00  0.00     0.016 C
HETATM    8  C11 UNL     1     -22.888  84.931  11.561  1.00  0.00     0.004 C
HETATM    9  C12 UNL     1     -22.653  86.058  12.538  1.00  0.00     0.007 C
HETATM   10  C13 UNL     1     -23.110  87.390  11.987  1.00  0.00     0.013 C
HETATM   11  C14 UNL     1     -22.291  87.658  10.746  1.00  0.00    -0.009 C
HETATM   12  C15 UNL     1     -20.870  87.974  11.029  1.00  0.00     0.019 C
HETATM   13  C16 UNL     1     -22.550  86.604   9.754  1.00  0.00     0.005 C
HETATM   14  C17 UNL     1     -23.997  86.883   9.336  1.00  0.00     0.009 C
HETATM   15  C18 UNL     1     -24.071  88.410   9.302  1.00  0.00     0.038 C
HETATM   16  C19 UNL     1     -22.924  88.904  10.118  1.00  0.00     0.062 C
HETATM   17  C20 UNL     1     -21.919  89.686   9.320  1.00  0.00     0.046 C
ENDROOT
BRANCH   1  18
HETATM   18  C3  UNL     1     -23.604  82.617  12.109  1.00  0.00     0.188 C
BRANCH  18  19
HETATM   19  O2  UNL     1     -24.547  82.853  13.139  1.00  0.00    -0.321 OA
BRANCH  19  20
HETATM   20  C2  UNL     1     -25.554  81.922  13.350  1.00  0.00     0.254 C
HETATM   21  C1  UNL     1     -25.363  80.820  14.348  1.00  0.00     0.126 C
HETATM   22  O1  UNL     1     -26.650  81.989  12.703  1.00  0.00    -0.266 OA
ENDBRANCH  19  20
ENDBRANCH  18  19
ENDBRANCH   1  18
BRANCH  16  23
HETATM   23  O3  UNL     1     -23.376  89.725  11.157  1.00  0.00    -0.389 OA
ATOM     24  H3  UNL     1     -24.323  89.775  11.097  1.00  0.00     0.210 HD
ENDBRANCH  16  23
TORSDOF 4
ENDMDL