MODEL 1
REMARK VINA RESULT: -7.823848494      0.000      0.000
REMARK  2 active torsions:
REMARK  status: ('A' for Active; 'I' for Inactive)
REMARK    1  A    between atoms: C3_3  and  C5_5
REMARK       I    between atoms: C5_5  and  N1_7
REMARK    2  A    between atoms: N1_7  and  C6_9
ROOT
HETATM    1  C6  UNL     1     -26.875  82.588   9.662  1.00  0.00     0.146 C
HETATM    2  C7  UNL     1     -25.709  83.094   8.890  1.00  0.00     0.036 C
HETATM    3  C8  UNL     1     -24.975  82.017   8.132  1.00  0.00     0.003 C
HETATM    4  C9  UNL     1     -23.999  82.556   7.158  1.00  0.00     0.000 C
HETATM    5  C10 UNL     1     -23.087  83.611   7.663  1.00  0.00     0.000 C
HETATM    6  C11 UNL     1     -21.767  83.045   8.206  1.00  0.00     0.000 C
HETATM    7  C12 UNL     1     -21.970  82.660   9.628  1.00  0.00     0.001 C
HETATM    8  C13 UNL     1     -20.775  82.801  10.504  1.00  0.00     0.010 C
HETATM    9  C14 UNL     1     -21.007  81.913  11.732  1.00  0.00     0.073 C
HETATM   10  S1  UNL     1     -22.204  82.597  12.860  1.00  0.00    -0.169 SA
HETATM   11  C15 UNL     1     -23.615  81.461  13.150  1.00  0.00     0.074 C
HETATM   12  C16 UNL     1     -24.474  81.509  11.934  1.00  0.00     0.020 C
HETATM   13  C17 UNL     1     -25.917  81.207  12.151  1.00  0.00     0.077 C
HETATM   14  S2  UNL     1     -26.617  81.005  10.462  1.00  0.00    -0.144 SA
ENDROOT
BRANCH   1  15
HETATM   15  N1  UNL     1     -28.012  82.483   8.790  1.00  0.00    -0.344 N
HETATM   16  C5  UNL     1     -29.327  82.484   9.314  1.00  0.00     0.247 C
HETATM   17  O1  UNL     1     -29.551  82.577  10.554  1.00  0.00    -0.268 OA
ATOM     18  H1  UNL     1     -27.871  82.406   7.783  1.00  0.00     0.164 HD
BRANCH  16  19
HETATM   19  C3  UNL     1     -30.470  82.377   8.425  1.00  0.00     0.002 C
HETATM   20  C2  UNL     1     -30.474  83.029   7.286  1.00  0.00    -0.019 C
HETATM   21  C1  UNL     1     -31.628  82.935   6.366  1.00  0.00     0.036 C
HETATM   22  C4  UNL     1     -31.613  81.543   8.804  1.00  0.00     0.054 C
ENDBRANCH  16  19
ENDBRANCH   1  15
TORSDOF 2
ENDMDL