MODEL 2
REMARK VINA RESULT: -6.801001117      1.464      2.078
REMARK  10 active torsions:
REMARK  status: ('A' for Active; 'I' for Inactive)
REMARK    1  A    between atoms: C2_2  and  O1_3
REMARK    2  A    between atoms: O1_3  and  C3_4
REMARK    3  A    between atoms: C3_4  and  O3_6
REMARK    4  A    between atoms: O3_6  and  C4_7
REMARK    5  A    between atoms: C4_7  and  C5_8
REMARK    6  A    between atoms: C6_13  and  S1_14
REMARK    7  A    between atoms: S1_14  and  C7_15
REMARK    8  A    between atoms: C7_15  and  C8_16
REMARK       I    between atoms: C8_16  and  N3_18
REMARK       I    between atoms: N3_18  and  C9_20
REMARK    9  A    between atoms: C9_20  and  O6_22
REMARK   10  A    between atoms: O6_22  and  C10_23
ROOT
HETATM    1  C5  UNL     1      20.712  85.829   6.142  1.00  0.00     0.124 A
HETATM    2  N1  UNL     1      20.281  86.050   4.880  1.00  0.00    -0.285 N
ATOM      3  H1  UNL     1      19.323  86.266   4.605  1.00  0.00     0.188 HD
HETATM    4  N2  UNL     1      21.315  85.938   4.062  1.00  0.00    -0.278 N
ATOM      5  H2  UNL     1      21.286  86.055   3.049  1.00  0.00     0.189 HD
HETATM    6  C6  UNL     1      22.428  85.640   4.795  1.00  0.00     0.162 A
HETATM    7  N4  UNL     1      22.015  85.583   6.061  1.00  0.00    -0.318 N
HETATM    8  C14 UNL     1      22.891  85.291   7.177  1.00  0.00     0.160 C
ENDROOT
BRANCH   6   9
HETATM    9  S1  UNL     1      24.080  85.389   4.136  1.00  0.00    -0.083 SA
BRANCH   9  10
HETATM   10  C7  UNL     1      23.920  85.350   2.328  1.00  0.00     0.185 C
BRANCH  10  11
HETATM   11  C8  UNL     1      23.492  84.031   1.839  1.00  0.00     0.235 C
HETATM   12  O4  UNL     1      24.326  83.291   1.258  1.00  0.00    -0.272 OA
HETATM   13  N3  UNL     1      22.171  83.597   2.017  1.00  0.00    -0.272 N
HETATM   14  C9  UNL     1      21.734  82.328   1.555  1.00  0.00     0.368 C
ATOM     15  H3  UNL     1      21.507  84.209   2.491  1.00  0.00     0.174 HD
HETATM   16  O5  UNL     1      22.553  81.582   0.974  1.00  0.00    -0.238 OA
BRANCH  14  17
HETATM   17  O6  UNL     1      20.447  81.868   1.711  1.00  0.00    -0.294 OA
BRANCH  17  18
HETATM   18  C10 UNL     1      19.354  82.295   0.944  1.00  0.00     0.061 C
HETATM   19  C11 UNL     1      19.729  82.734  -0.446  1.00  0.00     0.046 C
HETATM   20  C12 UNL     1      18.608  83.455   1.594  1.00  0.00     0.046 C
HETATM   21  C13 UNL     1      18.378  81.123   0.866  1.00  0.00     0.046 C
ENDBRANCH  17  18
ENDBRANCH  14  17
ENDBRANCH  10  11
ENDBRANCH   9  10
ENDBRANCH   6   9
BRANCH   1  22
HETATM   22  C4  UNL     1      19.899  85.852   7.392  1.00  0.00     0.259 C
BRANCH  22  23
HETATM   23  O3  UNL     1      18.597  85.307   7.132  1.00  0.00    -0.291 OA
BRANCH  23  24
HETATM   24  C3  UNL     1      18.338  84.010   7.551  1.00  0.00     0.406 C
HETATM   25  O2  UNL     1      18.019  83.813   8.768  1.00  0.00    -0.229 OA
BRANCH  24  26
HETATM   26  O1  UNL     1      18.402  82.912   6.723  1.00  0.00    -0.298 OA
BRANCH  26  27
HETATM   27  C2  UNL     1      18.383  83.039   5.294  1.00  0.00     0.176 C
HETATM   28  C1  UNL     1      17.993  81.694   4.736  1.00  0.00     0.034 C
ENDBRANCH  26  27
ENDBRANCH  24  26
ENDBRANCH  23  24
ENDBRANCH  22  23
ENDBRANCH   1  22
TORSDOF 10
ENDMDL