MODEL 5
REMARK VINA RESULT: -7.081852274      3.912      5.255
REMARK  7 active torsions:
REMARK  status: ('A' for Active; 'I' for Inactive)
REMARK       I    between atoms: C2_2  and  N1_4
REMARK    1  A    between atoms: N1_4  and  C3_6
REMARK    2  A    between atoms: C5_8  and  C6_9
REMARK    3  A    between atoms: C7_14  and  S1_15
REMARK    4  A    between atoms: S1_15  and  C8_16
REMARK    5  A    between atoms: C8_16  and  C9_17
REMARK    6  A    between atoms: C9_17  and  O3_19
REMARK    7  A    between atoms: O3_19  and  C10_20
ROOT
HETATM    1  C10 UNL     1      21.875  85.736   6.803  1.00  0.00     0.151 C
HETATM    2  C11 UNL     1      21.041  86.928   6.357  1.00  0.00     0.063 C
HETATM    3  C12 UNL     1      22.205  85.890   8.292  1.00  0.00     0.063 C
HETATM    4  C13 UNL     1      23.157  85.679   6.102  1.00  0.00     0.097 C
HETATM    5  N4  UNL     1      24.173  85.624   5.544  1.00  0.00    -0.194 NA
ENDROOT
BRANCH   1   6
HETATM    6  O3  UNL     1      21.188  84.530   6.654  1.00  0.00    -0.295 OA
BRANCH   6   7
HETATM    7  C9  UNL     1      19.921  84.279   7.135  1.00  0.00     0.270 C
HETATM    8  O2  UNL     1      19.844  83.835   8.315  1.00  0.00    -0.264 OA
BRANCH   7   9
HETATM    9  C8  UNL     1      18.756  84.530   6.282  1.00  0.00     0.194 C
BRANCH   9  10
HETATM   10  S1  UNL     1      18.539  83.146   5.136  1.00  0.00    -0.075 SA
BRANCH  10  11
HETATM   11  C7  UNL     1      19.483  83.451   3.627  1.00  0.00     0.203 A
HETATM   12  N3  UNL     1      20.430  84.389   3.461  1.00  0.00    -0.272 N
HETATM   13  N2  UNL     1      20.886  84.299   2.228  1.00  0.00    -0.279 N
ATOM     14  H3  UNL     1      20.743  85.055   4.168  1.00  0.00     0.189 HD
HETATM   15  C6  UNL     1      20.234  83.305   1.600  1.00  0.00     0.170 A
ATOM     16  H2  UNL     1      21.612  84.886   1.818  1.00  0.00     0.189 HD
HETATM   17  O4  UNL     1      19.395  82.818   2.481  1.00  0.00    -0.269 OA
BRANCH  15  18
HETATM   18  C5  UNL     1      20.380  82.811   0.216  1.00  0.00     0.201 C
HETATM   19  C4  UNL     1      20.063  81.347   0.140  1.00  0.00     0.068 C
HETATM   20  C3  UNL     1      18.751  81.283  -0.561  1.00  0.00     0.121 C
HETATM   21  C14 UNL     1      18.573  82.645  -1.118  1.00  0.00     0.075 C
HETATM   22  O5  UNL     1      19.519  83.492  -0.619  1.00  0.00    -0.365 OA
HETATM   23  C15 UNL     1      17.205  83.244  -0.825  1.00  0.00     0.048 C
HETATM   24  C16 UNL     1      18.709  82.663  -2.647  1.00  0.00     0.048 C
BRANCH  20  25
HETATM   25  N1  UNL     1      17.673  80.801   0.229  1.00  0.00    -0.354 N
HETATM   26  C2  UNL     1      17.250  79.457   0.318  1.00  0.00     0.214 C
HETATM   27  C1  UNL     1      16.117  79.008   1.159  1.00  0.00     0.117 C
HETATM   28  O1  UNL     1      17.854  78.577  -0.347  1.00  0.00    -0.274 OA
ATOM     29  H1  UNL     1      17.159  81.488   0.781  1.00  0.00     0.163 HD
ENDBRANCH  20  25
ENDBRANCH  15  18
ENDBRANCH  10  11
ENDBRANCH   9  10
ENDBRANCH   7   9
ENDBRANCH   6   7
ENDBRANCH   1   6
TORSDOF 7
ENDMDL