MODEL 1
REMARK VINA RESULT: -7.638032059      0.000      0.000
REMARK  9 active torsions:
REMARK  status: ('A' for Active; 'I' for Inactive)
REMARK    1  A    between atoms: C2_2  and  O2_4
REMARK    2  A    between atoms: O2_4  and  C3_5
REMARK    3  A    between atoms: C8_10  and  C9_11
REMARK    4  A    between atoms: C9_11  and  C10_12
REMARK    5  A    between atoms: C10_12  and  C11_13
REMARK    6  A    between atoms: N1_14  and  N2_16
REMARK       I    between atoms: N2_16  and  C12_18
REMARK    7  A    between atoms: C12_18  and  O4_20
REMARK    8  A    between atoms: O4_20  and  C13_21
REMARK    9  A    between atoms: C13_21  and  C14_23
ROOT
HETATM    1  C10 UNL     1      21.285  86.207   5.650  1.00  0.00     0.051 C
ENDROOT
BRANCH   1   2
HETATM    2  C9  UNL     1      19.932  86.115   4.968  1.00  0.00     0.047 C
BRANCH   2   3
HETATM    3  C8  UNL     1      19.324  84.782   5.119  1.00  0.00    -0.021 A
HETATM    4  C3  UNL     1      19.117  84.028   3.983  1.00  0.00     0.088 A
HETATM    5  C4  UNL     1      18.549  82.779   4.133  1.00  0.00     0.077 A
HETATM    6  C5  UNL     1      18.194  82.295   5.386  1.00  0.00     0.107 A
HETATM    7  C6  UNL     1      18.400  83.048   6.525  1.00  0.00     0.105 A
HETATM    8  O7  UNL     1      17.621  81.110   5.825  1.00  0.00    -0.323 OA
HETATM    9  C7  UNL     1      18.969  84.297   6.382  1.00  0.00     0.049 A
HETATM   10  O6  UNL     1      17.947  82.304   7.627  1.00  0.00    -0.323 OA
HETATM   11  C18 UNL     1      17.079  81.289   7.137  1.00  0.00     0.352 C
BRANCH   4  12
HETATM   12  O2  UNL     1      19.459  84.477   2.710  1.00  0.00    -0.279 OA
BRANCH  12  13
HETATM   13  C2  UNL     1      20.129  83.665   1.807  1.00  0.00     0.260 C
HETATM   14  C1  UNL     1      19.494  83.123   0.584  1.00  0.00     0.126 C
HETATM   15  O1  UNL     1      21.342  83.389   2.064  1.00  0.00    -0.265 OA
ENDBRANCH  12  13
ENDBRANCH   4  12
ENDBRANCH   2   3
ENDBRANCH   1   2
BRANCH   1  16
HETATM   16  C11 UNL     1      22.340  85.679   4.770  1.00  0.00     0.080 C
HETATM   17  N1  UNL     1      22.381  85.965   3.531  1.00  0.00    -0.311 N
ATOM     18  H1  UNL     1      21.656  86.577   3.160  1.00  0.00     0.185 HD
BRANCH  17  19
HETATM   19  N2  UNL     1      23.353  85.496   2.645  1.00  0.00    -0.246 N
HETATM   20  C12 UNL     1      24.723  85.370   2.976  1.00  0.00     0.387 C
HETATM   21  O3  UNL     1      25.176  85.677   4.120  1.00  0.00    -0.236 OA
ATOM     22  H2  UNL     1      23.059  85.229   1.706  1.00  0.00     0.192 HD
BRANCH  20  23
HETATM   23  O4  UNL     1      25.623  84.896   2.035  1.00  0.00    -0.225 OA
BRANCH  23  24
HETATM   24  C13 UNL     1      25.197  84.334   0.847  1.00  0.00     0.275 C
HETATM   25  O5  UNL     1      24.283  83.480   0.887  1.00  0.00    -0.264 OA
BRANCH  24  26
HETATM   26  C14 UNL     1      25.787  84.708  -0.465  1.00  0.00     0.037 C
HETATM   27  C15 UNL     1      26.750  83.627  -0.947  1.00  0.00     0.025 C
HETATM   28  C16 UNL     1      24.669  84.908  -1.468  1.00  0.00     0.025 C
HETATM   29  C17 UNL     1      26.599  85.976  -0.330  1.00  0.00     0.025 C
ENDBRANCH  24  26
ENDBRANCH  23  24
ENDBRANCH  20  23
ENDBRANCH  17  19
ENDBRANCH   1  16
TORSDOF 9
ENDMDL