MODEL 1
REMARK VINA RESULT: -7.881032646      0.000      0.000
REMARK  7 active torsions:
REMARK  status: ('A' for Active; 'I' for Inactive)
REMARK    1  A    between atoms: O1_2  and  C2_3
REMARK    2  A    between atoms: C2_3  and  C3_5
REMARK    3  A    between atoms: C5_8  and  C6_9
REMARK    4  A    between atoms: C7_12  and  N2_13
REMARK       I    between atoms: N2_13  and  C8_15
REMARK    5  A    between atoms: C8_15  and  C9_17
REMARK    6  A    between atoms: C9_17  and  S2_18
REMARK    7  A    between atoms: C11_24  and  C12_25
ROOT
HETATM    1  S2  UNL     1      16.998  78.247  -1.917  1.00  0.00    -0.042 SA
HETATM    2  C10 UNL     1      17.151  76.662  -2.666  1.00  0.00     0.134 C
HETATM    3  N3  UNL     1      17.270  75.600  -3.158  1.00  0.00    -0.184 NA
ENDROOT
BRANCH   1   4
HETATM    4  C9  UNL     1      17.283  78.069  -0.152  1.00  0.00     0.193 C
BRANCH   4   5
HETATM    5  C8  UNL     1      16.936  79.348   0.515  1.00  0.00     0.246 C
HETATM    6  N2  UNL     1      17.185  79.455   1.909  1.00  0.00    -0.157 N
ATOM      7  H2  UNL     1      16.816  78.740   2.535  1.00  0.00     0.187 HD
HETATM    8  O3  UNL     1      16.441  80.313  -0.110  1.00  0.00    -0.272 OA
BRANCH   6   9
HETATM    9  C7  UNL     1      17.866  80.434   2.405  1.00  0.00     0.707 A
HETATM   10  N1  UNL     1      17.643  81.067   3.580  1.00  0.00    -0.165 N
HETATM   11  C6  UNL     1      18.564  82.028   3.743  1.00  0.00     0.203 A
ATOM     12  H1  UNL     1      16.895  80.847   4.237  1.00  0.00     0.186 HD
HETATM   13  O4  UNL     1      19.323  81.975   2.688  1.00  0.00    -0.203 OA
HETATM   14  N4  UNL     1      18.939  81.040   1.871  1.00  0.00    -0.089 N
ATOM     15  H4  UNL     1      19.376  80.807   0.980  1.00  0.00     0.213 HD
BRANCH  11  16
HETATM   16  C5  UNL     1      18.638  82.932   4.916  1.00  0.00     0.073 A
HETATM   17  S1  UNL     1      18.230  82.606   6.532  1.00  0.00    -0.096 SA
HETATM   18  C4  UNL     1      18.591  84.125   7.215  1.00  0.00     0.069 A
HETATM   19  C3  UNL     1      19.028  84.863   6.146  1.00  0.00     0.061 A
HETATM   20  C11 UNL     1      19.050  84.230   4.942  1.00  0.00     0.048 A
BRANCH  19  21
HETATM   21  C2  UNL     1      19.443  86.285   6.369  1.00  0.00     0.294 C
HETATM   22  O2  UNL     1      18.601  87.196   6.440  1.00  0.00    -0.259 OA
BRANCH  21  23
HETATM   23  O1  UNL     1      20.776  86.628   6.504  1.00  0.00    -0.322 OA
HETATM   24  C1  UNL     1      21.759  85.799   7.047  1.00  0.00     0.213 C
ENDBRANCH  21  23
ENDBRANCH  19  21
BRANCH  20  25
HETATM   25  C12 UNL     1      19.503  84.916   3.694  1.00  0.00     0.158 C
HETATM   26  C13 UNL     1      20.930  85.118   3.376  1.00  0.00     0.097 C
HETATM   27  O5  UNL     1      18.633  85.330   2.895  1.00  0.00    -0.293 OA
ENDBRANCH  20  25
ENDBRANCH  11  16
ENDBRANCH   6   9
ENDBRANCH   4   5
ENDBRANCH   1   4
TORSDOF 7
ENDMDL