MODEL 2
REMARK VINA RESULT: -6.280289998      0.893      1.002
REMARK  9 active torsions:
REMARK  status: ('A' for Active; 'I' for Inactive)
REMARK    1  A    between atoms: O1_2  and  C2_3
REMARK    2  A    between atoms: C2_3  and  C3_5
REMARK    3  A    between atoms: C4_6  and  C5_7
REMARK    4  A    between atoms: C7_9  and  N1_10
REMARK    5  A    between atoms: N1_10  and  O3_11
REMARK    6  A    between atoms: N1_10  and  O4_13
REMARK    7  A    between atoms: C12_21  and  O7_22
REMARK    8  A    between atoms: C12_21  and  C13_24
REMARK    9  A    between atoms: C13_24  and  C14_25
ROOT
HETATM    1  C3  UNL     1      19.880  82.450   1.467  1.00  0.00     0.166 C
HETATM    2  C4  UNL     1      19.213  82.838   0.229  1.00  0.00     0.138 C
HETATM    3  C11 UNL     1      17.996  83.538   0.818  1.00  0.00     0.271 C
HETATM    4  O5  UNL     1      16.808  83.522   0.367  1.00  0.00    -0.264 OA
HETATM    5  O6  UNL     1      18.459  84.187   1.947  1.00  0.00    -0.282 OA
HETATM    6  C12 UNL     1      19.723  83.685   2.326  1.00  0.00     0.185 C
ENDROOT
BRANCH   2   7
HETATM    7  C5  UNL     1      18.595  81.798  -0.643  1.00  0.00    -0.028 A
HETATM    8  C6  UNL     1      18.252  80.575  -0.220  1.00  0.00     0.051 A
HETATM    9  C7  UNL     1      17.560  79.748  -1.059  1.00  0.00     0.129 A
HETATM   10  S1  UNL     1      17.407  80.743  -2.483  1.00  0.00    -0.072 SA
HETATM   11  C9  UNL     1      18.199  82.135  -1.965  1.00  0.00    -0.012 A
HETATM   12  C10 UNL     1      18.495  83.419  -2.661  1.00  0.00     0.057 C
BRANCH   9  13
HETATM   13  N1  UNL     1      16.990  78.442  -0.894  1.00  0.00    -0.120 N
BRANCH  13  14
HETATM   14  O3  UNL     1      16.234  78.291   0.132  1.00  0.00    -0.262 OA
ATOM     15  H3  UNL     1      15.358  78.652   0.054  1.00  0.00     0.247 HD
ENDBRANCH  13  14
BRANCH  13  16
HETATM   16  O4  UNL     1      17.225  77.406  -1.765  1.00  0.00    -0.258 OA
HETATM   17  C8  UNL     1      17.373  76.064  -1.281  1.00  0.00     0.240 C
ENDBRANCH  13  16
ENDBRANCH   9  13
ENDBRANCH   2   7
BRANCH   1  18
HETATM   18  C2  UNL     1      21.418  82.401   1.171  1.00  0.00     0.269 C
HETATM   19  O2  UNL     1      22.131  81.848   2.082  1.00  0.00    -0.265 OA
BRANCH  18  20
HETATM   20  O1  UNL     1      21.983  82.891   0.060  1.00  0.00    -0.326 OA
HETATM   21  C1  UNL     1      23.365  82.830  -0.254  1.00  0.00     0.213 C
ENDBRANCH  18  20
ENDBRANCH   1  18
BRANCH   6  22
HETATM   22  O7  UNL     1      20.723  84.602   1.987  1.00  0.00    -0.364 OA
ATOM     23  H7  UNL     1      21.480  84.128   1.666  1.00  0.00     0.213 HD
ENDBRANCH   6  22
BRANCH   6  24
HETATM   24  C13 UNL     1      19.736  83.319   3.766  1.00  0.00     0.073 C
BRANCH  24  25
HETATM   25  C14 UNL     1      18.476  82.973   4.415  1.00  0.00    -0.018 C
HETATM   26  C15 UNL     1      18.518  83.360   5.879  1.00  0.00     0.009 C
HETATM   27  C16 UNL     1      17.986  81.592   4.292  1.00  0.00     0.009 C
ENDBRANCH  24  25
ENDBRANCH   6  24
TORSDOF 9
ENDMDL