MODEL 3
REMARK VINA RESULT: -6.980674105      2.253      7.286
REMARK  7 active torsions:
REMARK  status: ('A' for Active; 'I' for Inactive)
REMARK    1  A    between atoms: O1_2  and  C2_3
REMARK    2  A    between atoms: C2_3  and  O2_4
REMARK    3  A    between atoms: O2_4  and  C3_5
REMARK    4  A    between atoms: C3_5  and  C4_7
REMARK    5  A    between atoms: C4_7  and  O4_8
REMARK    6  A    between atoms: C9_14  and  O5_15
REMARK    7  A    between atoms: C11_17  and  O6_18
ROOT
HETATM    1  C4  UNL     1      20.152  84.884   6.330  1.00  0.00     0.176 C
HETATM    2  C5  UNL     1      19.534  83.746   5.553  1.00  0.00     0.066 C
HETATM    3  C6  UNL     1      19.001  84.258   4.267  1.00  0.00     0.081 C
HETATM    4  C7  UNL     1      18.820  83.257   3.191  1.00  0.00    -0.013 A
HETATM    5  C8  UNL     1      18.424  81.941   3.111  1.00  0.00     0.050 A
HETATM    6  C9  UNL     1      18.338  81.245   1.918  1.00  0.00     0.102 A
HETATM    7  C11 UNL     1      18.663  81.897   0.738  1.00  0.00     0.104 A
HETATM    8  C13 UNL     1      19.057  83.214   0.828  1.00  0.00     0.077 A
HETATM    9  C14 UNL     1      19.145  83.915   2.023  1.00  0.00     0.081 A
HETATM   10  O7  UNL     1      19.520  85.245   2.338  1.00  0.00    -0.319 OA
HETATM   11  C15 UNL     1      20.084  85.108   3.628  1.00  0.00     0.276 C
HETATM   12  O8  UNL     1      20.364  86.229   4.319  1.00  0.00    -0.346 OA
HETATM   13  C16 UNL     1      20.964  85.835   5.517  1.00  0.00     0.097 C
HETATM   14  C17 UNL     1      21.275  87.039   6.372  1.00  0.00     0.049 C
HETATM   15  C18 UNL     1      22.297  85.138   5.213  1.00  0.00     0.049 C
ENDROOT
BRANCH   1  16
HETATM   16  C3  UNL     1      19.087  85.682   7.031  1.00  0.00     0.298 C
HETATM   17  O3  UNL     1      18.583  86.699   6.501  1.00  0.00    -0.262 OA
BRANCH  16  18
HETATM   18  O2  UNL     1      18.635  85.313   8.290  1.00  0.00    -0.293 OA
BRANCH  18  19
HETATM   19  C2  UNL     1      17.723  84.239   8.460  1.00  0.00     0.347 C
BRANCH  19  20
HETATM   20  O1  UNL     1      18.332  83.013   8.371  1.00  0.00    -0.371 OA
HETATM   21  C1  UNL     1      17.726  82.164   7.452  1.00  0.00     0.204 C
ENDBRANCH  19  20
ENDBRANCH  18  19
ENDBRANCH  16  18
ENDBRANCH   1  16
BRANCH   1  22
HETATM   22  O4  UNL     1      21.021  84.363   7.317  1.00  0.00    -0.377 OA
ATOM     23  H4  UNL     1      21.208  83.459   7.091  1.00  0.00     0.211 HD
ENDBRANCH   1  22
BRANCH   6  24
HETATM   24  O5  UNL     1      17.940  79.923   1.856  1.00  0.00    -0.353 OA
HETATM   25  C10 UNL     1      16.617  79.512   1.689  1.00  0.00     0.210 C
ENDBRANCH   6  24
BRANCH   7  26
HETATM   26  O6  UNL     1      18.580  81.213  -0.457  1.00  0.00    -0.353 OA
HETATM   27  C12 UNL     1      17.586  81.623  -1.397  1.00  0.00     0.210 C
ENDBRANCH   7  26
TORSDOF 7
ENDMDL