MODEL 1
REMARK VINA RESULT: -8.068600150      0.000      0.000
REMARK  7 active torsions:
REMARK  status: ('A' for Active; 'I' for Inactive)
REMARK    1  A    between atoms: O1_2  and  C2_3
REMARK    2  A    between atoms: C3_4  and  C4_5
REMARK    3  A    between atoms: C4_5  and  O2_6
REMARK    4  A    between atoms: C4_5  and  N1_8
REMARK    5  A    between atoms: N1_8  and  N2_10
REMARK    6  A    between atoms: C13_21  and  N3_22
REMARK    7  A    between atoms: C15_26  and  N4_27
ROOT
HETATM    1  C4  UNL     1      21.077  84.921   2.999  1.00  0.00     0.168 C
ENDROOT
BRANCH   1   2
HETATM    2  C3  UNL     1      20.152  84.431   3.971  1.00  0.00     0.054 A
HETATM    3  C2  UNL     1      20.028  84.906   5.230  1.00  0.00     0.116 A
HETATM    4  C15 UNL     1      19.188  84.299   6.159  1.00  0.00     0.139 A
HETATM    5  C14 UNL     1      18.448  83.191   5.804  1.00  0.00     0.075 A
HETATM    6  C13 UNL     1      18.558  82.703   4.535  1.00  0.00     0.106 A
HETATM    7  C12 UNL     1      19.390  83.314   3.649  1.00  0.00     0.054 A
BRANCH   3   8
HETATM    8  O1  UNL     1      20.717  86.026   5.665  1.00  0.00    -0.352 OA
HETATM    9  C1  UNL     1      22.061  85.890   6.159  1.00  0.00     0.210 C
ENDBRANCH   3   8
BRANCH   4  10
HETATM   10  N4  UNL     1      19.066  84.752   7.479  1.00  0.00    -0.113 N
HETATM   11  O6  UNL     1      19.748  84.211   8.372  1.00  0.00    -0.532 OA
HETATM   12  O7  UNL     1      18.191  85.789   7.764  1.00  0.00    -0.532 OA
ENDBRANCH   4  10
BRANCH   6  13
HETATM   13  N3  UNL     1      17.795  81.544   4.133  1.00  0.00    -0.116 N
HETATM   14  O4  UNL     1      17.024  81.001   4.932  1.00  0.00    -0.532 OA
HETATM   15  O5  UNL     1      17.935  81.055   2.863  1.00  0.00    -0.532 OA
ENDBRANCH   6  13
ENDBRANCH   1   2
BRANCH   1  16
HETATM   16  O2  UNL     1      20.898  86.174   2.653  1.00  0.00    -0.344 OA
ATOM     17  H2  UNL     1      21.691  86.698   2.630  1.00  0.00     0.219 HD
ENDBRANCH   1  16
BRANCH   1  18
HETATM   18  N1  UNL     1      22.150  84.269   2.365  1.00  0.00    -0.278 N
ATOM     19  H1  UNL     1      22.048  83.309   2.035  1.00  0.00     0.189 HD
BRANCH  18  20
HETATM   20  N2  UNL     1      23.381  84.967   2.189  1.00  0.00    -0.281 N
HETATM   21  C5  UNL     1      24.216  84.593   1.285  1.00  0.00     0.137 C
HETATM   22  O3  UNL     1      24.146  83.555   0.367  1.00  0.00    -0.332 OA
HETATM   23  C9  UNL     1      25.516  85.259   1.031  1.00  0.00     0.068 C
HETATM   24  C6  UNL     1      25.360  83.536  -0.403  1.00  0.00     0.135 C
HETATM   25  C7  UNL     1      26.510  83.150   0.462  1.00  0.00     0.034 C
HETATM   26  C10 UNL     1      25.587  85.059  -0.496  1.00  0.00     0.023 C
HETATM   27  C8  UNL     1      26.587  84.292   1.462  1.00  0.00     0.016 C
HETATM   28  C11 UNL     1      26.917  85.403  -1.062  1.00  0.00     0.013 C
ATOM     29  H2  UNL     1      23.601  85.765   2.785  1.00  0.00     0.189 HD
ENDBRANCH  18  20
ENDBRANCH   1  18
TORSDOF 7
ENDMDL