MODEL 3
REMARK VINA RESULT: -5.769938020      4.069      7.700
REMARK  8 active torsions:
REMARK  status: ('A' for Active; 'I' for Inactive)
REMARK    1  A    between atoms: C2_2  and  O1_3
REMARK    2  A    between atoms: O1_3  and  C3_4
REMARK    3  A    between atoms: C3_4  and  C4_6
REMARK    4  A    between atoms: C6_11  and  C7_12
REMARK    5  A    between atoms: C7_12  and  O6_13
REMARK    6  A    between atoms: C7_12  and  C10_17
REMARK    7  A    between atoms: O6_13  and  C8_14
REMARK    8  A    between atoms: C10_17  and  O8_18
ROOT
HETATM    1  C7  UNL     1      19.759  83.831   4.894  1.00  0.00     0.231 C
ENDROOT
BRANCH   1   2
HETATM    2  C6  UNL     1      19.389  83.780   3.474  1.00  0.00     0.132 A
HETATM    3  C4  UNL     1      20.181  83.368   2.443  1.00  0.00     0.189 A
HETATM    4  O3  UNL     1      19.447  83.473   1.337  1.00  0.00    -0.246 OA
HETATM    5  C5  UNL     1      18.272  83.923   1.639  1.00  0.00     0.417 A
HETATM    6  O4  UNL     1      17.338  84.136   0.814  1.00  0.00    -0.229 OA
HETATM    7  O5  UNL     1      18.247  84.106   2.932  1.00  0.00    -0.254 OA
BRANCH   3   8
HETATM    8  C3  UNL     1      21.553  82.891   2.401  1.00  0.00     0.320 C
HETATM    9  O2  UNL     1      21.902  81.712   2.153  1.00  0.00    -0.257 OA
BRANCH   8  10
HETATM   10  O1  UNL     1      22.595  83.775   2.649  1.00  0.00    -0.316 OA
BRANCH  10  11
HETATM   11  C2  UNL     1      23.689  83.948   1.793  1.00  0.00     0.175 C
HETATM   12  C1  UNL     1      24.516  85.175   2.073  1.00  0.00     0.034 C
ENDBRANCH  10  11
ENDBRANCH   8  10
ENDBRANCH   3   8
ENDBRANCH   1   2
BRANCH   1  13
HETATM   13  O6  UNL     1      18.600  83.284   5.562  1.00  0.00    -0.306 OA
BRANCH  13  14
HETATM   14  C8  UNL     1      18.172  82.013   5.595  1.00  0.00     0.255 C
HETATM   15  C9  UNL     1      17.757  81.429   6.915  1.00  0.00     0.126 C
HETATM   16  O7  UNL     1      18.118  81.328   4.565  1.00  0.00    -0.266 OA
ENDBRANCH  13  14
ENDBRANCH   1  13
BRANCH   1  17
HETATM   17  C10 UNL     1      19.861  85.209   5.469  1.00  0.00     0.120 C
HETATM   18  C11 UNL     1      19.761  85.097   6.947  1.00  0.00    -0.050 C
HETATM   19  C12 UNL     1      18.494  85.387   7.686  1.00  0.00     0.046 C
HETATM   20  C13 UNL     1      20.838  84.747   7.634  1.00  0.00    -0.021 C
HETATM   21  C14 UNL     1      22.124  84.467   7.000  1.00  0.00     0.028 C
HETATM   22  C15 UNL     1      22.339  85.302   5.785  1.00  0.00     0.016 C
HETATM   23  C16 UNL     1      21.099  85.980   5.242  1.00  0.00    -0.009 C
HETATM   24  C17 UNL     1      21.416  86.396   3.828  1.00  0.00     0.018 C
HETATM   25  C18 UNL     1      20.962  87.299   5.980  1.00  0.00     0.018 C
BRANCH  17  26
HETATM   26  O8  UNL     1      18.774  85.962   5.028  1.00  0.00    -0.381 OA
ATOM     27  H8  UNL     1      19.087  86.633   4.433  1.00  0.00     0.211 HD
ENDBRANCH  17  26
ENDBRANCH   1  17
TORSDOF 8
ENDMDL