MODEL 1
REMARK VINA RESULT: -6.946806976      0.000      0.000
REMARK  7 active torsions:
REMARK  status: ('A' for Active; 'I' for Inactive)
REMARK    1  A    between atoms: C2_2  and  O1_3
REMARK    2  A    between atoms: O1_3  and  C3_4
REMARK       I    between atoms: C3_4  and  N1_6
REMARK    3  A    between atoms: N1_6  and  C4_7
REMARK    4  A    between atoms: N1_6  and  N2_9
REMARK    5  A    between atoms: C6_13  and  C7_14
REMARK    6  A    between atoms: C10_21  and  C11_22
REMARK    7  A    between atoms: C11_22  and  O6_24
ROOT
HETATM    1  N2  UNL     1      20.296  84.127   1.936  1.00  0.00    -0.261 N
ATOM      2  H2  UNL     1      20.722  84.386   1.047  1.00  0.00     0.190 HD
HETATM    3  C5  UNL     1      20.751  84.667   2.988  1.00  0.00     0.203 C
HETATM    4  O4  UNL     1      20.258  84.398   4.247  1.00  0.00    -0.312 OA
HETATM    5  C6  UNL     1      20.363  85.443   5.233  1.00  0.00     0.222 C
HETATM    6  C10 UNL     1      21.746  85.687   5.671  1.00  0.00     0.065 C
HETATM    7  C13 UNL     1      22.639  85.891   4.724  1.00  0.00    -0.002 C
HETATM    8  C14 UNL     1      24.044  86.145   4.987  1.00  0.00     0.057 C
HETATM    9  S1  UNL     1      22.107  85.865   2.982  1.00  0.00    -0.050 SA
ENDROOT
BRANCH   1  10
HETATM   10  N1  UNL     1      19.255  83.203   1.913  1.00  0.00    -0.171 N
HETATM   11  C3  UNL     1      19.539  81.839   2.099  1.00  0.00     0.388 C
HETATM   12  O2  UNL     1      20.725  81.475   2.283  1.00  0.00    -0.236 OA
BRANCH  11  13
HETATM   13  O1  UNL     1      18.502  80.922   2.076  1.00  0.00    -0.303 OA
BRANCH  13  14
HETATM   14  C2  UNL     1      18.072  80.332   0.863  1.00  0.00     0.176 C
HETATM   15  C1  UNL     1      16.807  79.559   1.127  1.00  0.00     0.034 C
ENDBRANCH  13  14
ENDBRANCH  11  13
BRANCH  10  16
HETATM   16  C4  UNL     1      17.917  83.624   1.705  1.00  0.00     0.381 C
HETATM   17  O3  UNL     1      17.459  83.755   0.538  1.00  0.00    -0.281 OA
ENDBRANCH  10  16
ENDBRANCH   1  10
BRANCH   5  18
HETATM   18  C7  UNL     1      19.408  85.058   6.292  1.00  0.00     0.061 A
HETATM   19  C8  UNL     1      18.895  83.790   6.587  1.00  0.00     0.048 A
HETATM   20  C9  UNL     1      18.009  83.897   7.632  1.00  0.00     0.109 A
HETATM   21  N3  UNL     1      17.986  85.193   7.963  1.00  0.00    -0.312 N
HETATM   22  N4  UNL     1      18.811  85.876   7.172  1.00  0.00    -0.302 N
ATOM     23  H3  UNL     1      17.420  85.597   8.710  1.00  0.00     0.186 HD
ATOM     24  H4  UNL     1      18.967  86.882   7.228  1.00  0.00     0.186 HD
ENDBRANCH   5  18
BRANCH   6  25
HETATM   25  C11 UNL     1      22.150  85.725   7.053  1.00  0.00     0.292 C
HETATM   26  O5  UNL     1      22.068  86.800   7.747  1.00  0.00    -0.259 OA
BRANCH  25  27
HETATM   27  O6  UNL     1      22.653  84.650   7.769  1.00  0.00    -0.323 OA
HETATM   28  C12 UNL     1      21.844  83.971   8.701  1.00  0.00     0.213 C
ENDBRANCH  25  27
ENDBRANCH   6  25
TORSDOF 7
ENDMDL