MODEL 3
REMARK VINA RESULT: -5.833222345      0.077      2.465
REMARK  6 active torsions:
REMARK  status: ('A' for Active; 'I' for Inactive)
REMARK    1  A    between atoms: O1_2  and  C2_3
REMARK    2  A    between atoms: C4_5  and  C5_6
REMARK    3  A    between atoms: N3_14  and  O2_15
REMARK    4  A    between atoms: C10_17  and  N4_18
REMARK    5  A    between atoms: C12_22  and  O5_23
REMARK    6  A    between atoms: C14_25  and  O6_26
ROOT
HETATM    1  C5  UNL     1      19.281  82.614  -2.016  1.00  0.00     0.092 C
HETATM    2  C6  UNL     1      20.731  82.652  -2.516  1.00  0.00     0.140 C
HETATM    3  C7  UNL     1      21.473  81.493  -2.066  1.00  0.00     0.068 C
HETATM    4  N1  UNL     1      22.076  80.568  -1.722  1.00  0.00    -0.197 NA
HETATM    5  C8  UNL     1      20.615  82.709  -4.024  1.00  0.00     0.194 C
HETATM    6  S1  UNL     1      20.027  81.064  -4.567  1.00  0.00    -0.067 SA
HETATM    7  N2  UNL     1      19.709  83.681  -4.463  1.00  0.00    -0.292 N
HETATM    8  C9  UNL     1      18.964  83.403  -5.636  1.00  0.00     0.175 C
HETATM    9  N3  UNL     1      19.151  84.521  -3.557  1.00  0.00    -0.172 N
HETATM   10  C10 UNL     1      18.683  83.942  -2.337  1.00  0.00     0.311 C
ENDROOT
BRANCH   1  11
HETATM   11  C4  UNL     1      19.228  82.289  -0.574  1.00  0.00    -0.043 A
HETATM   12  C3  UNL     1      19.900  83.010   0.367  1.00  0.00     0.047 A
HETATM   13  C2  UNL     1      19.817  82.667   1.691  1.00  0.00     0.104 A
HETATM   14  C14 UNL     1      19.063  81.593   2.121  1.00  0.00     0.135 A
HETATM   15  C12 UNL     1      18.379  80.857   1.164  1.00  0.00     0.104 A
HETATM   16  C11 UNL     1      18.471  81.213  -0.159  1.00  0.00     0.047 A
BRANCH  13  17
HETATM   17  O1  UNL     1      20.497  83.394   2.659  1.00  0.00    -0.353 OA
HETATM   18  C1  UNL     1      20.124  84.721   2.920  1.00  0.00     0.210 C
ENDBRANCH  13  17
BRANCH  14  19
HETATM   19  O6  UNL     1      18.954  81.216   3.446  1.00  0.00    -0.351 OA
HETATM   20  C15 UNL     1      18.019  81.876   4.311  1.00  0.00     0.210 C
ENDBRANCH  14  19
BRANCH  15  21
HETATM   21  O5  UNL     1      17.616  79.776   1.586  1.00  0.00    -0.353 OA
HETATM   22  C13 UNL     1      16.447  79.463   0.856  1.00  0.00     0.210 C
ENDBRANCH  15  21
ENDBRANCH   1  11
BRANCH  10  23
HETATM   23  N4  UNL     1      17.242  83.918  -2.367  1.00  0.00    -0.126 N
HETATM   24  O3  UNL     1      16.609  83.910  -1.299  1.00  0.00    -0.535 OA
HETATM   25  O4  UNL     1      16.546  83.902  -3.542  1.00  0.00    -0.535 OA
ENDBRANCH  10  23
BRANCH   9  26
HETATM   26  O2  UNL     1      19.686  85.730  -3.445  1.00  0.00    -0.270 OA
ATOM     27  H2  UNL     1      20.134  85.931  -2.632  1.00  0.00     0.246 HD
ENDBRANCH   9  26
TORSDOF 6
ENDMDL