MODEL 5
REMARK VINA RESULT: -7.579368530      3.106      7.289
REMARK  18 active torsions:
REMARK  status: ('A' for Active; 'I' for Inactive)
REMARK    1  A    between atoms: O1_2  and  C2_3
REMARK    2  A    between atoms: C2_3  and  O2_4
REMARK    3  A    between atoms: O2_4  and  C3_5
REMARK    4  A    between atoms: C4_7  and  O4_8
REMARK    5  A    between atoms: C6_12  and  O6_13
REMARK    6  A    between atoms: C6_12  and  C7_15
REMARK    7  A    between atoms: C7_15  and  O7_16
REMARK    8  A    between atoms: C9_20  and  O9_22
REMARK    9  A    between atoms: C11_24  and  O10_25
REMARK   10  A    between atoms: C12_27  and  C13_28
REMARK   11  A    between atoms: C17_32  and  O11_33
REMARK   12  A    between atoms: C18_35  and  O12_36
REMARK   13  A    between atoms: C19_38  and  O13_39
REMARK   14  A    between atoms: C22_43  and  O14_44
REMARK   15  A    between atoms: O14_44  and  C23_45
REMARK   16  A    between atoms: C23_45  and  C24_47
REMARK   17  A    between atoms: C24_47  and  C26_49
REMARK   18  A    between atoms: C26_49  and  O16_50
ROOT
HETATM    1  C2  UNL     1      16.087  15.020  21.522  1.00  0.00     0.181 C
HETATM    2  C8  UNL     1      16.075  16.140  22.561  1.00  0.00     0.109 C
HETATM    3  C9  UNL     1      15.527  15.525  23.775  1.00  0.00     0.086 C
HETATM    4  C10 UNL     1      16.576  14.924  24.686  1.00  0.00     0.049 C
HETATM    5  C11 UNL     1      14.575  14.409  23.245  1.00  0.00     0.166 C
HETATM    6  C12 UNL     1      15.400  13.825  22.199  1.00  0.00     0.116 C
ENDROOT
BRANCH   6   7
HETATM    7  C13 UNL     1      14.930  12.875  21.223  1.00  0.00    -0.011 A
HETATM    8  C14 UNL     1      14.991  13.226  19.880  1.00  0.00     0.023 A
HETATM    9  C15 UNL     1      14.591  12.382  18.869  1.00  0.00    -0.020 A
HETATM   10  C16 UNL     1      14.679  12.788  17.529  1.00  0.00     0.052 A
HETATM   11  C20 UNL     1      14.100  11.121  19.124  1.00  0.00     0.013 A
HETATM   12  C17 UNL     1      14.283  11.939  16.549  1.00  0.00     0.102 A
HETATM   13  C18 UNL     1      13.795  10.685  16.794  1.00  0.00     0.133 A
HETATM   14  C19 UNL     1      13.702  10.270  18.106  1.00  0.00     0.113 A
HETATM   15  C21 UNL     1      14.027  10.740  20.446  1.00  0.00     0.053 A
HETATM   16  C22 UNL     1      14.444  11.624  21.462  1.00  0.00     0.087 A
BRANCH  12  17
HETATM   17  O11 UNL     1      14.396  12.403  15.232  1.00  0.00    -0.358 OA
ATOM     18  H11 UNL     1      14.819  11.822  14.610  1.00  0.00     0.217 HD
ENDBRANCH  12  17
BRANCH  13  19
HETATM   19  O12 UNL     1      13.398   9.845  15.736  1.00  0.00    -0.356 OA
ATOM     20  H12 UNL     1      14.025   9.554  15.085  1.00  0.00     0.218 HD
ENDBRANCH  13  19
BRANCH  14  21
HETATM   21  O13 UNL     1      13.211   9.012  18.363  1.00  0.00    -0.357 OA
ATOM     22  H13 UNL     1      12.437   8.931  18.908  1.00  0.00     0.217 HD
ENDBRANCH  14  21
BRANCH  16  23
HETATM   23  O14 UNL     1      14.315  11.082  22.741  1.00  0.00    -0.278 OA
BRANCH  23  24
HETATM   24  C23 UNL     1      15.129  10.002  23.039  1.00  0.00     0.270 C
HETATM   25  O15 UNL     1      16.379  10.258  23.148  1.00  0.00    -0.264 OA
BRANCH  24  26
HETATM   26  C24 UNL     1      14.713   8.610  23.233  1.00  0.00     0.105 C
HETATM   27  C25 UNL     1      13.350   8.294  22.729  1.00  0.00     0.022 C
BRANCH  26  28
HETATM   28  C26 UNL     1      14.732   8.230  24.712  1.00  0.00     0.178 C
BRANCH  28  29
HETATM   29  O16 UNL     1      15.905   8.660  25.277  1.00  0.00    -0.400 OA
ATOM     30  H16 UNL     1      16.010   8.257  26.132  1.00  0.00     0.209 HD
ENDBRANCH  28  29
ENDBRANCH  26  28
ENDBRANCH  24  26
ENDBRANCH  23  24
ENDBRANCH  16  23
ENDBRANCH   6   7
BRANCH   1  31
HETATM   31  O1  UNL     1      15.515  15.437  20.362  1.00  0.00    -0.359 OA
HETATM   32  C1  UNL     1      15.048  16.704  20.255  1.00  0.00     0.205 C
ENDBRANCH   1  31
BRANCH   1  33
HETATM   33  O2  UNL     1      17.407  14.697  21.329  1.00  0.00    -0.301 OA
BRANCH  33  34
HETATM   34  C3  UNL     1      17.812  14.517  20.035  1.00  0.00     0.421 C
HETATM   35  O3  UNL     1      18.492  13.327  19.935  1.00  0.00    -0.301 OA
HETATM   36  C4  UNL     1      19.883  13.500  20.082  1.00  0.00     0.339 C
HETATM   37  C5  UNL     1      20.299  14.318  18.910  1.00  0.00     0.245 C
HETATM   38  O5  UNL     1      21.378  14.149  18.422  1.00  0.00    -0.286 OA
HETATM   39  C6  UNL     1      19.304  15.309  18.430  1.00  0.00     0.255 C
HETATM   40  O8  UNL     1      18.452  15.617  19.494  1.00  0.00    -0.292 OA
BRANCH  36  41
HETATM   41  O4  UNL     1      20.167  14.191  21.268  1.00  0.00    -0.364 OA
ATOM     42  H4  UNL     1      20.736  13.673  21.825  1.00  0.00     0.213 HD
ENDBRANCH  36  41
BRANCH  39  43
HETATM   43  O6  UNL     1      19.930  16.499  18.064  1.00  0.00    -0.358 OA
ATOM     44  H6  UNL     1      20.606  16.729  18.691  1.00  0.00     0.213 HD
ENDBRANCH  39  43
BRANCH  39  45
HETATM   45  C7  UNL     1      18.535  14.785  17.228  1.00  0.00     0.241 C
BRANCH  45  46
HETATM   46  O7  UNL     1      19.028  13.581  16.752  1.00  0.00    -0.395 OA
ATOM     47  H7  UNL     1      18.914  13.477  15.815  1.00  0.00     0.209 HD
ENDBRANCH  45  46
ENDBRANCH  39  45
ENDBRANCH  33  34
ENDBRANCH   1  33
BRANCH   5  48
HETATM   48  O10 UNL     1      14.467  13.627  24.422  1.00  0.00    -0.392 OA
ATOM     49  H10 UNL     1      13.788  13.025  24.141  1.00  0.00     0.210 HD
ENDBRANCH   5  48
BRANCH   3  50
HETATM   50  O9  UNL     1      14.810  16.438  24.534  1.00  0.00    -0.387 OA
ATOM     51  H9  UNL     1      14.077  16.799  24.050  1.00  0.00     0.210 HD
ENDBRANCH   3  50
TORSDOF 18
ENDMDL