MODEL 4
REMARK VINA RESULT: -9.530376893      3.808     11.154
REMARK  12 active torsions:
REMARK  status: ('A' for Active; 'I' for Inactive)
REMARK    1  A    between atoms: N1_1  and  C1_5
REMARK    2  A    between atoms: N2_8  and  C4_9
REMARK    3  A    between atoms: N4_13  and  C6_15
REMARK    4  A    between atoms: C7_20  and  C8_21
REMARK    5  A    between atoms: C8_21  and  O1_22
REMARK    6  A    between atoms: O1_22  and  S1_23
REMARK    7  A    between atoms: S1_23  and  N7_24
REMARK    8  A    between atoms: S1_23  and  N8_28
REMARK       I    between atoms: N8_28  and  C9_30
REMARK       I    between atoms: C9_30  and  N9_32
REMARK    9  A    between atoms: N9_32  and  N10_34
REMARK   10  A    between atoms: N10_34  and  C10_36
REMARK   11  A    between atoms: C13_47  and  N14_48
REMARK   12  A    between atoms: C16_51  and  N15_52
ROOT
HETATM    1  C6  UNL     1      14.080   8.628  23.202  1.00  0.00     0.259 A
HETATM    2  N5  UNL     1      14.986   8.374  24.127  1.00  0.00    -0.263 N
ATOM      3  H5  UNL     1      15.128   7.481  24.599  1.00  0.00     0.190 HD
HETATM    4  N6  UNL     1      15.687   9.497  24.337  1.00  0.00    -0.278 N
ATOM      5  H6  UNL     1      16.457   9.602  24.998  1.00  0.00     0.189 HD
HETATM    6  C7  UNL     1      15.210  10.458  23.536  1.00  0.00     0.167 A
HETATM    7  O4  UNL     1      14.223   9.881  22.854  1.00  0.00    -0.261 OA
ENDROOT
BRANCH   1   8
HETATM    8  N4  UNL     1      13.127   7.693  22.691  1.00  0.00    -0.152 N
HETATM    9  C5  UNL     1      12.451   7.992  21.608  1.00  0.00     0.714 A
HETATM   10  N3  UNL     1      12.675   9.173  21.011  1.00  0.00    -0.021 N
HETATM   11  N13 UNL     1      11.548   7.171  21.055  1.00  0.00    -0.021 N
HETATM   12  C4  UNL     1      12.052   9.587  19.892  1.00  0.00     0.709 A
ATOM     13  H3  UNL     1      13.362   9.798  21.434  1.00  0.00     0.203 HD
HETATM   14  N16 UNL     1      11.151   8.723  19.372  1.00  0.00    -0.021 N
HETATM   15  C13 UNL     1      10.888   7.511  19.942  1.00  0.00     0.709 A
ATOM     16  H16 UNL     1      10.651   8.986  18.524  1.00  0.00     0.203 HD
ATOM     17  H13 UNL     1      11.360   6.268  21.491  1.00  0.00     0.203 HD
ATOM     18  H4  UNL     1      12.974   6.802  23.164  1.00  0.00     0.188 HD
BRANCH  12  19
HETATM   19  N2  UNL     1      12.300  10.836  19.258  1.00  0.00    -0.217 N
HETATM   20  C3  UNL     1      12.989  10.978  17.985  1.00  0.00     0.143 C
HETATM   21  C2  UNL     1      14.049  12.046  18.129  1.00  0.00     0.053 C
HETATM   22  C1  UNL     1      14.355  12.344  19.576  1.00  0.00     0.186 C
HETATM   23  C19 UNL     1      13.131  12.775  20.352  1.00  0.00     0.053 C
HETATM   24  C18 UNL     1      11.872  12.101  19.871  1.00  0.00     0.143 C
BRANCH  22  25
HETATM   25  N1  UNL     1      15.332  13.389  19.653  1.00  0.00    -0.075 N
ATOM     26  H13 UNL     1      16.078  13.172  20.313  1.00  0.00     0.274 HD
ATOM     27  H12 UNL     1      15.900  13.448  18.807  1.00  0.00     0.274 HD
ATOM     28  H11 UNL     1      14.870  14.272  19.870  1.00  0.00     0.274 HD
ENDBRANCH  22  25
ENDBRANCH  12  19
BRANCH  15  29
HETATM   29  N14 UNL     1       9.945   6.703  19.290  1.00  0.00    -0.215 N
HETATM   30  C14 UNL     1       9.225   7.133  18.087  1.00  0.00     0.143 C
HETATM   31  C15 UNL     1       8.204   6.043  17.836  1.00  0.00     0.055 C
HETATM   32  C16 UNL     1       8.940   4.830  18.395  1.00  0.00     0.203 C
HETATM   33  C17 UNL     1       9.528   5.385  19.669  1.00  0.00     0.173 C
BRANCH  32  34
HETATM   34  N15 UNL     1      10.013   4.491  17.508  1.00  0.00    -0.073 N
ATOM     35 3H15 UNL     1       9.709   4.423  16.537  1.00  0.00     0.274 HD
ATOM     36 2H15 UNL     1      10.680   5.255  17.394  1.00  0.00     0.274 HD
ATOM     37 1H15 UNL     1      10.455   3.634  17.839  1.00  0.00     0.274 HD
ENDBRANCH  32  34
ENDBRANCH  15  29
ENDBRANCH   1   8
BRANCH   6  38
HETATM   38  C8  UNL     1      15.680  11.839  23.440  1.00  0.00     0.276 C
BRANCH  38  39
HETATM   39  O1  UNL     1      14.898  12.854  23.748  1.00  0.00    -0.268 OA
BRANCH  39  40
HETATM   40  S1  UNL     1      15.202  14.230  24.749  1.00  0.00     0.237 S
HETATM   41  O2  UNL     1      14.275  14.621  26.189  1.00  0.00    -0.198 OA
BRANCH  40  42
HETATM   42  N7  UNL     1      14.140  15.330  23.776  1.00  0.00    -0.323 N
ATOM     43  H72 UNL     1      13.747  15.254  22.838  1.00  0.00     0.169 HD
ATOM     44  H71 UNL     1      14.084  16.039  24.507  1.00  0.00     0.169 HD
ENDBRANCH  40  42
BRANCH  40  45
HETATM   45  N8  UNL     1      16.704  15.412  24.327  1.00  0.00    -0.230 N
HETATM   46  C9  UNL     1      17.330  15.375  23.092  1.00  0.00     0.348 C
HETATM   47  O3  UNL     1      16.884  14.532  22.236  1.00  0.00    -0.245 OA
HETATM   48  N9  UNL     1      18.403  16.200  22.743  1.00  0.00    -0.249 N
ATOM     49  H9  UNL     1      18.772  16.872  23.416  1.00  0.00     0.192 HD
ATOM     50  H8  UNL     1      17.033  16.071  25.033  1.00  0.00     0.184 HD
BRANCH  48  51
HETATM   51  N10 UNL     1      18.965  16.102  21.474  1.00  0.00    -0.284 N
ATOM     52  H10 UNL     1      18.762  16.847  20.808  1.00  0.00     0.188 HD
BRANCH  51  53
HETATM   53  C10 UNL     1      19.791  15.050  21.046  1.00  0.00     0.119 C
HETATM   54  N11 UNL     1      19.307  14.053  20.342  1.00  0.00    -0.354 N
HETATM   55  C11 UNL     1      20.352  13.109  20.030  1.00  0.00     0.356 C
ATOM     56  H11 UNL     1      18.331  13.959  20.057  1.00  0.00     0.162 HD
HETATM   57  N12 UNL     1      21.579  13.885  20.182  1.00  0.00    -0.053 N
HETATM   58  C12 UNL     1      21.222  14.800  21.246  1.00  0.00     0.311 C
ATOM     59 2H12 UNL     1      22.421  13.334  20.350  1.00  0.00     0.279 HD
ATOM     60 1H12 UNL     1      21.922  14.325  19.329  1.00  0.00     0.279 HD
ENDBRANCH  51  53
ENDBRANCH  48  51
ENDBRANCH  40  45
ENDBRANCH  39  40
ENDBRANCH  38  39
ENDBRANCH   6  38
TORSDOF 12
ENDMDL