MODEL 4
REMARK VINA RESULT: -7.561083941      2.991      8.799
REMARK  15 active torsions:
REMARK  status: ('A' for Active; 'I' for Inactive)
REMARK    1  A    between atoms: O1_2  and  C2_3
REMARK    2  A    between atoms: C2_3  and  C3_5
REMARK    3  A    between atoms: C8_10  and  O3_11
REMARK    4  A    between atoms: N1_13  and  N2_14
REMARK    5  A    between atoms: N2_14  and  C10_16
REMARK    6  A    between atoms: C11_19  and  N4_20
REMARK    7  A    between atoms: N6_27  and  C14_29
REMARK    8  A    between atoms: C14_29  and  C15_30
REMARK    9  A    between atoms: C15_30  and  N7_31
REMARK   10  A    between atoms: C17_38  and  C18_39
REMARK   11  A    between atoms: C18_39  and  O4_40
REMARK   12  A    between atoms: C18_39  and  N9_42
REMARK   13  A    between atoms: N9_42  and  N10_44
REMARK   14  A    between atoms: N14_53  and  O5_54
REMARK   15  A    between atoms: C20_56  and  C21_57
ROOT
HETATM    1  C10 UNL     1      15.619  12.905  21.686  1.00  0.00     0.727 A
HETATM    2  N3  UNL     1      15.459  12.045  22.706  1.00  0.00    -0.171 N
ATOM      3  H3  UNL     1      15.797  12.322  23.628  1.00  0.00     0.186 HD
HETATM    4  C11 UNL     1      14.879  10.841  22.581  1.00  0.00     0.145 A
HETATM    5  C12 UNL     1      14.421  10.471  21.316  1.00  0.00     0.128 A
HETATM    6  N5  UNL     1      13.834   9.303  21.084  1.00  0.00    -0.333 N
ATOM      7  H5  UNL     1      13.709   8.645  21.854  1.00  0.00     0.168 HD
HETATM    8  C13 UNL     1      13.394   8.961  19.836  1.00  0.00     0.149 A
HETATM    9  N6  UNL     1      12.839   7.809  19.716  1.00  0.00    -0.372 N
ATOM     10  H6  UNL     1      12.750   7.208  20.535  1.00  0.00     0.161 HD
HETATM   11  C16 UNL     1      13.558   9.842  18.790  1.00  0.00     0.175 A
HETATM   12  N8  UNL     1      13.246   9.807  17.486  1.00  0.00    -0.323 N
ATOM     13  H8  UNL     1      12.783   9.032  17.011  1.00  0.00     0.169 HD
HETATM   14  C17 UNL     1      13.635  10.949  16.905  1.00  0.00     0.149 A
HETATM   15  N12 UNL     1      14.194  11.688  17.873  1.00  0.00    -0.275 N
ATOM     16  H12 UNL     1      14.592  12.619  17.747  1.00  0.00     0.189 HD
HETATM   17  N13 UNL     1      14.150  11.022  19.020  1.00  0.00    -0.213 N
HETATM   18  C19 UNL     1      14.574  11.335  20.255  1.00  0.00     0.205 A
HETATM   19  N14 UNL     1      15.167  12.516  20.480  1.00  0.00    -0.029 N
ENDROOT
BRANCH   1  20
HETATM   20  N2  UNL     1      16.166  14.049  21.782  1.00  0.00    -0.126 N
ATOM     21  H2  UNL     1      17.100  14.164  21.390  1.00  0.00     0.206 HD
BRANCH  20  22
HETATM   22  N1  UNL     1      15.576  15.158  22.388  1.00  0.00    -0.262 N
HETATM   23  C6  UNL     1      14.166  15.427  22.265  1.00  0.00     0.061 A
HETATM   24  C5  UNL     1      13.784  16.308  23.243  1.00  0.00    -0.026 A
HETATM   25  C7  UNL     1      13.213  14.950  21.358  1.00  0.00     0.069 A
HETATM   26  C4  UNL     1      12.464  16.698  23.301  1.00  0.00     0.030 A
HETATM   27  C22 UNL     1      14.983  16.639  24.048  1.00  0.00     0.079 C
HETATM   28  C3  UNL     1      11.516  16.236  22.413  1.00  0.00     0.073 A
HETATM   29  C8  UNL     1      11.896  15.351  21.429  1.00  0.00     0.086 A
HETATM   30  C20 UNL     1      16.150  16.201  23.198  1.00  0.00     0.214 C
BRANCH  28  31
HETATM   31  C2  UNL     1      10.129  16.665  22.497  1.00  0.00     0.295 C
HETATM   32  O2  UNL     1       9.394  16.171  23.387  1.00  0.00    -0.259 OA
BRANCH  31  33
HETATM   33  O1  UNL     1       9.565  17.593  21.647  1.00  0.00    -0.322 OA
HETATM   34  C1  UNL     1       8.322  17.367  20.980  1.00  0.00     0.213 C
ENDBRANCH  31  33
ENDBRANCH  28  31
BRANCH  29  35
HETATM   35  O3  UNL     1      10.923  14.901  20.549  1.00  0.00    -0.355 OA
HETATM   36  C9  UNL     1      11.168  13.660  19.895  1.00  0.00     0.210 C
ENDBRANCH  29  35
BRANCH  30  37
HETATM   37  C21 UNL     1      17.257  15.745  24.039  1.00  0.00     0.199 C
HETATM   38  O6  UNL     1      18.374  15.534  23.523  1.00  0.00    -0.646 OA
HETATM   39  O7  UNL     1      17.055  15.553  25.395  1.00  0.00    -0.646 OA
ENDBRANCH  30  37
ENDBRANCH  20  22
ENDBRANCH   1  20
BRANCH  19  40
HETATM   40  O5  UNL     1      15.314  13.375  19.399  1.00  0.00    -0.268 OA
ATOM     41  H5  UNL     1      14.874  13.166  18.584  1.00  0.00     0.246 HD
ENDBRANCH  19  40
BRANCH   4  42
HETATM   42  N4  UNL     1      14.709   9.995  23.534  1.00  0.00    -0.383 N
ATOM     43  H42 UNL     1      15.470   9.896  24.205  1.00  0.00     0.157 HD
ATOM     44  H41 UNL     1      13.877   9.419  23.671  1.00  0.00     0.157 HD
ENDBRANCH   4  42
BRANCH  14  45
HETATM   45  C18 UNL     1      13.513  11.380  15.496  1.00  0.00     0.304 C
BRANCH  45  46
HETATM   46  O4  UNL     1      14.308  12.494  15.230  1.00  0.00    -0.368 OA
ATOM     47  H4  UNL     1      14.865  12.354  14.474  1.00  0.00     0.212 HD
ENDBRANCH  45  46
BRANCH  45  48
HETATM   48  N9  UNL     1      13.952  10.334  14.602  1.00  0.00    -0.287 N
ATOM     49  H9  UNL     1      13.292   9.891  13.964  1.00  0.00     0.185 HD
BRANCH  48  50
HETATM   50  N10 UNL     1      15.282   9.937  14.623  1.00  0.00    -0.251 N
HETATM   51  N11 UNL     1      15.676   8.792  14.254  1.00  0.00    -0.331 N
ATOM     52 2H11 UNL     1      14.965   8.137  13.929  1.00  0.00     0.178 HD
ATOM     53 1H11 UNL     1      16.653   8.500  14.269  1.00  0.00     0.178 HD
ATOM     54  H10 UNL     1      15.980  10.604  14.952  1.00  0.00     0.207 HD
ENDBRANCH  48  50
ENDBRANCH  45  48
ENDBRANCH  14  45
BRANCH   9  55
HETATM   55  C14 UNL     1      12.342   7.352  18.452  1.00  0.00     0.148 C
BRANCH  55  56
HETATM   56  C15 UNL     1      11.127   6.464  18.726  1.00  0.00     0.249 C
BRANCH  56  57
HETATM   57  N7  UNL     1       9.945   7.306  18.718  1.00  0.00    -0.078 N
ATOM     58  H73 UNL     1      10.170   8.301  18.758  1.00  0.00     0.274 HD
ATOM     59  H72 UNL     1       9.469   7.310  17.815  1.00  0.00     0.274 HD
ATOM     60  H71 UNL     1       9.339   7.007  19.482  1.00  0.00     0.274 HD
ENDBRANCH  56  57
ENDBRANCH  55  56
ENDBRANCH   9  55
TORSDOF 15
ENDMDL