MODEL 5
REMARK VINA RESULT: -8.676367991      2.788     10.238
REMARK  12 active torsions:
REMARK  status: ('A' for Active; 'I' for Inactive)
REMARK    1  A    between atoms: C1_4  and  N2_5
REMARK    2  A    between atoms: C1_4  and  C6_24
REMARK    3  A    between atoms: N3_7  and  C2_9
REMARK    4  A    between atoms: C4_13  and  S1_14
REMARK    5  A    between atoms: S1_14  and  N5_15
REMARK    6  A    between atoms: N8_29  and  S3_31
REMARK    7  A    between atoms: S3_31  and  O6_34
REMARK    8  A    between atoms: O6_34  and  N9_35
REMARK    9  A    between atoms: C9_38  and  N10_39
REMARK   10  A    between atoms: N10_39  and  C10_41
REMARK   11  A    between atoms: C12_45  and  O9_46
REMARK   12  A    between atoms: C13_48  and  O10_49
ROOT
HETATM    1  C6  UNL     1      13.371  10.021  18.993  1.00  0.00     0.075 A
HETATM    2  C7  UNL     1      12.982  11.291  18.612  1.00  0.00     0.106 A
HETATM    3  N7  UNL     1      12.305  11.560  17.389  1.00  0.00    -0.093 NA
HETATM    4  S2  UNL     1      13.356  12.541  19.695  1.00  0.00    -0.053 SA
HETATM    5  C8  UNL     1      14.165  11.981  21.090  1.00  0.00     0.116 A
HETATM    6  N8  UNL     1      14.560  12.736  22.069  1.00  0.00    -0.252 N
ATOM      7  H8  UNL     1      15.041  12.363  22.888  1.00  0.00     0.181 HD
HETATM    8  C9  UNL     1      14.397  10.620  21.142  1.00  0.00     0.099 A
HETATM    9  C13 UNL     1      14.028   9.722  20.169  1.00  0.00     0.111 A
ENDROOT
BRANCH   1  10
HETATM   10  C1  UNL     1      13.042   8.924  18.042  1.00  0.00     0.129 C
HETATM   11  N1  UNL     1      13.762   8.491  17.171  1.00  0.00    -0.384 N
ATOM     12  H12 UNL     1      13.537   7.739  16.519  1.00  0.00     0.157 HD
ATOM     13  H11 UNL     1      14.681   8.928  17.091  1.00  0.00     0.157 HD
BRANCH  10  14
HETATM   14  N2  UNL     1      11.727   8.298  18.155  1.00  0.00    -0.284 N
HETATM   15  N3  UNL     1      11.663   7.052  17.981  1.00  0.00    -0.293 N
ATOM     16  H3  UNL     1      12.533   6.563  17.772  1.00  0.00     0.187 HD
ATOM     17  H2  UNL     1      10.894   8.847  18.367  1.00  0.00     0.188 HD
BRANCH  15  18
HETATM   18  C2  UNL     1      10.491   6.278  18.051  1.00  0.00     0.132 A
HETATM   19  C3  UNL     1      10.029   5.539  16.986  1.00  0.00     0.127 A
HETATM   20  N4  UNL     1       8.890   4.828  17.161  1.00  0.00    -0.339 N
HETATM   21  C4  UNL     1       8.208   4.813  18.303  1.00  0.00     0.226 A
ATOM     22  H4  UNL     1       8.537   4.277  16.379  1.00  0.00     0.167 HD
HETATM   23  N6  UNL     1       8.679   5.543  19.332  1.00  0.00    -0.296 N
HETATM   24  C5  UNL     1       9.800   6.285  19.267  1.00  0.00     0.277 A
ATOM     25  H6  UNL     1       8.158   5.534  20.209  1.00  0.00     0.171 HD
HETATM   26  O3  UNL     1      10.229   6.960  20.229  1.00  0.00    -0.266 OA
BRANCH  21  27
HETATM   27  S1  UNL     1       6.759   3.874  18.439  1.00  0.00     0.289 S
HETATM   28  O1  UNL     1       6.734   3.095  19.725  1.00  0.00    -0.198 OA
HETATM   29  O2  UNL     1       6.658   2.935  17.271  1.00  0.00    -0.198 OA
BRANCH  27  30
HETATM   30  N5  UNL     1       5.402   4.943  18.341  1.00  0.00    -0.322 N
ATOM     31  H52 UNL     1       5.401   5.916  18.646  1.00  0.00     0.169 HD
ATOM     32  H51 UNL     1       4.618   4.434  17.933  1.00  0.00     0.169 HD
ENDBRANCH  27  30
ENDBRANCH  21  27
ENDBRANCH  15  18
ENDBRANCH  10  14
ENDBRANCH   1  10
BRANCH   9  33
HETATM   33  O10 UNL     1      14.352   8.385  20.391  1.00  0.00    -0.357 OA
ATOM     34  H10 UNL     1      14.101   8.014  21.229  1.00  0.00     0.217 HD
ENDBRANCH   9  33
BRANCH   8  35
HETATM   35  N10 UNL     1      15.083  10.177  22.328  1.00  0.00    -0.364 N
ATOM     36  H10 UNL     1      16.090  10.334  22.370  1.00  0.00     0.161 HD
BRANCH  35  37
HETATM   37  C10 UNL     1      14.483   9.545  23.438  1.00  0.00     0.222 C
HETATM   38  N11 UNL     1      13.751   8.340  23.141  1.00  0.00    -0.120 NA
HETATM   39  N12 UNL     1      13.549   7.809  24.451  1.00  0.00    -0.144 NA
HETATM   40  C11 UNL     1      14.874   7.853  25.064  1.00  0.00     0.165 C
HETATM   41  C12 UNL     1      15.593   8.961  24.325  1.00  0.00     0.173 C
BRANCH  41  42
HETATM   42  O9  UNL     1      16.584   8.464  23.486  1.00  0.00    -0.391 OA
ATOM     43  H9  UNL     1      16.977   7.715  23.918  1.00  0.00     0.210 HD
ENDBRANCH  41  42
ENDBRANCH  35  37
ENDBRANCH   8  35
BRANCH   6  44
HETATM   44  S3  UNL     1      14.208  14.435  21.883  1.00  0.00     0.388 S
HETATM   45  O4  UNL     1      15.066  14.952  20.762  1.00  0.00    -0.173 OA
HETATM   46  O5  UNL     1      12.774  14.647  21.484  1.00  0.00    -0.173 OA
BRANCH  44  47
HETATM   47  O6  UNL     1      14.517  15.263  23.340  1.00  0.00    -0.071 OA
BRANCH  47  48
HETATM   48  N9  UNL     1      15.214  14.624  24.330  1.00  0.00     0.022 N
HETATM   49  O7  UNL     1      16.385  14.278  24.095  1.00  0.00    -0.510 OA
HETATM   50  O8  UNL     1      14.649  14.371  25.541  1.00  0.00    -0.510 OA
ENDBRANCH  47  48
ENDBRANCH  44  47
ENDBRANCH   6  44
TORSDOF 12
ENDMDL