MODEL 4
REMARK VINA RESULT: -10.135929061      0.813      1.579
REMARK  13 active torsions:
REMARK  status: ('A' for Active; 'I' for Inactive)
REMARK    1  A    between atoms: C2_7  and  N3_8
REMARK    2  A    between atoms: C4_10  and  O1_11
REMARK    3  A    between atoms: C5_13  and  O2_14
REMARK    4  A    between atoms: C6_16  and  C7_17
REMARK    5  A    between atoms: C7_17  and  O3_18
REMARK    6  A    between atoms: N5_26  and  C12_27
REMARK    7  A    between atoms: C12_27  and  C13_28
REMARK    8  A    between atoms: C13_28  and  C14_29
REMARK    9  A    between atoms: C14_29  and  N6_30
REMARK       I    between atoms: N6_30  and  C15_32
REMARK   10  A    between atoms: C15_32  and  C16_34
REMARK   11  A    between atoms: N7_36  and  C18_37
REMARK   12  A    between atoms: C21_40  and  N8_41
REMARK   13  A    between atoms: N11_50  and  O5_51
ROOT
HETATM    1  C14 UNL     1       6.982   3.667  18.398  1.00  0.00     0.124 C
ENDROOT
BRANCH   1   2
HETATM    2  C13 UNL     1       5.950   4.071  17.398  1.00  0.00     0.040 C
BRANCH   2   3
HETATM    3  C12 UNL     1       6.154   5.416  16.783  1.00  0.00     0.131 C
BRANCH   3   4
HETATM    4  N5  UNL     1       5.107   6.369  17.151  1.00  0.00    -0.342 N
HETATM    5  C8  UNL     1       4.770   7.422  16.376  1.00  0.00     0.137 A
HETATM    6  N4  UNL     1       5.247   7.853  15.172  1.00  0.00    -0.175 N
HETATM    7  C9  UNL     1       3.763   8.083  17.039  1.00  0.00     0.054 A
HETATM    8  C2  UNL     1       4.731   8.953  14.598  1.00  0.00     0.684 A
ATOM      9  H4  UNL     1       5.996   7.340  14.707  1.00  0.00     0.186 HD
HETATM   10  N2  UNL     1       3.742   9.598  15.255  1.00  0.00    -0.176 N
HETATM   11  C1  UNL     1       3.246   9.208  16.439  1.00  0.00     0.128 A
ATOM     12  H2  UNL     1       3.348  10.434  14.823  1.00  0.00     0.186 HD
HETATM   13  N1  UNL     1       2.304   9.841  17.041  1.00  0.00    -0.384 N
ATOM     14  H12 UNL     1       1.920  10.675  16.596  1.00  0.00     0.157 HD
ATOM     15  H11 UNL     1       1.926   9.545  17.941  1.00  0.00     0.157 HD
HETATM   16  C10 UNL     1       3.515   7.399  18.217  1.00  0.00     0.036 A
HETATM   17  C11 UNL     1       4.372   6.320  18.270  1.00  0.00     0.093 A
BRANCH   8  18
HETATM   18  N3  UNL     1       5.208   9.434  13.334  1.00  0.00    -0.206 N
HETATM   19  C3  UNL     1       4.982  10.732  12.758  1.00  0.00     0.176 C
HETATM   20  C4  UNL     1       6.060  10.923  11.710  1.00  0.00     0.167 C
HETATM   21  C5  UNL     1       6.818   9.634  11.610  1.00  0.00     0.174 C
HETATM   22  C6  UNL     1       6.008   8.660  12.438  1.00  0.00     0.157 C
BRANCH  20  23
HETATM   23  O1  UNL     1       5.471  11.205  10.481  1.00  0.00    -0.391 OA
ATOM     24  H1  UNL     1       4.700  10.663  10.367  1.00  0.00     0.210 HD
ENDBRANCH  20  23
BRANCH  21  25
HETATM   25  O2  UNL     1       8.119   9.771  12.133  1.00  0.00    -0.391 OA
ATOM     26  H2  UNL     1       8.507   8.921  12.307  1.00  0.00     0.210 HD
ENDBRANCH  21  25
BRANCH  22  27
HETATM   27  C7  UNL     1       5.093   7.913  11.486  1.00  0.00     0.192 C
BRANCH  27  28
HETATM   28  O3  UNL     1       5.559   7.966  10.176  1.00  0.00    -0.399 OA
ATOM     29  H3  UNL     1       5.661   8.861   9.875  1.00  0.00     0.209 HD
ENDBRANCH  27  28
ENDBRANCH  22  27
ENDBRANCH   8  18
ENDBRANCH   3   4
ENDBRANCH   2   3
ENDBRANCH   1   2
BRANCH   1  30
HETATM   30  N6  UNL     1       8.182   4.441  18.285  1.00  0.00    -0.356 N
HETATM   31  C15 UNL     1       8.842   4.983  19.404  1.00  0.00     0.271 C
HETATM   32  O4  UNL     1       8.348   4.774  20.547  1.00  0.00    -0.266 OA
ATOM     33  H6  UNL     1       8.574   4.606  17.358  1.00  0.00     0.162 HD
BRANCH  31  34
HETATM   34  C16 UNL     1      10.067   5.769  19.253  1.00  0.00     0.134 A
HETATM   35  C17 UNL     1      10.554   6.698  20.140  1.00  0.00     0.155 A
HETATM   36  N7  UNL     1      11.710   7.175  19.592  1.00  0.00    -0.245 N
HETATM   37  N12 UNL     1      11.875   6.541  18.436  1.00  0.00    -0.235 N
HETATM   38  N13 UNL     1      10.901   5.699  18.222  1.00  0.00    -0.279 N
ATOM     39  H12 UNL     1      12.658   6.692  17.800  1.00  0.00     0.209 HD
ATOM     40  H13 UNL     1      10.799   5.093  17.408  1.00  0.00     0.189 HD
BRANCH  36  41
HETATM   41  C18 UNL     1      12.579   8.153  20.129  1.00  0.00     0.128 A
HETATM   42  C19 UNL     1      13.023   8.099  21.435  1.00  0.00     0.056 A
HETATM   43  C20 UNL     1      13.881   9.067  21.960  1.00  0.00     0.056 A
HETATM   44  C21 UNL     1      14.343   9.048  23.256  1.00  0.00     0.114 A
HETATM   45  C23 UNL     1      14.279  10.093  21.121  1.00  0.00     0.151 A
HETATM   46  N9  UNL     1      15.173  10.052  23.633  1.00  0.00    -0.338 N
HETATM   47  C22 UNL     1      15.552  11.039  22.817  1.00  0.00     0.183 A
ATOM     48  H9  UNL     1      15.527  10.054  24.590  1.00  0.00     0.168 HD
HETATM   49  N10 UNL     1      15.106  11.066  21.557  1.00  0.00    -0.336 N
ATOM     50  H10 UNL     1      15.390  11.816  20.928  1.00  0.00     0.168 HD
HETATM   51  N11 UNL     1      13.846  10.144  19.848  1.00  0.00    -0.168 N
HETATM   52  C24 UNL     1      13.006   9.194  19.341  1.00  0.00     0.302 A
HETATM   53  O6  UNL     1      12.646   9.310  18.140  1.00  0.00    -0.263 OA
BRANCH  44  54
HETATM   54  N8  UNL     1      14.006   8.124  24.064  1.00  0.00    -0.385 N
ATOM     55  H82 UNL     1      13.205   8.228  24.686  1.00  0.00     0.157 HD
ATOM     56  H81 UNL     1      14.529   7.250  24.116  1.00  0.00     0.157 HD
ENDBRANCH  44  54
BRANCH  51  57
HETATM   57  O5  UNL     1      14.264  11.178  19.052  1.00  0.00    -0.278 OA
ATOM     58  H5  UNL     1      13.728  11.425  18.308  1.00  0.00     0.245 HD
ENDBRANCH  51  57
ENDBRANCH  36  41
ENDBRANCH  31  34
ENDBRANCH   1  30
TORSDOF 13
ENDMDL