MODEL 2
REMARK VINA RESULT: -8.852248008      1.636      2.696
REMARK  16 active torsions:
REMARK  status: ('A' for Active; 'I' for Inactive)
REMARK    1  A    between atoms: C3_3  and  C4_4
REMARK    2  A    between atoms: C4_4  and  C5_5
REMARK    3  A    between atoms: C11_18  and  C12_19
REMARK    4  A    between atoms: C14_24  and  O4_25
REMARK    5  A    between atoms: C16_28  and  O5_29
REMARK    6  A    between atoms: C17_31  and  O6_32
REMARK    7  A    between atoms: O6_32  and  C18_33
REMARK    8  A    between atoms: C19_37  and  O7_38
REMARK    9  A    between atoms: C20_41  and  N6_42
REMARK   10  A    between atoms: N7_44  and  O9_46
REMARK   11  A    between atoms: O9_46  and  C21_47
REMARK   12  A    between atoms: C21_47  and  C22_48
REMARK   13  A    between atoms: C22_48  and  N8_49
REMARK   14  A    between atoms: C23_53  and  N9_54
REMARK   15  A    between atoms: N9_54  and  O10_55
REMARK   16  A    between atoms: N9_54  and  O11_57
ROOT
HETATM    1  C1  UNL     1      14.207  10.706  22.627  1.00  0.00     0.051 C
HETATM    2  C2  UNL     1      13.840  12.059  22.114  1.00  0.00    -0.021 A
HETATM    3  C3  UNL     1      12.847  12.126  21.146  1.00  0.00     0.009 A
HETATM    4  C16 UNL     1      12.525  13.410  20.683  1.00  0.00     0.112 A
HETATM    5  C17 UNL     1      13.165  14.526  21.168  1.00  0.00     0.138 A
HETATM    6  C20 UNL     1      14.142  14.405  22.127  1.00  0.00     0.112 A
HETATM    7  C23 UNL     1      14.492  13.165  22.612  1.00  0.00     0.103 A
ENDROOT
BRANCH   3   8
HETATM    8  C4  UNL     1      12.184  11.029  20.543  1.00  0.00     0.032 C
BRANCH   8   9
HETATM    9  C5  UNL     1      12.296  10.203  19.583  1.00  0.00     0.043 A
HETATM   10  C6  UNL     1      13.029  10.498  18.390  1.00  0.00     0.141 A
HETATM   11  N1  UNL     1      13.716  11.581  17.997  1.00  0.00    -0.327 N
HETATM   12  N3  UNL     1      12.963   9.448  17.581  1.00  0.00    -0.243 N
HETATM   13  C7  UNL     1      14.332  11.638  16.823  1.00  0.00     0.101 A
ATOM     14  H1  UNL     1      13.766  12.387  18.621  1.00  0.00     0.169 HD
HETATM   15  N2  UNL     1      14.998  12.706  16.455  1.00  0.00    -0.385 N
HETATM   16  C8  UNL     1      14.277  10.564  15.972  1.00  0.00     0.067 A
ATOM     17  H22 UNL     1      15.039  13.504  17.087  1.00  0.00     0.157 HD
ATOM     18  H21 UNL     1      15.472  12.749  15.552  1.00  0.00     0.157 HD
HETATM   19  C9  UNL     1      13.578   9.469  16.379  1.00  0.00     0.122 A
HETATM   20  N4  UNL     1      12.248   8.506  18.157  1.00  0.00    -0.255 N
HETATM   21  C10 UNL     1      11.917   7.269  17.709  1.00  0.00     0.140 A
HETATM   22  C15 UNL     1      11.828   8.935  19.378  1.00  0.00     0.107 A
HETATM   23  C11 UNL     1      11.145   6.382  18.448  1.00  0.00     0.111 A
HETATM   24  C13 UNL     1      10.707   6.789  19.684  1.00  0.00     0.225 A
HETATM   25  O3  UNL     1      10.005   6.019  20.388  1.00  0.00    -0.284 OA
HETATM   26  C14 UNL     1      11.054   8.049  20.122  1.00  0.00     0.147 A
BRANCH  23  27
HETATM   27  C12 UNL     1      10.842   5.078  17.883  1.00  0.00     0.215 C
HETATM   28  O1  UNL     1      11.124   4.040  18.533  1.00  0.00    -0.644 OA
HETATM   29  O2  UNL     1      10.247   4.917  16.643  1.00  0.00    -0.644 OA
ENDBRANCH  23  27
BRANCH  26  30
HETATM   30  O4  UNL     1      10.604   8.418  21.347  1.00  0.00    -0.355 OA
ATOM     31  H4  UNL     1      11.131   9.046  21.827  1.00  0.00     0.218 HD
ENDBRANCH  26  30
ENDBRANCH   8   9
ENDBRANCH   3   8
BRANCH   4  32
HETATM   32  O5  UNL     1      11.552  13.609  19.719  1.00  0.00    -0.357 OA
ATOM     33  H5  UNL     1      11.717  14.142  18.949  1.00  0.00     0.217 HD
ENDBRANCH   4  32
BRANCH   7  34
HETATM   34  N9  UNL     1      15.506  13.060  23.604  1.00  0.00    -0.033 NA
BRANCH  34  35
HETATM   35  O10 UNL     1      15.121  13.617  24.778  1.00  0.00    -0.284 OA
ATOM     36  H10 UNL     1      14.388  14.211  24.664  1.00  0.00     0.240 HD
ENDBRANCH  34  35
BRANCH  34  37
HETATM   37  O11 UNL     1      16.699  13.541  23.181  1.00  0.00    -0.284 OA
ATOM     38  H11 UNL     1      17.435  13.060  23.542  1.00  0.00     0.240 HD
ENDBRANCH  34  37
ENDBRANCH   7  34
BRANCH   5  39
HETATM   39  O6  UNL     1      12.871  15.817  20.730  1.00  0.00    -0.291 OA
BRANCH  39  40
HETATM   40  C18 UNL     1      11.809  16.579  21.236  1.00  0.00     0.484 C
HETATM   41  N5  UNL     1      10.533  16.217  20.641  1.00  0.00     0.026 N
HETATM   42  C19 UNL     1      10.023  15.912  21.969  1.00  0.00     0.476 C
ATOM     43  H52 UNL     1      10.040  16.875  20.039  1.00  0.00     0.289 HD
ATOM     44  H51 UNL     1      10.490  15.518  19.900  1.00  0.00     0.289 HD
HETATM   45  O8  UNL     1      11.310  16.123  22.475  1.00  0.00    -0.283 OA
BRANCH  42  46
HETATM   46  O7  UNL     1       9.584  14.591  22.095  1.00  0.00    -0.349 OA
ATOM     47  H7  UNL     1       9.020  14.458  22.848  1.00  0.00     0.214 HD
ENDBRANCH  42  46
ENDBRANCH  39  40
ENDBRANCH   5  39
BRANCH   6  48
HETATM   48  N6  UNL     1      14.822  15.552  22.650  1.00  0.00    -0.277 N
HETATM   49  N7  UNL     1      15.818  15.967  21.983  1.00  0.00    -0.207 N
ATOM     50  H7  UNL     1      16.070  15.469  21.130  1.00  0.00     0.216 HD
ATOM     51  H6  UNL     1      14.522  16.010  23.511  1.00  0.00     0.189 HD
BRANCH  49  52
HETATM   52  O9  UNL     1      16.567  17.042  22.345  1.00  0.00    -0.263 OA
BRANCH  52  53
HETATM   53  C21 UNL     1      17.737  16.855  23.107  1.00  0.00     0.230 C
BRANCH  53  54
HETATM   54  C22 UNL     1      17.396  16.986  24.587  1.00  0.00     0.258 C
BRANCH  54  55
HETATM   55  N8  UNL     1      17.125  15.710  25.196  1.00  0.00    -0.077 N
ATOM     56  H83 UNL     1      16.738  15.052  24.520  1.00  0.00     0.274 HD
ATOM     57  H82 UNL     1      17.990  15.218  25.423  1.00  0.00     0.274 HD
ATOM     58  H81 UNL     1      16.523  15.795  26.014  1.00  0.00     0.274 HD
ENDBRANCH  54  55
ENDBRANCH  53  54
ENDBRANCH  52  53
ENDBRANCH  49  52
ENDBRANCH   6  48
TORSDOF 16
ENDMDL