MODEL 3
REMARK VINA RESULT: -9.322995990      1.139      1.335
REMARK  14 active torsions:
REMARK  status: ('A' for Active; 'I' for Inactive)
REMARK    1  A    between atoms: N1_1  and  C1_4
REMARK    2  A    between atoms: C2_7  and  N3_8
REMARK    3  A    between atoms: C5_15  and  C6_16
REMARK    4  A    between atoms: C6_16  and  N5_17
REMARK    5  A    between atoms: N8_24  and  N9_25
REMARK    6  A    between atoms: N9_25  and  C9_27
REMARK    7  A    between atoms: C9_27  and  N10_29
REMARK    8  A    between atoms: N10_29  and  C10_31
REMARK    9  A    between atoms: C12_33  and  O2_34
REMARK   10  A    between atoms: C14_37  and  N11_38
REMARK   11  A    between atoms: C16_40  and  C17_41
REMARK   12  A    between atoms: C17_41  and  O3_42
REMARK   13  A    between atoms: C18_48  and  C19_49
REMARK   14  A    between atoms: C19_49  and  O4_50
ROOT
HETATM    1  N5  UNL     1       8.612   5.277  18.007  1.00  0.00    -0.253 N
HETATM    2  N6  UNL     1       9.191   4.500  17.108  1.00  0.00    -0.018 NA
HETATM    3  N7  UNL     1      10.447   4.864  16.926  1.00  0.00    -0.275 N
ATOM      4  H7  UNL     1      11.112   4.428  16.286  1.00  0.00     0.184 HD
HETATM    5  C7  UNL     1      10.697   5.915  17.736  1.00  0.00     0.162 A
HETATM    6  C8  UNL     1      11.821   6.703  17.970  1.00  0.00     0.299 A
HETATM    7  O1  UNL     1      12.819   6.356  17.278  1.00  0.00    -0.263 OA
HETATM    8  N8  UNL     1      11.798   7.701  18.839  1.00  0.00    -0.201 N
HETATM    9  C18 UNL     1      10.591   7.896  19.485  1.00  0.00     0.132 A
HETATM   10  N14 UNL     1       9.504   7.147  19.270  1.00  0.00    -0.326 N
ATOM     11  H14 UNL     1       8.641   7.341  19.778  1.00  0.00     0.169 HD
HETATM   12  C20 UNL     1       9.551   6.158  18.398  1.00  0.00     0.156 A
ENDROOT
BRANCH   8  13
HETATM   13  N9  UNL     1      12.851   8.509  19.105  1.00  0.00    -0.265 N
ATOM     14  H9  UNL     1      13.433   8.090  19.831  1.00  0.00     0.190 HD
BRANCH  13  15
HETATM   15  C9  UNL     1      13.395   9.721  18.710  1.00  0.00     0.187 C
HETATM   16  S1  UNL     1      13.531  10.245  17.208  1.00  0.00    -0.040 SA
BRANCH  15  17
HETATM   17  N10 UNL     1      13.882  10.661  19.725  1.00  0.00    -0.359 N
ATOM     18  H10 UNL     1      14.866  10.928  19.706  1.00  0.00     0.162 HD
BRANCH  17  19
HETATM   19  C10 UNL     1      13.056  11.215  20.726  1.00  0.00     0.111 C
HETATM   20  C11 UNL     1      12.145  12.259  20.133  1.00  0.00     0.059 C
HETATM   21  C12 UNL     1      13.084  13.475  20.055  1.00  0.00     0.122 C
HETATM   22  C13 UNL     1      14.174  13.249  21.057  1.00  0.00     0.061 C
HETATM   23  C14 UNL     1      13.781  12.002  21.765  1.00  0.00     0.134 C
BRANCH  21  24
HETATM   24  O2  UNL     1      12.344  14.620  20.325  1.00  0.00    -0.395 OA
ATOM     25  H2  UNL     1      12.840  15.165  20.924  1.00  0.00     0.210 HD
ENDBRANCH  21  24
BRANCH  23  26
HETATM   26  N11 UNL     1      14.883  11.303  22.372  1.00  0.00    -0.280 N
HETATM   27  C15 UNL     1      14.748  10.101  22.956  1.00  0.00     0.140 A
HETATM   28  C16 UNL     1      15.973   9.695  23.440  1.00  0.00     0.067 A
HETATM   29  N12 UNL     1      16.835  10.685  23.128  1.00  0.00    -0.287 N
HETATM   30  N13 UNL     1      16.145  11.620  22.495  1.00  0.00    -0.240 N
ATOM     31  H12 UNL     1      17.832  10.708  23.342  1.00  0.00     0.188 HD
ATOM     32  H13 UNL     1      16.552  12.487  22.143  1.00  0.00     0.208 HD
BRANCH  28  33
HETATM   33  C17 UNL     1      16.288   8.416  24.165  1.00  0.00     0.224 C
BRANCH  33  34
HETATM   34  O3  UNL     1      15.806   8.594  25.481  1.00  0.00    -0.395 OA
ATOM     35  H3  UNL     1      14.859   8.603  25.409  1.00  0.00     0.209 HD
ENDBRANCH  33  34
ENDBRANCH  28  33
ENDBRANCH  23  26
ENDBRANCH  17  19
ENDBRANCH  15  17
ENDBRANCH  13  15
ENDBRANCH   8  13
BRANCH   9  36
HETATM   36  C19 UNL     1      10.477   8.984  20.482  1.00  0.00     0.242 C
BRANCH  36  37
HETATM   37  O4  UNL     1      11.136   8.571  21.640  1.00  0.00    -0.393 OA
ATOM     38  H4  UNL     1      11.717   7.858  21.403  1.00  0.00     0.209 HD
ENDBRANCH  36  37
ENDBRANCH   9  36
BRANCH   1  39
HETATM   39  C6  UNL     1       7.255   5.153  18.436  1.00  0.00     0.207 C
BRANCH  39  40
HETATM   40  C5  UNL     1       6.247   5.607  17.468  1.00  0.00     0.046 A
HETATM   41  C4  UNL     1       5.059   6.154  17.909  1.00  0.00     0.115 A
HETATM   42  N4  UNL     1       4.107   6.585  17.056  1.00  0.00    -0.358 N
HETATM   43  C3  UNL     1       4.282   6.496  15.733  1.00  0.00     0.121 A
ATOM     44  H4  UNL     1       3.243   6.983  17.424  1.00  0.00     0.165 HD
HETATM   45  C2  UNL     1       3.300   6.942  14.856  1.00  0.00     0.145 A
HETATM   46  C21 UNL     1       5.465   5.951  15.273  1.00  0.00     0.152 A
HETATM   47  N2  UNL     1       3.495   6.846  13.529  1.00  0.00    -0.175 N
HETATM   48  C1  UNL     1       4.649   6.314  13.089  1.00  0.00     0.679 A
ATOM     49  H2  UNL     1       2.784   7.168  12.872  1.00  0.00     0.186 HD
HETATM   50  N16 UNL     1       5.620   5.874  13.938  1.00  0.00    -0.174 N
ATOM     51  H16 UNL     1       6.479   5.479  13.556  1.00  0.00     0.186 HD
HETATM   52  N15 UNL     1       6.414   5.522  16.125  1.00  0.00    -0.341 N
ATOM     53  H15 UNL     1       7.277   5.125  15.753  1.00  0.00     0.167 HD
BRANCH  45  54
HETATM   54  N3  UNL     1       2.191   7.453  15.273  1.00  0.00    -0.383 N
ATOM     55  H32 UNL     1       2.127   7.952  16.161  1.00  0.00     0.157 HD
ATOM     56  H31 UNL     1       1.363   7.347  14.689  1.00  0.00     0.157 HD
ENDBRANCH  45  54
BRANCH  48  57
HETATM   57  N1  UNL     1       4.803   6.236  11.806  1.00  0.00    -0.234 N
ATOM     58  H12 UNL     1       4.002   6.290  11.178  1.00  0.00     0.174 HD
ATOM     59  H11 UNL     1       5.757   6.119  11.464  1.00  0.00     0.174 HD
ENDBRANCH  48  57
ENDBRANCH  39  40
ENDBRANCH   1  39
TORSDOF 14
ENDMDL