MODEL 1
REMARK VINA RESULT: -9.536032193      0.000      0.000
REMARK  17 active torsions:
REMARK  status: ('A' for Active; 'I' for Inactive)
REMARK    1  A    between atoms: C1_2  and  C2_3
REMARK    2  A    between atoms: C1_2  and  C17_29
REMARK    3  A    between atoms: C2_3  and  N1_4
REMARK    4  A    between atoms: N2_7  and  C5_8
REMARK    5  A    between atoms: C5_8  and  C6_9
REMARK    6  A    between atoms: C6_9  and  O2_10
REMARK    7  A    between atoms: C6_9  and  C7_12
REMARK    8  A    between atoms: C7_12  and  N3_13
REMARK    9  A    between atoms: C9_15  and  O3_16
REMARK   10  A    between atoms: C13_21  and  O4_22
REMARK   11  A    between atoms: C17_29  and  N5_30
REMARK   12  A    between atoms: C18_31  and  O6_32
REMARK   13  A    between atoms: C21_36  and  O7_37
REMARK   14  A    between atoms: C22_39  and  O8_40
REMARK   15  A    between atoms: C23_42  and  O9_43
REMARK   16  A    between atoms: C24_45  and  O10_46
REMARK   17  A    between atoms: C25_48  and  O11_49
ROOT
HETATM    1  C2  UNL     1      14.006  10.773  21.974  1.00  0.00     0.138 C
ENDROOT
BRANCH   1   2
HETATM    2  C1  UNL     1      14.437  11.859  21.101  1.00  0.00     0.182 C
HETATM    3  O1  UNL     1      14.326  11.768  19.895  1.00  0.00    -0.290 OA
BRANCH   2   4
HETATM    4  C17 UNL     1      15.026  13.105  21.643  1.00  0.00     0.217 C
BRANCH   4   5
HETATM    5  N5  UNL     1      16.150  13.562  20.813  1.00  0.00    -0.300 N
HETATM    6  C18 UNL     1      16.309  14.641  20.072  1.00  0.00     0.151 A
HETATM    7  C19 UNL     1      17.545  14.651  19.472  1.00  0.00     0.009 A
HETATM    8  C20 UNL     1      18.187  13.506  19.868  1.00  0.00     0.035 A
HETATM    9  C26 UNL     1      17.997  15.740  18.582  1.00  0.00     0.078 C
HETATM   10  C21 UNL     1      17.303  12.838  20.703  1.00  0.00     0.154 A
HETATM   11  C22 UNL     1      19.538  12.972  19.552  1.00  0.00     0.187 C
HETATM   12  C23 UNL     1      20.217  13.958  18.610  1.00  0.00     0.182 C
HETATM   13  C24 UNL     1      19.371  14.017  17.367  1.00  0.00     0.178 C
HETATM   14  C25 UNL     1      18.530  15.243  17.265  1.00  0.00     0.153 C
BRANCH   6  15
HETATM   15  O6  UNL     1      15.352  15.633  19.922  1.00  0.00    -0.345 OA
ATOM     16  H6  UNL     1      15.472  16.537  20.189  1.00  0.00     0.219 HD
ENDBRANCH   6  15
BRANCH  10  17
HETATM   17  O7  UNL     1      17.578  11.623  21.317  1.00  0.00    -0.345 OA
ATOM     18  H7  UNL     1      18.437  11.290  21.551  1.00  0.00     0.219 HD
ENDBRANCH  10  17
BRANCH  11  19
HETATM   19  O8  UNL     1      20.279  12.744  20.687  1.00  0.00    -0.388 OA
ATOM     20  H8  UNL     1      21.210  12.840  20.528  1.00  0.00     0.210 HD
ENDBRANCH  11  19
BRANCH  12  21
HETATM   21  O9  UNL     1      21.497  13.487  18.293  1.00  0.00    -0.390 OA
ATOM     22  H9  UNL     1      21.886  14.053  17.636  1.00  0.00     0.210 HD
ENDBRANCH  12  21
BRANCH  13  23
HETATM   23  O10 UNL     1      20.251  13.998  16.257  1.00  0.00    -0.390 OA
ATOM     24  H10 UNL     1      19.950  13.314  15.669  1.00  0.00     0.210 HD
ENDBRANCH  13  23
BRANCH  14  25
HETATM   25  O11 UNL     1      17.558  15.041  16.306  1.00  0.00    -0.393 OA
ATOM     26  H11 UNL     1      16.724  15.348  16.642  1.00  0.00     0.210 HD
ENDBRANCH  14  25
ENDBRANCH   4   5
ENDBRANCH   2   4
ENDBRANCH   1   2
BRANCH   1  27
HETATM   27  N1  UNL     1      13.104   9.826  21.497  1.00  0.00    -0.383 N
HETATM   28  C3  UNL     1      11.793  10.161  21.126  1.00  0.00     0.152 C
HETATM   29  C4  UNL     1      11.249   9.262  20.012  1.00  0.00     0.292 C
HETATM   30  N2  UNL     1      11.602   7.881  20.265  1.00  0.00     0.094 N
HETATM   31  C15 UNL     1      12.041   7.672  21.627  1.00  0.00     0.292 C
HETATM   32  C16 UNL     1      13.316   8.449  21.835  1.00  0.00     0.152 C
BRANCH  30  33
HETATM   33  C5  UNL     1      12.516   7.315  19.335  1.00  0.00     0.305 C
BRANCH  33  34
HETATM   34  C6  UNL     1      11.810   6.596  18.182  1.00  0.00     0.164 C
BRANCH  34  35
HETATM   35  O2  UNL     1      12.821   6.015  17.433  1.00  0.00    -0.392 OA
ATOM     36  H2  UNL     1      12.472   5.181  17.140  1.00  0.00     0.210 HD
ENDBRANCH  34  35
BRANCH  34  37
HETATM   37  C7  UNL     1      10.953   5.493  18.812  1.00  0.00     0.166 C
BRANCH  37  38
HETATM   38  N3  UNL     1       9.602   5.535  18.299  1.00  0.00    -0.304 N
HETATM   39  C8  UNL     1       9.201   6.448  17.389  1.00  0.00     0.134 A
HETATM   40  C9  UNL     1       7.889   6.446  16.928  1.00  0.00     0.108 A
HETATM   41  C10 UNL     1       7.004   5.506  17.404  1.00  0.00     0.081 A
HETATM   42  C11 UNL     1       5.680   5.259  17.147  1.00  0.00     0.037 A
HETATM   43  N4  UNL     1       7.420   4.605  18.308  1.00  0.00    -0.241 N
HETATM   44  C12 UNL     1       5.280   4.183  17.910  1.00  0.00     0.059 A
HETATM   45  C13 UNL     1       6.395   3.795  18.629  1.00  0.00     0.151 A
HETATM   46  C14 UNL     1       8.714   4.629  18.745  1.00  0.00     0.335 A
HETATM   47  O5  UNL     1       9.077   3.766  19.600  1.00  0.00    -0.246 OA
BRANCH  40  48
HETATM   48  O3  UNL     1       7.469   7.380  15.995  1.00  0.00    -0.357 OA
ATOM     49  H3  UNL     1       7.441   7.160  15.071  1.00  0.00     0.217 HD
ENDBRANCH  40  48
BRANCH  45  50
HETATM   50  O4  UNL     1       6.474   2.743  19.542  1.00  0.00    -0.346 OA
ATOM     51  H4  UNL     1       7.207   2.538  20.110  1.00  0.00     0.219 HD
ENDBRANCH  45  50
ENDBRANCH  37  38
ENDBRANCH  34  37
ENDBRANCH  33  34
ENDBRANCH  30  33
ENDBRANCH   1  27
TORSDOF 17
ENDMDL