MODEL 4
REMARK VINA RESULT: -9.571375812      2.238      3.458
REMARK  17 active torsions:
REMARK  status: ('A' for Active; 'I' for Inactive)
REMARK    1  A    between atoms: C3_6  and  C4_7
REMARK    2  A    between atoms: C4_7  and  O2_8
REMARK    3  A    between atoms: C4_7  and  N2_10
REMARK    4  A    between atoms: C5_12  and  C6_13
REMARK    5  A    between atoms: C9_18  and  O4_19
REMARK    6  A    between atoms: C10_21  and  O5_22
REMARK    7  A    between atoms: N4_28  and  N5_29
REMARK    8  A    between atoms: C14_31  and  N6_32
REMARK    9  A    between atoms: C14_31  and  C15_37
REMARK   10  A    between atoms: N6_32  and  N7_34
REMARK   11  A    between atoms: C15_37  and  O9_38
REMARK   12  A    between atoms: C15_37  and  C16_40
REMARK   13  A    between atoms: C16_40  and  O10_41
REMARK   14  A    between atoms: C16_40  and  C17_43
REMARK   15  A    between atoms: C17_43  and  O11_44
REMARK   16  A    between atoms: C18_48  and  C19_49
REMARK   17  A    between atoms: C20_50  and  C21_51
ROOT
HETATM    1  C6  UNL     1      11.511   7.605  19.707  1.00  0.00     0.260 C
HETATM    2  N3  UNL     1      10.696   7.955  20.851  1.00  0.00    -0.062 NA
HETATM    3  O3  UNL     1      11.490   7.819  21.992  1.00  0.00    -0.241 OA
HETATM    4  C7  UNL     1      12.771   8.299  22.253  1.00  0.00     0.112 A
HETATM    5  C8  UNL     1      13.122   7.871  23.505  1.00  0.00     0.079 A
HETATM    6  C9  UNL     1      14.375   8.222  24.011  1.00  0.00     0.101 A
HETATM    7  C10 UNL     1      15.256   8.987  23.276  1.00  0.00     0.099 A
HETATM    8  C11 UNL     1      14.896   9.418  22.008  1.00  0.00     0.059 A
HETATM    9  C12 UNL     1      13.665   9.075  21.507  1.00  0.00     0.073 A
HETATM   10  C13 UNL     1      13.569   9.661  20.173  1.00  0.00     0.294 C
HETATM   11  O6  UNL     1      14.464  10.528  20.017  1.00  0.00    -0.264 OA
HETATM   12  N4  UNL     1      12.748   9.522  19.017  1.00  0.00    -0.157 N
HETATM   13  N8  UNL     1      11.692   8.649  18.753  1.00  0.00    -0.285 N
ATOM     14  H8  UNL     1      11.093   8.751  17.934  1.00  0.00     0.184 HD
ENDROOT
BRANCH   1  15
HETATM   15  C5  UNL     1      10.765   6.498  19.000  1.00  0.00     0.104 C
HETATM   16  N2  UNL     1       9.585   6.267  19.436  1.00  0.00    -0.368 N
ATOM     17  H2  UNL     1       9.239   6.834  20.210  1.00  0.00     0.161 HD
BRANCH  16  18
HETATM   18  C4  UNL     1       8.720   5.258  18.899  1.00  0.00     0.272 C
BRANCH  18  19
HETATM   19  C3  UNL     1       8.497   5.440  17.446  1.00  0.00     0.102 A
HETATM   20  N1  UNL     1       9.341   5.197  16.422  1.00  0.00    -0.259 N
HETATM   21  O1  UNL     1       8.757   5.489  15.304  1.00  0.00    -0.241 OA
ATOM     22  H1  UNL     1      10.291   4.838  16.514  1.00  0.00     0.194 HD
HETATM   23  C2  UNL     1       7.543   5.924  15.519  1.00  0.00     0.093 A
HETATM   24  C1  UNL     1       6.562   6.358  14.489  1.00  0.00     0.080 C
HETATM   25  C18 UNL     1       7.326   5.911  16.891  1.00  0.00     0.078 A
BRANCH  25  26
HETATM   26  C19 UNL     1       6.108   6.317  17.563  1.00  0.00    -0.051 C
HETATM   27  C20 UNL     1       5.083   6.660  18.104  1.00  0.00     0.010 C
BRANCH  27  28
HETATM   28  C21 UNL     1       3.859   7.064  18.724  1.00  0.00     0.258 C
HETATM   29  O12 UNL     1       2.869   6.309  18.882  1.00  0.00    -0.637 OA
HETATM   30  O13 UNL     1       3.745   8.371  19.180  1.00  0.00    -0.637 OA
ENDBRANCH  27  28
ENDBRANCH  25  26
ENDBRANCH  18  19
BRANCH  18  31
HETATM   31  O2  UNL     1       9.385   4.019  19.038  1.00  0.00    -0.371 OA
ATOM     32  H2  UNL     1       8.977   3.432  18.412  1.00  0.00     0.212 HD
ENDBRANCH  18  31
ENDBRANCH  16  18
ENDBRANCH   1  15
BRANCH  12  33
HETATM   33  N5  UNL     1      12.995  10.362  17.981  1.00  0.00    -0.261 N
HETATM   34  C14 UNL     1      13.586  10.201  16.873  1.00  0.00     0.149 C
ATOM     35  H5  UNL     1      12.635  11.306  18.122  1.00  0.00     0.190 HD
BRANCH  34  36
HETATM   36  N6  UNL     1      13.621  11.393  16.051  1.00  0.00    -0.225 N
ATOM     37  H6  UNL     1      12.882  11.532  15.362  1.00  0.00     0.194 HD
BRANCH  36  38
HETATM   38  N7  UNL     1      14.622  12.357  16.160  1.00  0.00    -0.037 N
HETATM   39  O7  UNL     1      14.856  12.798  17.310  1.00  0.00    -0.516 OA
HETATM   40  O8  UNL     1      15.329  12.813  15.065  1.00  0.00    -0.516 OA
ENDBRANCH  36  38
ENDBRANCH  34  36
BRANCH  34  41
HETATM   41  C15 UNL     1      14.196   8.949  16.418  1.00  0.00     0.219 C
BRANCH  41  42
HETATM   42  O9  UNL     1      13.350   7.887  16.699  1.00  0.00    -0.385 OA
ATOM     43  H9  UNL     1      13.625   7.120  16.211  1.00  0.00     0.210 HD
ENDBRANCH  41  42
BRANCH  41  44
HETATM   44  C16 UNL     1      14.517   8.929  14.951  1.00  0.00     0.177 C
BRANCH  44  45
HETATM   45  O10 UNL     1      13.823   9.964  14.324  1.00  0.00    -0.390 OA
ATOM     46  H10 UNL     1      13.846   9.824  13.384  1.00  0.00     0.210 HD
ENDBRANCH  44  45
BRANCH  44  47
HETATM   47  C17 UNL     1      16.001   9.183  14.700  1.00  0.00     0.198 C
BRANCH  47  48
HETATM   48  O11 UNL     1      16.549   8.181  13.909  1.00  0.00    -0.398 OA
ATOM     49  H11 UNL     1      16.109   8.134  13.068  1.00  0.00     0.209 HD
ENDBRANCH  47  48
ENDBRANCH  44  47
ENDBRANCH  41  44
ENDBRANCH  34  41
ENDBRANCH  12  33
BRANCH   6  50
HETATM   50  O4  UNL     1      14.714   7.785  25.271  1.00  0.00    -0.358 OA
ATOM     51  H4  UNL     1      15.445   7.184  25.357  1.00  0.00     0.217 HD
ENDBRANCH   6  50
BRANCH   7  52
HETATM   52  O5  UNL     1      16.481   9.332  23.768  1.00  0.00    -0.358 OA
ATOM     53  H5  UNL     1      16.645  10.195  24.129  1.00  0.00     0.217 HD
ENDBRANCH   7  52
TORSDOF 17
ENDMDL