MODEL 5
REMARK VINA RESULT: -10.356154651      1.431      1.896
REMARK  12 active torsions:
REMARK  status: ('A' for Active; 'I' for Inactive)
REMARK       I    between atoms: C1_2  and  N1_3
REMARK    1  A    between atoms: C1_2  and  C4_17
REMARK    2  A    between atoms: N1_3  and  S1_5
REMARK    3  A    between atoms: S1_5  and  O4_8
REMARK    4  A    between atoms: O4_8  and  C2_9
REMARK    5  A    between atoms: C2_9  and  C3_10
REMARK    6  A    between atoms: C3_10  and  O5_11
REMARK    7  A    between atoms: C8_21  and  C9_22
REMARK    8  A    between atoms: C9_22  and  N7_27
REMARK    9  A    between atoms: N6_23  and  O6_25
REMARK   10  A    between atoms: N7_27  and  N8_29
REMARK   11  A    between atoms: N8_29  and  C10_31
REMARK   12  A    between atoms: C14_38  and  S2_39
ROOT
HETATM    1  C9  UNL     1       9.500   5.220  17.942  1.00  0.00     0.167 C
HETATM    2  N6  UNL     1      10.058   5.146  16.803  1.00  0.00    -0.250 N
ATOM      3  H6  UNL     1      11.059   5.342  16.775  1.00  0.00     0.196 HD
ENDROOT
BRANCH   1   4
HETATM    4  C8  UNL     1       8.085   4.962  18.093  1.00  0.00     0.080 A
HETATM    5  C7  UNL     1       7.650   3.803  18.672  1.00  0.00     0.033 A
HETATM    6  C6  UNL     1       6.300   3.543  18.828  1.00  0.00     0.005 A
HETATM    7  C5  UNL     1       5.415   4.510  18.369  1.00  0.00     0.035 A
HETATM    8  C4  UNL     1       5.855   5.659  17.795  1.00  0.00     0.102 A
HETATM    9  N10 UNL     1       7.187   5.856  17.672  1.00  0.00    -0.349 N
ATOM     10  H10 UNL     1       7.518   6.719  17.241  1.00  0.00     0.166 HD
BRANCH   8  11
HETATM   11  C1  UNL     1       4.962   6.698  17.307  1.00  0.00     0.283 C
HETATM   12  O1  UNL     1       4.978   7.853  17.860  1.00  0.00    -0.265 OA
HETATM   13  N1  UNL     1       4.050   6.519  16.233  1.00  0.00    -0.226 N
ATOM     14  H1  UNL     1       3.983   5.623  15.750  1.00  0.00     0.184 HD
BRANCH  13  15
HETATM   15  S1  UNL     1       3.060   7.844  15.765  1.00  0.00     0.364 S
HETATM   16  O2  UNL     1       3.021   8.848  16.895  1.00  0.00    -0.175 OA
HETATM   17  O3  UNL     1       1.664   7.358  15.482  1.00  0.00    -0.175 OA
BRANCH  15  18
HETATM   18  O4  UNL     1       3.636   8.523  14.360  1.00  0.00    -0.253 OA
BRANCH  18  19
HETATM   19  C2  UNL     1       4.956   8.849  14.570  1.00  0.00     0.270 C
BRANCH  19  20
HETATM   20  C3  UNL     1       5.925   8.246  13.590  1.00  0.00     0.260 C
HETATM   21  N2  UNL     1       7.309   8.418  13.948  1.00  0.00    -0.069 NA
HETATM   22  N3  UNL     1       7.515   7.437  14.911  1.00  0.00    -0.017 NA
HETATM   23  N4  UNL     1       6.748   6.364  14.526  1.00  0.00    -0.017 NA
HETATM   24  N5  UNL     1       5.766   6.783  13.631  1.00  0.00    -0.069 NA
BRANCH  20  25
HETATM   25  O5  UNL     1       5.687   8.700  12.296  1.00  0.00    -0.357 OA
ATOM     26  H5  UNL     1       5.054   8.151  11.847  1.00  0.00     0.213 HD
ENDBRANCH  20  25
ENDBRANCH  19  20
ENDBRANCH  18  19
ENDBRANCH  15  18
ENDBRANCH  13  15
ENDBRANCH   8  11
ENDBRANCH   1   4
BRANCH   1  27
HETATM   27  N7  UNL     1      10.264   5.538  19.133  1.00  0.00    -0.279 N
ATOM     28  H7  UNL     1      10.905   4.868  19.557  1.00  0.00     0.189 HD
BRANCH  27  29
HETATM   29  N8  UNL     1      10.071   6.816  19.665  1.00  0.00    -0.263 N
ATOM     30  H8  UNL     1       9.134   7.218  19.660  1.00  0.00     0.190 HD
BRANCH  29  31
HETATM   31  C10 UNL     1      11.035   7.497  20.158  1.00  0.00     0.246 A
HETATM   32  N9  UNL     1      11.407   7.153  21.415  1.00  0.00    -0.287 N
HETATM   33  C11 UNL     1      12.408   7.812  22.011  1.00  0.00     0.261 A
ATOM     34  H9  UNL     1      10.927   6.397  21.903  1.00  0.00     0.172 HD
HETATM   35  O7  UNL     1      12.739   7.479  23.178  1.00  0.00    -0.267 OA
HETATM   36  C12 UNL     1      13.066   8.838  21.357  1.00  0.00     0.068 A
HETATM   37  C13 UNL     1      14.099   9.541  21.935  1.00  0.00     0.046 A
HETATM   38  C17 UNL     1      12.653   9.150  20.083  1.00  0.00     0.095 A
HETATM   39  C14 UNL     1      14.741  10.568  21.259  1.00  0.00     0.081 A
HETATM   40  C15 UNL     1      14.342  10.900  19.977  1.00  0.00     0.029 A
HETATM   41  C16 UNL     1      13.305  10.176  19.425  1.00  0.00     0.040 A
HETATM   42  O11 UNL     1      11.671   8.472  19.554  1.00  0.00    -0.277 OA
BRANCH  39  43
HETATM   43  S2  UNL     1      16.048  11.424  22.047  1.00  0.00     0.137 S
HETATM   44  O8  UNL     1      15.474  12.619  22.761  1.00  0.00    -0.591 OA
HETATM   45  O9  UNL     1      16.613  10.482  23.089  1.00  0.00    -0.591 OA
HETATM   46  O10 UNL     1      17.181  11.835  20.906  1.00  0.00    -0.591 OA
ENDBRANCH  39  43
ENDBRANCH  29  31
ENDBRANCH  27  29
ENDBRANCH   1  27
BRANCH   2  47
HETATM   47  O6  UNL     1       9.476   4.838  15.625  1.00  0.00    -0.288 OA
ATOM     48  H6  UNL     1       8.624   5.118  15.311  1.00  0.00     0.244 HD
ENDBRANCH   2  47
TORSDOF 12
ENDMDL