MODEL 1
REMARK VINA RESULT: -5.637023776      0.000      0.000
REMARK  6 active torsions:
REMARK  status: ('A' for Active; 'I' for Inactive)
REMARK    1  A    between atoms: C2_2  and  N2_7
REMARK    2  A    between atoms: N1_3  and  O1_5
REMARK    3  A    between atoms: N2_7  and  N3_9
REMARK       I    between atoms: N3_9  and  C3_11
REMARK       I    between atoms: C3_11  and  N4_13
REMARK       I    between atoms: N4_13  and  C4_15
REMARK    4  A    between atoms: C4_15  and  C5_17
REMARK    5  A    between atoms: C6_18  and  S1_19
REMARK    6  A    between atoms: S1_19  and  C7_20
ROOT
HETATM    1  N3  UNL     1       2.926   9.484  15.213  1.00  0.00    -0.250 N
ATOM      2  H3  UNL     1       3.390   9.044  16.008  1.00  0.00     0.192 HD
HETATM    3  C3  UNL     1       3.721  10.031  14.114  1.00  0.00     0.341 C
HETATM    4  O2  UNL     1       3.075  10.522  13.220  1.00  0.00    -0.245 OA
HETATM    5  N4  UNL     1       5.108   9.885  14.299  1.00  0.00    -0.274 N
ATOM      6  H4  UNL     1       5.643   9.475  15.065  1.00  0.00     0.173 HD
HETATM    7  C4  UNL     1       5.622  10.617  12.824  1.00  0.00     0.249 C
HETATM    8  O3  UNL     1       4.710  10.971  12.189  1.00  0.00    -0.268 OA
ENDROOT
BRANCH   7   9
HETATM    9  C5  UNL     1       7.006  10.625  12.720  1.00  0.00     0.081 C
HETATM   10  C6  UNL     1       7.798  10.200  11.806  1.00  0.00     0.059 C
BRANCH  10  11
HETATM   11  S1  UNL     1       9.603  10.359  11.974  1.00  0.00    -0.064 SA
BRANCH  11  12
HETATM   12  C7  UNL     1      10.320   9.132  10.883  1.00  0.00     0.166 A
HETATM   13  N5  UNL     1      10.822   7.926  11.167  1.00  0.00    -0.279 N
HETATM   14  N6  UNL     1      11.267   7.334  10.074  1.00  0.00    -0.294 N
ATOM     15  H5  UNL     1      10.856   7.518  12.102  1.00  0.00     0.189 HD
HETATM   16  C8  UNL     1      11.050   8.174   9.056  1.00  0.00     0.201 A
ATOM     17  H6  UNL     1      11.696   6.411  10.017  1.00  0.00     0.187 HD
HETATM   18  N7  UNL     1      10.465   9.283   9.564  1.00  0.00    -0.326 N
HETATM   19  C9  UNL     1      10.067  10.469   8.806  1.00  0.00     0.159 C
ENDBRANCH  11  12
ENDBRANCH  10  11
ENDBRANCH   7   9
BRANCH   1  20
HETATM   20  N2  UNL     1       1.551   9.562  15.174  1.00  0.00    -0.284 N
ATOM     21  H2  UNL     1       1.112   9.958  14.342  1.00  0.00     0.188 HD
BRANCH  20  22
HETATM   22  C2  UNL     1       0.710   9.119  16.232  1.00  0.00     0.112 C
HETATM   23  C1  UNL     1      -0.446   9.944  16.653  1.00  0.00     0.092 C
HETATM   24  N1  UNL     1       0.979   8.005  16.792  1.00  0.00    -0.256 N
ATOM     25  H1  UNL     1       1.796   7.513  16.430  1.00  0.00     0.195 HD
BRANCH  24  26
HETATM   26  O1  UNL     1       0.325   7.394  17.799  1.00  0.00    -0.288 OA
ATOM     27  H1  UNL     1       0.350   7.595  18.727  1.00  0.00     0.244 HD
ENDBRANCH  24  26
ENDBRANCH  20  22
ENDBRANCH   1  20
TORSDOF 6
ENDMDL