MODEL 1
REMARK VINA RESULT: -4.800506084      0.000      0.000
REMARK  7 active torsions:
REMARK  status: ('A' for Active; 'I' for Inactive)
REMARK    1  A    between atoms: C3_4  and  N2_5
REMARK    2  A    between atoms: C8_13  and  S1_14
REMARK    3  A    between atoms: S1_14  and  C9_15
REMARK    4  A    between atoms: C9_15  and  C10_16
REMARK    5  A    between atoms: C10_16  and  N5_18
REMARK    6  A    between atoms: N5_18  and  N6_20
REMARK    7  A    between atoms: C11_25  and  N8_26
ROOT
HETATM    1  N1  UNL     1       7.402  11.926  11.332  1.00  0.00    -0.191 NA
HETATM    2  C1  UNL     1       8.024  11.366  10.539  1.00  0.00     0.107 C
HETATM    3  C2  UNL     1       8.762  10.654   9.516  1.00  0.00     0.132 A
HETATM    4  C3  UNL     1      10.003  10.158   9.784  1.00  0.00     0.130 A
HETATM    5  N3  UNL     1      10.591   9.476   8.740  1.00  0.00    -0.322 N
ATOM      6  H3  UNL     1      11.521   9.079   8.878  1.00  0.00     0.169 HD
HETATM    7  C8  UNL     1       9.996   9.315   7.561  1.00  0.00     0.147 A
HETATM    8  N7  UNL     1       8.777   9.809   7.311  1.00  0.00    -0.322 N
ATOM      9  H7  UNL     1       8.342   9.672   6.398  1.00  0.00     0.169 HD
HETATM   10  C11 UNL     1       8.140  10.478   8.264  1.00  0.00     0.125 A
ENDROOT
BRANCH   4  11
HETATM   11  N2  UNL     1      10.701  10.317  10.986  1.00  0.00    -0.362 N
HETATM   12  C4  UNL     1      11.669  11.441  11.012  1.00  0.00     0.150 C
HETATM   13  C5  UNL     1      12.829  10.928  11.863  1.00  0.00     0.187 C
HETATM   14  O1  UNL     1      12.434  10.889  13.184  1.00  0.00    -0.388 OA
HETATM   15  C6  UNL     1      11.128  10.512  13.373  1.00  0.00     0.187 C
HETATM   16  C7  UNL     1      10.625   9.602  12.222  1.00  0.00     0.150 C
ENDBRANCH   4  11
BRANCH  10  17
HETATM   17  N8  UNL     1       6.964  10.976   8.082  1.00  0.00    -0.384 N
ATOM     18  H82 UNL     1       6.172  10.402   7.791  1.00  0.00     0.157 HD
ATOM     19  H81 UNL     1       6.828  11.975   8.233  1.00  0.00     0.157 HD
ENDBRANCH  10  17
BRANCH   7  20
HETATM   20  S1  UNL     1      10.847   8.432   6.288  1.00  0.00    -0.087 SA
BRANCH  20  21
HETATM   21  C9  UNL     1      10.022   6.877   5.908  1.00  0.00     0.156 C
BRANCH  21  22
HETATM   22  C10 UNL     1       9.447   6.308   7.134  1.00  0.00     0.116 C
HETATM   23  N4  UNL     1       8.097   6.506   7.445  1.00  0.00    -0.085 NA
BRANCH  22  24
HETATM   24  N5  UNL     1      10.197   5.627   7.916  1.00  0.00    -0.297 N
ATOM     25  H5  UNL     1      10.920   5.049   7.487  1.00  0.00     0.187 HD
BRANCH  24  26
HETATM   26  N6  UNL     1      10.107   5.612   9.291  1.00  0.00    -0.344 N
ATOM     27  H62 UNL     1      10.537   6.397   9.780  1.00  0.00     0.176 HD
ATOM     28  H61 UNL     1       9.650   4.886   9.843  1.00  0.00     0.176 HD
ENDBRANCH  24  26
ENDBRANCH  22  24
ENDBRANCH  21  22
ENDBRANCH  20  21
ENDBRANCH   7  20
TORSDOF 7
ENDMDL