MODEL 2
REMARK VINA RESULT: -5.261515226      0.630      2.243
REMARK  5 active torsions:
REMARK  status: ('A' for Active; 'I' for Inactive)
REMARK    1  A    between atoms: C2_2  and  C3_3
REMARK    2  A    between atoms: C3_3  and  C4_4
REMARK       I    between atoms: C4_4  and  N1_6
REMARK    3  A    between atoms: N1_6  and  C5_8
REMARK    4  A    between atoms: N4_14  and  C8_15
REMARK    5  A    between atoms: C10_22  and  N8_23
ROOT
HETATM    1  C5  UNL     1       7.232  10.971  11.918  1.00  0.00     0.121 C
HETATM    2  C6  UNL     1       7.788  12.253  11.332  1.00  0.00     0.149 C
HETATM    3  N2  UNL     1       7.894  12.043   9.902  1.00  0.00    -0.362 N
ATOM      4  H2  UNL     1       7.684  12.811   9.264  1.00  0.00     0.162 HD
HETATM    5  C7  UNL     1       8.248  10.901   9.426  1.00  0.00     0.205 C
HETATM    6  N3  UNL     1       8.352  10.696   7.997  1.00  0.00    -0.063 NA
HETATM    7  N4  UNL     1       8.544   9.816  10.304  1.00  0.00    -0.152 N
HETATM    8  C12 UNL     1       8.275   9.921  11.749  1.00  0.00     0.177 C
ENDROOT
BRANCH   7   9
HETATM    9  C8  UNL     1       9.109   8.616   9.771  1.00  0.00     0.704 A
HETATM   10  N5  UNL     1       8.308   7.762   9.116  1.00  0.00    -0.162 N
HETATM   11  C9  UNL     1       8.803   6.614   8.597  1.00  0.00     0.221 A
ATOM     12  H5  UNL     1       7.317   7.980   9.008  1.00  0.00     0.187 HD
HETATM   13  N6  UNL     1       7.928   5.731   7.907  1.00  0.00    -0.062 NA
HETATM   14  N7  UNL     1      10.113   6.381   8.770  1.00  0.00    -0.162 N
HETATM   15  C10 UNL     1      10.943   7.214   9.421  1.00  0.00     0.694 A
ATOM     16  H7  UNL     1      10.503   5.521   8.385  1.00  0.00     0.187 HD
HETATM   17  N9  UNL     1      10.410   8.345   9.923  1.00  0.00    -0.022 N
ATOM     18  H9  UNL     1      11.006   9.004  10.424  1.00  0.00     0.203 HD
BRANCH  15  19
HETATM   19  N8  UNL     1      12.199   6.934   9.557  1.00  0.00    -0.230 N
HETATM   20  C11 UNL     1      13.163   7.631   8.730  1.00  0.00     0.165 C
ATOM     21  H8  UNL     1      12.504   6.235  10.234  1.00  0.00     0.177 HD
ENDBRANCH  15  19
ENDBRANCH   7   9
BRANCH   1  22
HETATM   22  N1  UNL     1       6.764  11.129  13.268  1.00  0.00    -0.353 N
HETATM   23  C4  UNL     1       5.573  10.548  13.767  1.00  0.00     0.217 C
HETATM   24  O1  UNL     1       4.877   9.856  13.004  1.00  0.00    -0.274 OA
ATOM     25  H1  UNL     1       7.325  11.694  13.905  1.00  0.00     0.163 HD
BRANCH  23  26
HETATM   26  C3  UNL     1       5.183  10.774  15.176  1.00  0.00     0.102 C
BRANCH  26  27
HETATM   27  C2  UNL     1       4.093   9.827  15.622  1.00  0.00     0.005 C
HETATM   28  C1  UNL     1       3.642  10.113  17.031  1.00  0.00     0.005 C
ENDBRANCH  26  27
ENDBRANCH  23  26
ENDBRANCH   1  22
TORSDOF 5
ENDMDL