MODEL 3
REMARK VINA RESULT: -5.330857634      2.277      4.392
REMARK  7 active torsions:
REMARK  status: ('A' for Active; 'I' for Inactive)
REMARK    1  A    between atoms: C2_2  and  N1_3
REMARK    2  A    between atoms: C2_2  and  C8_23
REMARK    3  A    between atoms: N1_3  and  C3_5
REMARK    4  A    between atoms: C3_5  and  C5_7
REMARK    5  A    between atoms: C5_7  and  N3_10
REMARK    6  A    between atoms: N3_10  and  N4_12
REMARK    7  A    between atoms: N4_12  and  C7_14
ROOT
HETATM    1  C5  UNL     1      10.240   8.374   5.528  1.00  0.00     0.128 C
HETATM    2  C6  UNL     1      10.738   7.884   4.289  1.00  0.00     0.116 C
HETATM    3  N2  UNL     1      11.142   7.503   3.274  1.00  0.00    -0.190 NA
ENDROOT
BRANCH   1   4
HETATM    4  C3  UNL     1      11.052   9.296   6.347  1.00  0.00     0.140 C
HETATM    5  C4  UNL     1      12.454   8.764   6.498  1.00  0.00     0.039 C
BRANCH   4   6
HETATM    6  N1  UNL     1      10.436   9.721   7.540  1.00  0.00    -0.382 N
ATOM      7  H1  UNL     1       9.428   9.563   7.556  1.00  0.00     0.160 HD
BRANCH   6   8
HETATM    8  C2  UNL     1      10.877  10.254   8.589  1.00  0.00     0.021 C
HETATM    9  C1  UNL     1      11.698  11.494   8.636  1.00  0.00     0.069 C
BRANCH   8  10
HETATM   10  C8  UNL     1      10.570   9.621   9.874  1.00  0.00     0.097 A
HETATM   11  C9  UNL     1      11.109   8.488  10.434  1.00  0.00     0.148 A
HETATM   12  N9  UNL     1      12.109   7.682   9.847  1.00  0.00    -0.080 NA
HETATM   13  N10 UNL     1      10.509   8.304  11.623  1.00  0.00    -0.284 N
HETATM   14  N11 UNL     1       9.625   9.270  11.826  1.00  0.00    -0.264 N
ATOM     15  H10 UNL     1      10.704   7.539  12.270  1.00  0.00     0.188 HD
HETATM   16  C10 UNL     1       9.626  10.104  10.778  1.00  0.00     0.275 A
ATOM     17  H11 UNL     1       9.035   9.363  12.652  1.00  0.00     0.190 HD
HETATM   18  O1  UNL     1       8.901  11.115  10.666  1.00  0.00    -0.266 OA
ENDBRANCH   8  10
ENDBRANCH   6   8
ENDBRANCH   4   6
ENDBRANCH   1   4
BRANCH   1  19
HETATM   19  N3  UNL     1       9.085   8.015   5.938  1.00  0.00    -0.278 N
ATOM     20  H3  UNL     1       8.341   8.712   5.923  1.00  0.00     0.188 HD
BRANCH  19  21
HETATM   21  N4  UNL     1       8.770   6.750   6.402  1.00  0.00    -0.129 N
ATOM     22  H4  UNL     1       8.072   6.206   5.895  1.00  0.00     0.205 HD
BRANCH  21  23
HETATM   23  C7  UNL     1       9.323   6.222   7.453  1.00  0.00     0.728 A
HETATM   24  N5  UNL     1       8.656   5.988   8.597  1.00  0.00    -0.114 N
HETATM   25  N6  UNL     1       9.529   5.447   9.446  1.00  0.00    -0.213 N
ATOM     26  H5  UNL     1       7.672   6.187   8.780  1.00  0.00     0.207 HD
HETATM   27  N7  UNL     1      10.699   5.342   8.869  1.00  0.00    -0.213 N
ATOM     28  H6  UNL     1       9.317   5.158  10.401  1.00  0.00     0.210 HD
HETATM   29  N8  UNL     1      10.584   5.815   7.643  1.00  0.00    -0.114 N
ATOM     30  H7  UNL     1      11.547   4.963   9.291  1.00  0.00     0.210 HD
ATOM     31  H8  UNL     1      11.334   5.864   6.953  1.00  0.00     0.207 HD
ENDBRANCH  21  23
ENDBRANCH  19  21
ENDBRANCH   1  19
TORSDOF 7
ENDMDL