MODEL 3
REMARK VINA RESULT: -4.881462703      2.447      3.144
REMARK  6 active torsions:
REMARK  status: ('A' for Active; 'I' for Inactive)
REMARK    1  A    between atoms: C2_2  and  O1_3
REMARK    2  A    between atoms: C2_2  and  C3_5
REMARK    3  A    between atoms: C3_5  and  N1_6
REMARK    4  A    between atoms: C6_16  and  C7_17
REMARK    5  A    between atoms: C8_20  and  N7_21
REMARK    6  A    between atoms: N7_21  and  C9_23
ROOT
HETATM    1  C9  UNL     1       9.277  10.744   6.656  1.00  0.00     0.183 C
HETATM    2  C10 UNL     1       8.132  11.715   6.532  1.00  0.00     0.105 C
HETATM    3  N8  UNL     1       7.273  12.463   6.423  1.00  0.00    -0.191 NA
ENDROOT
BRANCH   1   4
HETATM    4  N7  UNL     1       8.949   9.631   7.382  1.00  0.00    -0.354 N
ATOM      5  H7  UNL     1       8.077   9.229   7.037  1.00  0.00     0.166 HD
BRANCH   4   6
HETATM    6  C8  UNL     1       9.383   8.966   8.324  1.00  0.00     0.081 A
HETATM    7  C6  UNL     1       9.580   9.359   9.630  1.00  0.00     0.070 A
HETATM    8  C5  UNL     1      10.114   8.476  10.585  1.00  0.00     0.133 A
HETATM    9  N4  UNL     1      10.434   7.239  10.223  1.00  0.00    -0.327 N
HETATM   10  N5  UNL     1      10.274   8.982  11.897  1.00  0.00    -0.082 NA
HETATM   11  C4  UNL     1      10.273   6.785   8.984  1.00  0.00     0.153 A
ATOM     12  H4  UNL     1      10.821   6.609  10.927  1.00  0.00     0.168 HD
HETATM   13  N3  UNL     1      10.527   5.605   8.374  1.00  0.00    -0.269 N
HETATM   14  C11 UNL     1       9.751   7.611   8.002  1.00  0.00     0.125 A
HETATM   15  N2  UNL     1      10.185   5.709   7.126  1.00  0.00    -0.238 N
ATOM     16  H3  UNL     1      10.920   4.775   8.818  1.00  0.00     0.190 HD
HETATM   17  N1  UNL     1       9.696   6.943   6.856  1.00  0.00    -0.270 N
ATOM     18  H2  UNL     1      10.274   4.960   6.439  1.00  0.00     0.208 HD
BRANCH   7  19
HETATM   19  C7  UNL     1       9.243  10.694  10.059  1.00  0.00     0.129 C
HETATM   20  N6  UNL     1       7.953  11.127  10.372  1.00  0.00    -0.089 NA
HETATM   21  S1  UNL     1      10.491  11.780  10.118  1.00  0.00    -0.063 SA
ENDBRANCH   7  19
BRANCH  17  22
HETATM   22  C3  UNL     1       9.199   7.317   5.553  1.00  0.00     0.182 C
BRANCH  22  23
HETATM   23  C2  UNL     1      10.257   7.270   4.469  1.00  0.00     0.134 C
HETATM   24  C1  UNL     1      11.291   8.363   4.675  1.00  0.00     0.041 C
BRANCH  23  25
HETATM   25  O1  UNL     1       9.799   7.339   3.182  1.00  0.00    -0.394 OA
ATOM     26  H1  UNL     1       9.873   6.478   2.786  1.00  0.00     0.210 HD
ENDBRANCH  23  25
ENDBRANCH  22  23
ENDBRANCH  17  22
ENDBRANCH   4   6
ENDBRANCH   1   4
TORSDOF 6
ENDMDL