MODEL 2
REMARK VINA RESULT: -5.945550137      1.907      8.825
REMARK  5 active torsions:
REMARK  status: ('A' for Active; 'I' for Inactive)
REMARK    1  A    between atoms: C2_5  and  N3_6
REMARK    2  A    between atoms: C3_12  and  S1_13
REMARK    3  A    between atoms: S1_13  and  C4_14
REMARK    4  A    between atoms: C4_14  and  C5_15
REMARK    5  A    between atoms: C5_15  and  N6_16
ROOT
HETATM    1  N6  UNL     1      10.431   7.451  10.189  1.00  0.00    -0.374 N
ATOM      2  H6  UNL     1      10.595   6.801  10.958  1.00  0.00     0.161 HD
HETATM    3  C6  UNL     1      10.316   6.972   9.002  1.00  0.00     0.118 A
HETATM    4  C7  UNL     1      10.091   7.705   7.856  1.00  0.00     0.091 A
HETATM    5  C8  UNL     1      10.033   6.809   6.794  1.00  0.00     0.132 A
HETATM    6  C9  UNL     1       9.813   7.142   5.405  1.00  0.00     0.119 C
HETATM    7  N7  UNL     1       9.653   7.419   4.296  1.00  0.00    -0.190 NA
HETATM    8  N8  UNL     1      10.219   5.580   7.323  1.00  0.00    -0.289 N
ATOM      9  H8  UNL     1      10.230   4.706   6.798  1.00  0.00     0.188 HD
HETATM   10  N9  UNL     1      10.384   5.692   8.620  1.00  0.00    -0.285 N
ATOM     11  H9  UNL     1      10.543   4.907   9.252  1.00  0.00     0.188 HD
ENDROOT
BRANCH   1  12
HETATM   12  C5  UNL     1      10.341   8.845  10.490  1.00  0.00     0.132 C
BRANCH  12  13
HETATM   13  C4  UNL     1       9.449   9.104  11.712  1.00  0.00     0.102 C
BRANCH  13  14
HETATM   14  S1  UNL     1       8.169  10.303  11.194  1.00  0.00    -0.090 SA
BRANCH  14  15
HETATM   15  C3  UNL     1       7.040  10.608  12.539  1.00  0.00     0.175 A
HETATM   16  N5  UNL     1       6.006   9.845  12.919  1.00  0.00    -0.243 N
HETATM   17  N4  UNL     1       5.395  10.390  13.957  1.00  0.00     0.094 N
ATOM     18  H5  UNL     1       5.729   8.970  12.473  1.00  0.00     0.191 HD
HETATM   19  C2  UNL     1       4.381  10.243  14.823  1.00  0.00     0.727 A
HETATM   20  C10 UNL     1       6.050  11.524  14.251  1.00  0.00     0.737 A
HETATM   21  N2  UNL     1       4.422  11.310  15.656  1.00  0.00    -0.114 N
HETATM   22  N1  UNL     1       5.424  12.090  15.323  1.00  0.00    -0.111 N
ATOM     23  H2  UNL     1       3.774  11.482  16.424  1.00  0.00     0.206 HD
HETATM   24  C1  UNL     1       5.872  13.343  15.914  1.00  0.00     0.198 C
HETATM   25  N10 UNL     1       7.062  11.656  13.376  1.00  0.00    -0.165 N
ATOM     26  H10 UNL     1       7.732  12.424  13.353  1.00  0.00     0.186 HD
BRANCH  19  27
HETATM   27  N3  UNL     1       3.508   9.280  14.881  1.00  0.00    -0.231 N
ATOM     28  H32 UNL     1       2.619   9.266  15.381  1.00  0.00     0.174 HD
ATOM     29  H31 UNL     1       3.599   8.376  14.418  1.00  0.00     0.174 HD
ENDBRANCH  19  27
ENDBRANCH  14  15
ENDBRANCH  13  14
ENDBRANCH  12  13
ENDBRANCH   1  12
TORSDOF 5
ENDMDL