MODEL 4
REMARK VINA RESULT: -4.940527253      1.920      2.807
REMARK  9 active torsions:
REMARK  status: ('A' for Active; 'I' for Inactive)
REMARK    1  A    between atoms: C2_3  and  N2_4
REMARK    2  A    between atoms: C5_13  and  N5_14
REMARK    3  A    between atoms: N5_14  and  C6_16
REMARK    4  A    between atoms: C6_16  and  C7_17
REMARK    5  A    between atoms: N8_23  and  C9_24
REMARK    6  A    between atoms: C9_24  and  O1_25
REMARK    7  A    between atoms: C9_24  and  C10_27
REMARK    8  A    between atoms: C10_27  and  C11_28
REMARK    9  A    between atoms: C11_28  and  C12_29
ROOT
HETATM    1  C7  UNL     1      10.183   8.149   4.947  1.00  0.00     0.102 C
HETATM    2  N6  UNL     1       9.198   7.522   5.453  1.00  0.00    -0.393 N
ATOM      3  H61 UNL     1       8.841   6.677   5.009  1.00  0.00     0.156 HD
ATOM      4  H62 UNL     1       8.762   7.859   6.312  1.00  0.00     0.156 HD
HETATM    5  C8  UNL     1      10.791   7.679   3.748  1.00  0.00     0.114 C
HETATM    6  N7  UNL     1      11.293   7.315   2.772  1.00  0.00    -0.190 NA
ENDROOT
BRANCH   1   7
HETATM    7  C6  UNL     1      10.701   9.375   5.591  1.00  0.00     0.206 C
BRANCH   7   8
HETATM    8  N5  UNL     1      11.070   9.206   6.964  1.00  0.00    -0.219 N
ATOM      9  H5  UNL     1      10.410   9.464   7.698  1.00  0.00     0.178 HD
BRANCH   8  10
HETATM   10  C5  UNL     1      12.219   8.735   7.286  1.00  0.00     0.690 A
HETATM   11  N4  UNL     1      13.379   9.291   6.800  1.00  0.00    -0.172 N
HETATM   12  C4  UNL     1      14.411   8.641   7.323  1.00  0.00     0.184 A
ATOM     13  H4  UNL     1      13.437  10.073   6.148  1.00  0.00     0.186 HD
HETATM   14  N1  UNL     1      15.775   8.533   7.389  1.00  0.00    -0.168 N
HETATM   15  C3  UNL     1      13.891   7.687   8.129  1.00  0.00     0.191 A
HETATM   16  C1  UNL     1      16.641   9.397   6.651  1.00  0.00     0.177 C
HETATM   17  C2  UNL     1      16.083   7.527   8.220  1.00  0.00     0.681 A
HETATM   18  N3  UNL     1      14.927   7.017   8.669  1.00  0.00    -0.172 N
ATOM     19  H3  UNL     1      14.845   6.238   9.322  1.00  0.00     0.186 HD
HETATM   20  N8  UNL     1      12.510   7.735   8.114  1.00  0.00    -0.107 N
BRANCH  17  21
HETATM   21  N2  UNL     1      17.277   7.155   8.507  1.00  0.00    -0.234 N
ATOM     22  H22 UNL     1      18.137   7.349   7.995  1.00  0.00     0.174 HD
ATOM     23  H21 UNL     1      17.531   6.592   9.318  1.00  0.00     0.174 HD
ENDBRANCH  17  21
BRANCH  20  24
HETATM   24  C9  UNL     1      11.693   6.898   8.888  1.00  0.00     0.165 C
BRANCH  24  25
HETATM   25  O1  UNL     1      12.101   6.832  10.192  1.00  0.00    -0.345 OA
ATOM     26  H1  UNL     1      12.757   6.160  10.332  1.00  0.00     0.219 HD
ENDBRANCH  24  25
BRANCH  24  27
HETATM   27  C10 UNL     1      10.567   6.090   8.734  1.00  0.00     0.060 C
BRANCH  27  28
HETATM   28  C11 UNL     1       9.290   6.288   8.778  1.00  0.00     0.045 C
BRANCH  28  29
HETATM   29  C12 UNL     1       8.761   7.643   9.194  1.00  0.00     0.258 C
HETATM   30  O2  UNL     1       8.355   8.393   8.304  1.00  0.00    -0.302 OA
ENDBRANCH  28  29
ENDBRANCH  27  28
ENDBRANCH  24  27
ENDBRANCH  20  24
ENDBRANCH   8  10
ENDBRANCH   7   8
ENDBRANCH   1   7
TORSDOF 9
ENDMDL