MODEL 2
REMARK VINA RESULT: -5.577967014      0.700      1.062
REMARK  4 active torsions:
REMARK  status: ('A' for Active; 'I' for Inactive)
REMARK    1  A    between atoms: N2_5  and  C3_6
REMARK    2  A    between atoms: C3_6  and  C4_7
REMARK    3  A    between atoms: C4_7  and  C5_8
REMARK    4  A    between atoms: C8_18  and  C9_19
ROOT
HETATM    1  C1  UNL     1      13.281  10.307   5.003  1.00  0.00     0.161 C
HETATM    2  N1  UNL     1      12.461   9.493   5.887  1.00  0.00    -0.301 N
HETATM    3  C2  UNL     1      11.144   9.347   5.922  1.00  0.00     0.329 A
HETATM    4  O1  UNL     1      10.332   9.920   5.151  1.00  0.00    -0.246 OA
HETATM    5  N2  UNL     1      10.794   8.475   6.928  1.00  0.00    -0.294 N
HETATM    6  C6  UNL     1      11.916   8.057   7.543  1.00  0.00     0.110 A
HETATM    7  C7  UNL     1      12.155   7.182   8.611  1.00  0.00     0.129 A
HETATM    8  N4  UNL     1      11.271   6.557   9.232  1.00  0.00    -0.384 N
ATOM      9  H41 UNL     1      11.444   5.919  10.009  1.00  0.00     0.157 HD
ATOM     10  H42 UNL     1      10.292   6.685   8.976  1.00  0.00     0.157 HD
HETATM   11  N5  UNL     1      13.476   7.010   8.957  1.00  0.00    -0.338 N
ATOM     12  H5  UNL     1      13.693   6.380   9.729  1.00  0.00     0.167 HD
HETATM   13  C8  UNL     1      14.485   7.614   8.345  1.00  0.00     0.080 A
HETATM   14  C12 UNL     1      14.248   8.471   7.297  1.00  0.00     0.065 A
HETATM   15  C13 UNL     1      12.954   8.702   6.885  1.00  0.00     0.071 A
ENDROOT
BRANCH  13  16
HETATM   16  C9  UNL     1      15.893   7.403   8.747  1.00  0.00     0.124 C
HETATM   17  N6  UNL     1      16.705   8.331   9.110  1.00  0.00    -0.373 N
HETATM   18  C10 UNL     1      18.010   7.849   9.446  1.00  0.00     0.141 C
ATOM     19  H6  UNL     1      16.445   9.317   9.154  1.00  0.00     0.161 HD
HETATM   20  C11 UNL     1      18.007   6.414   8.961  1.00  0.00     0.141 C
HETATM   21  N7  UNL     1      16.595   6.172   8.807  1.00  0.00    -0.373 N
ATOM     22  H7  UNL     1      16.163   5.250   8.749  1.00  0.00     0.161 HD
ENDBRANCH  13  16
BRANCH   5  23
HETATM   23  C3  UNL     1       9.456   8.103   7.232  1.00  0.00     0.143 C
BRANCH  23  24
HETATM   24  C4  UNL     1       8.966   6.845   6.568  1.00  0.00     0.120 C
BRANCH  24  25
HETATM   25  C5  UNL     1       7.945   6.225   7.446  1.00  0.00     0.232 C
HETATM   26  N3  UNL     1       6.731   5.735   6.909  1.00  0.00    -0.062 NA
HETATM   27  O2  UNL     1       8.113   6.113   8.684  1.00  0.00    -0.277 OA
ENDBRANCH  24  25
ENDBRANCH  23  24
ENDBRANCH   5  23
TORSDOF 4
ENDMDL