MODEL 3
REMARK VINA RESULT: -4.888662887      4.204      6.271
REMARK  5 active torsions:
REMARK  status: ('A' for Active; 'I' for Inactive)
REMARK    1  A    between atoms: N1_4  and  N2_6
REMARK    2  A    between atoms: N2_6  and  C4_8
REMARK    3  A    between atoms: C8_17  and  N5_18
REMARK    4  A    between atoms: N6_20  and  N7_22
REMARK    5  A    between atoms: N7_22  and  S1_24
ROOT
HETATM    1  C4  UNL     1       9.738   8.120   7.170  1.00  0.00     0.154 A
HETATM    2  N3  UNL     1      10.382   6.968   7.410  1.00  0.00    -0.291 N
ATOM      3  H3  UNL     1      10.742   6.408   6.638  1.00  0.00     0.172 HD
HETATM    4  C5  UNL     1      10.547   6.564   8.679  1.00  0.00     0.326 A
HETATM    5  O1  UNL     1      11.155   5.479   8.910  1.00  0.00    -0.247 OA
HETATM    6  N4  UNL     1      10.062   7.318   9.703  1.00  0.00    -0.310 N
ATOM      7  H4  UNL     1      10.194   6.999  10.662  1.00  0.00     0.170 HD
HETATM    8  C6  UNL     1       9.414   8.473   9.480  1.00  0.00     0.042 A
HETATM    9  C7  UNL     1       8.919   9.231  10.650  1.00  0.00     0.071 C
HETATM   10  C8  UNL     1       9.232   8.912   8.187  1.00  0.00     0.117 A
ENDROOT
BRANCH  10  11
HETATM   11  N5  UNL     1       8.555  10.122   7.895  1.00  0.00    -0.280 N
HETATM   12  N6  UNL     1       7.293  10.236   7.967  1.00  0.00    -0.231 N
ATOM     13  H6  UNL     1       6.756   9.416   8.248  1.00  0.00     0.209 HD
ATOM     14  H5  UNL     1       9.104  10.935   7.615  1.00  0.00     0.188 HD
BRANCH  12  15
HETATM   15  N7  UNL     1       6.603  11.395   7.690  1.00  0.00    -0.193 N
ATOM     16  H7  UNL     1       5.698  11.584   8.121  1.00  0.00     0.204 HD
BRANCH  15  17
HETATM   17  S1  UNL     1       7.326  12.533   6.577  1.00  0.00     0.224 S
HETATM   18  O2  UNL     1       8.306  13.409   7.308  1.00  0.00    -0.577 OA
HETATM   19  O3  UNL     1       8.103  11.798   5.511  1.00  0.00    -0.577 OA
HETATM   20  O4  UNL     1       6.160  13.459   5.844  1.00  0.00    -0.577 OA
ENDBRANCH  15  17
ENDBRANCH  12  15
ENDBRANCH  10  11
BRANCH   1  21
HETATM   21  N2  UNL     1       9.574   8.519   5.964  1.00  0.00    -0.284 N
ATOM     22  H2  UNL     1       8.674   8.892   5.663  1.00  0.00     0.188 HD
BRANCH  21  23
HETATM   23  N1  UNL     1      10.634   8.437   5.071  1.00  0.00    -0.308 N
HETATM   24  C2  UNL     1      10.559   7.967   3.891  1.00  0.00    -0.004 C
HETATM   25  C1  UNL     1       9.266   7.456   3.378  1.00  0.00     0.064 C
HETATM   26  C3  UNL     1      11.755   7.924   3.012  1.00  0.00     0.064 C
ATOM     27  H1  UNL     1      11.542   8.781   5.385  1.00  0.00     0.186 HD
ENDBRANCH  21  23
ENDBRANCH   1  21
TORSDOF 5
ENDMDL