MODEL 1
REMARK VINA RESULT: -5.411925698      0.000      0.000
REMARK  6 active torsions:
REMARK  status: ('A' for Active; 'I' for Inactive)
REMARK    1  A    between atoms: C2_9  and  S1_10
REMARK    2  A    between atoms: S1_10  and  C3_11
REMARK    3  A    between atoms: C3_11  and  C4_12
REMARK    4  A    between atoms: C4_12  and  N5_13
REMARK    5  A    between atoms: N5_13  and  C5_15
REMARK    6  A    between atoms: C8_22  and  N8_23
ROOT
HETATM    1  C5  UNL     1      14.755   8.253   7.013  1.00  0.00     0.136 A
HETATM    2  N6  UNL     1      15.039   8.577   5.703  1.00  0.00    -0.337 N
ATOM      3  H6  UNL     1      14.411   9.211   5.208  1.00  0.00     0.168 HD
HETATM    4  C6  UNL     1      16.106   8.095   5.056  1.00  0.00     0.182 A
HETATM    5  N7  UNL     1      16.990   7.256   5.616  1.00  0.00    -0.347 N
ATOM      6  H7  UNL     1      17.795   6.905   5.096  1.00  0.00     0.167 HD
HETATM    7  C7  UNL     1      16.770   6.900   6.891  1.00  0.00     0.110 A
HETATM    8  C8  UNL     1      17.489   6.065   7.732  1.00  0.00     0.143 A
HETATM    9  N9  UNL     1      16.812   6.076   8.890  1.00  0.00    -0.283 N
ATOM     10  H9  UNL     1      17.083   5.555   9.724  1.00  0.00     0.188 HD
HETATM   11  N10 UNL     1      15.729   6.865   8.803  1.00  0.00    -0.293 N
ATOM     12  H10 UNL     1      15.058   7.035   9.551  1.00  0.00     0.187 HD
HETATM   13  C9  UNL     1      15.674   7.386   7.584  1.00  0.00     0.123 A
ENDROOT
BRANCH   1  14
HETATM   14  N5  UNL     1      13.743   8.752   7.519  1.00  0.00    -0.353 N
ATOM     15  H5  UNL     1      13.215   9.194   6.767  1.00  0.00     0.166 HD
BRANCH  14  16
HETATM   16  C4  UNL     1      13.044   8.950   8.679  1.00  0.00     0.073 C
BRANCH  16  17
HETATM   17  C3  UNL     1      12.059  10.103   8.673  1.00  0.00     0.127 C
BRANCH  17  18
HETATM   18  S1  UNL     1      10.400   9.424   8.912  1.00  0.00    -0.086 SA
BRANCH  18  19
HETATM   19  C2  UNL     1      10.353   7.672   8.661  1.00  0.00     0.178 A
HETATM   20  N1  UNL     1      10.373   6.967   7.532  1.00  0.00    -0.259 N
HETATM   21  C1  UNL     1      10.469   7.500   6.171  1.00  0.00     0.181 C
HETATM   22  N2  UNL     1      10.304   5.699   7.884  1.00  0.00    -0.224 N
HETATM   23  N3  UNL     1      10.241   5.585   9.198  1.00  0.00    -0.226 N
ATOM     24  H2  UNL     1      10.299   4.914   7.232  1.00  0.00     0.210 HD
HETATM   25  N4  UNL     1      10.271   6.788   9.695  1.00  0.00    -0.263 N
ATOM     26  H3  UNL     1      10.181   4.714   9.727  1.00  0.00     0.210 HD
ATOM     27  H4  UNL     1      10.239   7.027  10.685  1.00  0.00     0.190 HD
ENDBRANCH  18  19
ENDBRANCH  17  18
ENDBRANCH  16  17
ENDBRANCH  14  16
ENDBRANCH   1  14
BRANCH   8  28
HETATM   28  N8  UNL     1      18.572   5.425   7.444  1.00  0.00    -0.383 N
ATOM     29  H82 UNL     1      19.035   5.340   6.539  1.00  0.00     0.157 HD
ATOM     30  H81 UNL     1      19.154   4.889   8.087  1.00  0.00     0.157 HD
ENDBRANCH   8  28
TORSDOF 6
ENDMDL