MODEL 3
REMARK VINA RESULT: -7.409972204      3.739      5.575
REMARK  4 active torsions:
REMARK  status: ('A' for Active; 'I' for Inactive)
REMARK    1  A    between atoms: C2_2  and  C3_3
REMARK    2  A    between atoms: C6_6  and  N1_7
REMARK       I    between atoms: N1_7  and  C7_8
REMARK    3  A    between atoms: C7_8  and  C8_10
REMARK    4  A    between atoms: C10_14  and  N3_15
ROOT
HETATM    1  C8  UNL     1       1.103 -12.582  21.980  1.00  0.00     0.144 A
HETATM    2  N2  UNL     1       1.429 -13.870  21.745  1.00  0.00    -0.345 N
ATOM      3  H2  UNL     1       1.824 -14.059  20.822  1.00  0.00     0.166 HD
HETATM    4  C9  UNL     1       1.313 -14.915  22.528  1.00  0.00     0.094 A
HETATM    5  C10 UNL     1       1.730 -16.152  21.988  1.00  0.00     0.132 A
HETATM    6  N4  UNL     1       1.605 -17.234  22.778  1.00  0.00    -0.350 N
ATOM      7  H4  UNL     1       1.907 -18.125  22.382  1.00  0.00     0.166 HD
HETATM    8  C15 UNL     1       1.132 -17.265  24.008  1.00  0.00     0.091 A
HETATM    9  C16 UNL     1       0.719 -16.058  24.551  1.00  0.00     0.038 A
HETATM   10  C17 UNL     1       0.812 -14.900  23.810  1.00  0.00     0.038 A
HETATM   11  S1  UNL     1       0.327 -13.362  24.339  1.00  0.00    -0.074 SA
HETATM   12  C18 UNL     1       0.572 -12.130  23.140  1.00  0.00     0.106 A
HETATM   13  S2  UNL     1       0.205 -10.564  23.473  1.00  0.00    -0.070 SA
ENDROOT
BRANCH   1  14
HETATM   14  C7  UNL     1       1.398 -11.627  20.873  1.00  0.00     0.340 C
HETATM   15  N1  UNL     1       0.518 -11.067  20.001  1.00  0.00    -0.404 NA
HETATM   16  O1  UNL     1       2.665 -11.382  20.823  1.00  0.00    -0.250 OA
BRANCH  15  17
HETATM   17  C6  UNL     1      -0.371 -10.502  19.117  1.00  0.00     0.167 C
HETATM   18  C5  UNL     1      -0.761  -9.104  19.590  1.00  0.00     0.040 C
HETATM   19  C4  UNL     1      -0.997  -8.186  18.426  1.00  0.00     0.007 C
HETATM   20  C3  UNL     1      -1.850  -8.943  17.424  1.00  0.00    -0.015 C
HETATM   21  C20 UNL     1      -0.934  -9.939  16.747  1.00  0.00     0.007 C
HETATM   22  C19 UNL     1       0.137 -10.463  17.692  1.00  0.00     0.040 C
BRANCH  20  23
HETATM   23  C2  UNL     1      -2.374  -7.893  16.458  1.00  0.00     0.000 C
HETATM   24  C1  UNL     1      -2.867  -8.457  15.168  1.00  0.00     0.005 C
ENDBRANCH  20  23
ENDBRANCH  15  17
ENDBRANCH   1  14
BRANCH   5  25
HETATM   25  N3  UNL     1       2.249 -16.215  20.676  1.00  0.00    -0.361 N
HETATM   26  C11 UNL     1       3.320 -15.364  20.271  1.00  0.00     0.150 C
HETATM   27  C12 UNL     1       4.468 -16.238  19.796  1.00  0.00     0.187 C
HETATM   28  O2  UNL     1       4.023 -17.455  19.324  1.00  0.00    -0.388 OA
HETATM   29  C13 UNL     1       2.793 -17.402  18.689  1.00  0.00     0.187 C
HETATM   30  C14 UNL     1       1.697 -17.122  19.713  1.00  0.00     0.150 C
ENDBRANCH   5  25
TORSDOF 4
ENDMDL