MODEL 4
REMARK VINA RESULT: -7.525725645      3.431      7.121
REMARK  5 active torsions:
REMARK  status: ('A' for Active; 'I' for Inactive)
REMARK    1  A    between atoms: N1_8  and  C8_9
REMARK    2  A    between atoms: N2_10  and  C9_12
REMARK    3  A    between atoms: C13_18  and  O3_19
REMARK    4  A    between atoms: C17_27  and  C18_28
REMARK    5  A    between atoms: C18_28  and  C19_29
ROOT
HETATM    1  C9  UNL     1       2.394 -11.092  20.906  1.00  0.00     0.270 A
HETATM    2  O1  UNL     1       2.911 -10.199  21.892  1.00  0.00    -0.287 OA
HETATM    3  C10 UNL     1       2.216  -9.007  21.881  1.00  0.00     0.296 A
HETATM    4  O2  UNL     1       2.383  -8.019  22.666  1.00  0.00    -0.259 OA
HETATM    5  C11 UNL     1       1.223  -9.043  20.802  1.00  0.00     0.060 A
HETATM    6  C12 UNL     1       1.369 -10.288  20.204  1.00  0.00     0.042 A
HETATM    7  C13 UNL     1       0.559 -10.599  19.122  1.00  0.00     0.096 A
HETATM    8  C14 UNL     1      -0.385  -9.704  18.633  1.00  0.00     0.060 A
HETATM    9  S1  UNL     1      -1.499  -9.809  17.346  1.00  0.00    -0.036 SA
HETATM   10  C15 UNL     1      -2.382  -8.379  17.250  1.00  0.00     0.256 A
HETATM   11  O4  UNL     1      -3.279  -8.164  16.396  1.00  0.00    -0.272 OA
HETATM   12  S2  UNL     1      -1.715  -7.497  18.520  1.00  0.00    -0.039 SA
HETATM   13  C16 UNL     1      -0.509  -8.480  19.245  1.00  0.00     0.036 A
HETATM   14  C17 UNL     1       0.290  -8.134  20.332  1.00  0.00    -0.022 A
ENDROOT
BRANCH   1  15
HETATM   15  N2  UNL     1       1.818 -12.209  21.655  1.00  0.00    -0.355 N
HETATM   16  C8  UNL     1       2.369 -12.558  22.739  1.00  0.00     0.180 C
ATOM     17  H2  UNL     1       0.990 -12.695  21.311  1.00  0.00     0.163 HD
BRANCH  16  18
HETATM   18  N1  UNL     1       1.851 -13.641  23.517  1.00  0.00    -0.348 N
HETATM   19  C2  UNL     1       1.816 -13.514  24.912  1.00  0.00     0.003 C
HETATM   20  C1  UNL     1       2.848 -12.849  25.418  1.00  0.00     0.038 C
HETATM   21  C3  UNL     1       0.860 -13.961  25.927  1.00  0.00     0.056 C
HETATM   22  C4  UNL     1      -0.251 -14.825  25.478  1.00  0.00     0.006 C
HETATM   23  C5  UNL     1      -0.617 -14.689  24.019  1.00  0.00     0.002 C
HETATM   24  C6  UNL     1       0.359 -15.605  23.282  1.00  0.00     0.020 C
HETATM   25  C7  UNL     1       1.422 -14.747  22.700  1.00  0.00     0.130 C
ENDBRANCH  16  18
ENDBRANCH   1  15
BRANCH   7  26
HETATM   26  O3  UNL     1       0.645 -11.820  18.464  1.00  0.00    -0.359 OA
ATOM     27  H3  UNL     1       0.398 -11.919  17.552  1.00  0.00     0.217 HD
ENDBRANCH   7  26
BRANCH  14  28
HETATM   28  C18 UNL     1       0.186  -6.804  20.969  1.00  0.00     0.041 C
BRANCH  28  29
HETATM   29  C19 UNL     1       1.078  -5.756  20.396  1.00  0.00     0.000 C
HETATM   30  C20 UNL     1       1.470  -4.831  21.556  1.00  0.00     0.005 C
ENDBRANCH  28  29
ENDBRANCH  14  28
TORSDOF 5
ENDMDL