MODEL 3
REMARK VINA RESULT: -7.824762696      1.349      2.182
REMARK  6 active torsions:
REMARK  status: ('A' for Active; 'I' for Inactive)
REMARK    1  A    between atoms: C2_2  and  C4_4
REMARK    2  A    between atoms: C4_4  and  C5_5
REMARK    3  A    between atoms: C5_5  and  O1_6
REMARK    4  A    between atoms: O1_6  and  C6_7
REMARK       I    between atoms: C6_7  and  N1_9
REMARK    5  A    between atoms: N2_12  and  C9_13
REMARK    6  A    between atoms: N4_27  and  O4_29
ROOT
HETATM    1  C6  UNL     1      -0.547 -10.328  18.220  1.00  0.00     0.363 C
HETATM    2  O2  UNL     1       0.253 -11.285  18.077  1.00  0.00    -0.238 OA
HETATM    3  N1  UNL     1      -0.308  -9.400  19.274  1.00  0.00    -0.315 N
HETATM    4  C7  UNL     1      -1.195  -8.268  19.495  1.00  0.00     0.149 C
HETATM    5  C8  UNL     1      -0.431  -6.947  19.457  1.00  0.00     0.152 C
HETATM    6  N2  UNL     1       0.638  -7.085  20.447  1.00  0.00    -0.312 N
HETATM    7  C18 UNL     1       1.069  -8.323  20.943  1.00  0.00     0.128 C
HETATM    8  N4  UNL     1       1.674  -8.394  22.079  1.00  0.00    -0.255 N
ATOM      9  H4  UNL     1       1.830  -7.535  22.607  1.00  0.00     0.195 HD
HETATM   10  C19 UNL     1       0.824  -9.562  20.147  1.00  0.00     0.155 C
HETATM   11  C20 UNL     1       2.082  -9.921  19.393  1.00  0.00     0.041 C
ENDROOT
BRANCH   6  12
HETATM   12  C9  UNL     1       1.274  -5.894  20.931  1.00  0.00     0.153 A
HETATM   13  N3  UNL     1       1.548  -5.564  22.179  1.00  0.00    -0.339 N
HETATM   14  C10 UNL     1       2.135  -4.431  22.435  1.00  0.00     0.033 A
ATOM     15  H3  UNL     1       1.299  -6.195  22.941  1.00  0.00     0.168 HD
HETATM   16  C11 UNL     1       2.446  -3.619  21.375  1.00  0.00     0.076 A
HETATM   17  C17 UNL     1       2.517  -3.901  23.808  1.00  0.00     0.067 C
HETATM   18  S1  UNL     1       1.867  -4.549  20.063  1.00  0.00    -0.048 SA
HETATM   19  C12 UNL     1       3.115  -2.310  21.556  1.00  0.00     0.169 C
HETATM   20  O3  UNL     1       3.545  -1.766  20.502  1.00  0.00    -0.292 OA
HETATM   21  C13 UNL     1       3.271  -1.676  22.891  1.00  0.00     0.093 C
HETATM   22  C14 UNL     1       2.326  -2.407  23.823  1.00  0.00    -0.036 C
HETATM   23  C15 UNL     1       2.642  -1.933  25.227  1.00  0.00     0.015 C
HETATM   24  C16 UNL     1       0.920  -1.990  23.506  1.00  0.00     0.015 C
ENDBRANCH   6  12
BRANCH   8  25
HETATM   25  O4  UNL     1       2.115  -9.585  22.607  1.00  0.00    -0.288 OA
ATOM     26  H4  UNL     1       1.869  -9.880  23.476  1.00  0.00     0.244 HD
ENDBRANCH   8  25
BRANCH   1  27
HETATM   27  O1  UNL     1      -1.596 -10.239  17.354  1.00  0.00    -0.304 OA
BRANCH  27  28
HETATM   28  C5  UNL     1      -1.675  -9.512  16.159  1.00  0.00     0.181 C
BRANCH  28  29
HETATM   29  C4  UNL     1      -2.771  -8.502  16.206  1.00  0.00     0.031 C
BRANCH  29  30
HETATM   30  C2  UNL     1      -2.500  -7.324  15.281  1.00  0.00    -0.021 C
HETATM   31  C1  UNL     1      -3.121  -6.059  15.825  1.00  0.00     0.009 C
HETATM   32  C3  UNL     1      -3.044  -7.555  13.908  1.00  0.00     0.009 C
ENDBRANCH  29  30
ENDBRANCH  28  29
ENDBRANCH  27  28
ENDBRANCH   1  27
TORSDOF 6
ENDMDL