MODEL 5
REMARK VINA RESULT: -7.977212893      1.381      1.917
REMARK  5 active torsions:
REMARK  status: ('A' for Active; 'I' for Inactive)
REMARK    1  A    between atoms: N1_5  and  C5_6
REMARK    2  A    between atoms: C5_6  and  C6_7
REMARK    3  A    between atoms: C5_6  and  C15_19
REMARK    4  A    between atoms: C12_13  and  O1_14
REMARK    5  A    between atoms: N5_26  and  C16_27
ROOT
HETATM    1  C5  UNL     1       0.030  -7.920  20.344  1.00  0.00     0.326 C
ENDROOT
BRANCH   1   2
HETATM    2  N1  UNL     1      -0.519  -7.930  19.020  1.00  0.00     0.104 N
HETATM    3  C4  UNL     1      -1.809  -7.316  18.989  1.00  0.00     0.274 C
HETATM    4  C3  UNL     1      -2.127  -6.979  17.543  1.00  0.00     0.034 C
HETATM    5  C2  UNL     1      -2.207  -8.274  16.771  1.00  0.00    -0.015 C
HETATM    6  C1  UNL     1      -3.651  -8.443  16.338  1.00  0.00     0.010 C
HETATM    7  C22 UNL     1      -1.834  -9.443  17.648  1.00  0.00     0.034 C
HETATM    8  C21 UNL     1      -0.535  -9.211  18.389  1.00  0.00     0.274 C
ENDBRANCH   1   2
BRANCH   1   9
HETATM    9  C6  UNL     1       0.762  -6.629  20.516  1.00  0.00    -0.017 A
HETATM   10  C7  UNL     1       1.241  -5.969  19.430  1.00  0.00     0.011 A
HETATM   11  C8  UNL     1       1.907  -4.791  19.594  1.00  0.00     0.020 A
HETATM   12  C9  UNL     1       2.085  -4.283  20.852  1.00  0.00     0.009 A
HETATM   13  C10 UNL     1       1.615  -4.917  22.002  1.00  0.00    -0.012 A
HETATM   14  S1  UNL     1       2.953  -2.752  21.041  1.00  0.00    -0.129 SA
HETATM   15  C11 UNL     1       0.946  -6.106  21.794  1.00  0.00     0.021 A
HETATM   16  C12 UNL     1       1.793  -4.393  23.355  1.00  0.00     0.153 C
HETATM   17  C13 UNL     1       1.625  -2.902  23.460  1.00  0.00     0.047 C
HETATM   18  C14 UNL     1       2.623  -2.118  22.688  1.00  0.00     0.082 C
BRANCH  16  19
HETATM   19  O1  UNL     1       3.028  -4.815  23.865  1.00  0.00    -0.391 OA
ATOM     20  H1  UNL     1       3.694  -4.167  23.665  1.00  0.00     0.210 HD
ENDBRANCH  16  19
ENDBRANCH   1   9
BRANCH   1  21
HETATM   21  C15 UNL     1       0.946  -9.031  20.611  1.00  0.00     0.154 A
HETATM   22  N2  UNL     1       1.853  -9.584  19.802  1.00  0.00    -0.270 N
HETATM   23  N3  UNL     1       2.487 -10.577  20.425  1.00  0.00    -0.227 N
ATOM     24  H2  UNL     1       2.035  -9.289  18.844  1.00  0.00     0.190 HD
HETATM   25  N4  UNL     1       1.972 -10.646  21.632  1.00  0.00    -0.224 N
ATOM     26  H3  UNL     1       3.225 -11.166  20.041  1.00  0.00     0.210 HD
HETATM   27  N5  UNL     1       1.036  -9.721  21.774  1.00  0.00    -0.256 N
ATOM     28  H4  UNL     1       2.252 -11.313  22.352  1.00  0.00     0.210 HD
BRANCH  27  29
HETATM   29  C16 UNL     1       0.286  -9.549  22.998  1.00  0.00     0.111 C
HETATM   30  C17 UNL     1      -0.032 -10.855  23.672  1.00  0.00     0.027 C
HETATM   31  C18 UNL     1       0.863 -10.975  24.868  1.00  0.00     0.002 C
HETATM   32  C19 UNL     1       1.037  -9.535  25.296  1.00  0.00     0.002 C
HETATM   33  C20 UNL     1       1.096  -8.745  24.014  1.00  0.00     0.027 C
ENDBRANCH  27  29
ENDBRANCH   1  21
TORSDOF 5
ENDMDL