MODEL 4
REMARK VINA RESULT: -7.502936490      3.421      7.237
REMARK  4 active torsions:
REMARK  status: ('A' for Active; 'I' for Inactive)
REMARK    1  A    between atoms: C10_11  and  C11_12
REMARK    2  A    between atoms: C11_12  and  S1_13
REMARK    3  A    between atoms: S1_13  and  C12_14
REMARK    4  A    between atoms: C14_21  and  C15_22
ROOT
HETATM    1  C12 UNL     1       1.306  -7.490  23.405  1.00  0.00     0.174 A
HETATM    2  N2  UNL     1       1.793  -6.249  23.274  1.00  0.00    -0.167 N
ATOM      3  H2  UNL     1       2.239  -5.711  24.017  1.00  0.00     0.186 HD
HETATM    4  C13 UNL     1       1.599  -5.816  21.993  1.00  0.00     0.704 A
HETATM    5  N3  UNL     1       0.986  -6.798  21.329  1.00  0.00    -0.111 N
HETATM    6  N4  UNL     1       0.820  -7.802  22.203  1.00  0.00    -0.262 N
ATOM      7  H4  UNL     1       0.377  -8.692  21.977  1.00  0.00     0.190 HD
HETATM    8  C14 UNL     1       0.633  -6.619  19.959  1.00  0.00     0.175 C
HETATM    9  C19 UNL     1       1.620  -5.772  19.233  1.00  0.00     0.137 C
HETATM   10  C20 UNL     1       1.650  -4.453  19.962  1.00  0.00     0.238 C
HETATM   11  O1  UNL     1       1.425  -3.364  19.430  1.00  0.00    -0.273 OA
HETATM   12  N5  UNL     1       1.972  -4.578  21.364  1.00  0.00    -0.158 N
ATOM     13  H5  UNL     1       2.436  -3.830  21.879  1.00  0.00     0.187 HD
ENDROOT
BRANCH   1  14
HETATM   14  S1  UNL     1       1.318  -8.514  24.892  1.00  0.00    -0.092 SA
BRANCH  14  15
HETATM   15  C11 UNL     1       1.130 -10.254  24.467  1.00  0.00     0.089 C
BRANCH  15  16
HETATM   16  C10 UNL     1       2.434 -10.973  24.223  1.00  0.00     0.034 C
HETATM   17  C5  UNL     1       2.506 -11.708  22.921  1.00  0.00     0.163 C
HETATM   18  N1  UNL     1       1.205 -12.171  22.541  1.00  0.00     0.094 N
HETATM   19  C4  UNL     1       3.368 -12.943  23.081  1.00  0.00     0.044 C
HETATM   20  C6  UNL     1       3.037 -10.755  21.872  1.00  0.00     0.042 C
HETATM   21  C1  UNL     1       0.708 -11.582  21.317  1.00  0.00     0.310 C
HETATM   22  C2  UNL     1       1.244 -13.597  22.366  1.00  0.00     0.273 C
HETATM   23  C3  UNL     1       2.695 -14.002  22.237  1.00  0.00     0.033 C
HETATM   24  C7  UNL     1       4.463 -10.430  22.150  1.00  0.00     0.002 C
HETATM   25  C8  UNL     1       4.771 -10.256  23.609  1.00  0.00     0.001 C
HETATM   26  C9  UNL     1       3.539  -9.966  24.429  1.00  0.00     0.008 C
ENDBRANCH  15  16
ENDBRANCH  14  15
ENDBRANCH   1  14
BRANCH   8  27
HETATM   27  C15 UNL     1       0.486  -7.914  19.228  1.00  0.00     0.008 A
HETATM   28  C16 UNL     1       1.462  -8.787  18.828  1.00  0.00     0.017 A
HETATM   29  C17 UNL     1       1.075  -9.893  18.178  1.00  0.00     0.008 A
HETATM   30  C18 UNL     1      -0.267 -10.062  17.965  1.00  0.00     0.050 A
HETATM   31  S2  UNL     1      -0.941  -8.669  18.682  1.00  0.00    -0.104 SA
ENDBRANCH   8  27
TORSDOF 4
ENDMDL