MODEL 1
REMARK VINA RESULT: -9.770189427      0.000      0.000
REMARK  5 active torsions:
REMARK  status: ('A' for Active; 'I' for Inactive)
REMARK    1  A    between atoms: C5_5  and  C6_6
REMARK       I    between atoms: C6_6  and  N1_8
REMARK    2  A    between atoms: N1_8  and  C7_10
REMARK    3  A    between atoms: C14_19  and  N3_20
REMARK    4  A    between atoms: C21_28  and  N4_29
REMARK    5  A    between atoms: N4_29  and  O4_31
ROOT
HETATM    1  C7  UNL     1       1.278  -5.456  21.181  1.00  0.00     0.087 A
HETATM    2  C8  UNL     1       1.768  -5.604  22.457  1.00  0.00     0.074 A
HETATM    3  C9  UNL     1       1.247  -6.676  23.243  1.00  0.00     0.102 C
HETATM    4  N2  UNL     1       0.839  -7.536  23.894  1.00  0.00    -0.191 NA
HETATM    5  C10 UNL     1       2.727  -4.733  22.933  1.00  0.00     0.043 A
HETATM    6  C11 UNL     1       3.188  -3.707  22.103  1.00  0.00     0.052 A
HETATM    7  C12 UNL     1       4.138  -2.849  22.580  1.00  0.00     0.189 A
HETATM    8  O2  UNL     1       4.567  -3.008  23.749  1.00  0.00    -0.287 OA
HETATM    9  C13 UNL     1       4.578  -1.845  21.744  1.00  0.00     0.112 A
HETATM   10  C14 UNL     1       4.052  -1.733  20.455  1.00  0.00     0.150 A
HETATM   11  O3  UNL     1       3.141  -2.576  20.030  1.00  0.00    -0.290 OA
HETATM   12  C20 UNL     1       2.715  -3.535  20.819  1.00  0.00     0.122 A
HETATM   13  C21 UNL     1       1.747  -4.433  20.371  1.00  0.00     0.117 A
ENDROOT
BRANCH   1  14
HETATM   14  N1  UNL     1       0.303  -6.344  20.704  1.00  0.00    -0.323 N
HETATM   15  C6  UNL     1       0.451  -7.371  19.785  1.00  0.00     0.226 C
HETATM   16  O1  UNL     1       1.583  -7.574  19.283  1.00  0.00    -0.273 OA
ATOM     17  H1  UNL     1      -0.636  -6.219  21.083  1.00  0.00     0.169 HD
BRANCH  15  18
HETATM   18  C5  UNL     1      -0.657  -8.243  19.361  1.00  0.00     0.078 C
HETATM   19  C4  UNL     1      -0.362  -8.979  18.072  1.00  0.00     0.014 C
HETATM   20  C3  UNL     1      -1.621  -9.802  17.767  1.00  0.00     0.005 C
HETATM   21  C2  UNL     1      -2.584  -8.807  17.109  1.00  0.00    -0.019 C
HETATM   22  C1  UNL     1      -2.212  -8.766  15.638  1.00  0.00     0.010 C
HETATM   23  C23 UNL     1      -2.349  -7.429  17.689  1.00  0.00     0.005 C
HETATM   24  C22 UNL     1      -1.944  -7.482  19.140  1.00  0.00     0.014 C
ENDBRANCH  15  18
ENDBRANCH   1  14
BRANCH  13  25
HETATM   25  N4  UNL     1       1.239  -4.277  19.044  1.00  0.00    -0.264 N
ATOM     26  H4  UNL     1       1.222  -5.055  18.384  1.00  0.00     0.194 HD
BRANCH  25  27
HETATM   27  O4  UNL     1       0.814  -3.138  18.728  1.00  0.00    -0.289 OA
ATOM     28  H4  UNL     1       0.425  -3.048  17.865  1.00  0.00     0.244 HD
ENDBRANCH  25  27
ENDBRANCH  13  25
BRANCH  10  29
HETATM   29  N3  UNL     1       4.555  -0.677  19.659  1.00  0.00    -0.356 N
HETATM   30  C15 UNL     1       4.576  -0.697  18.202  1.00  0.00     0.130 C
HETATM   31  C16 UNL     1       5.232   0.634  17.978  1.00  0.00     0.007 C
HETATM   32  C17 UNL     1       4.486   1.515  18.980  1.00  0.00     0.031 C
HETATM   33  C19 UNL     1       6.337   0.609  19.041  1.00  0.00     0.031 C
HETATM   34  C18 UNL     1       5.128   0.581  19.991  1.00  0.00     0.087 C
ENDBRANCH  10  29
TORSDOF 5
ENDMDL