MODEL 5
REMARK VINA RESULT: -7.141110552      5.636      6.930
REMARK  5 active torsions:
REMARK  status: ('A' for Active; 'I' for Inactive)
REMARK    1  A    between atoms: S1_2  and  C2_3
REMARK    2  A    between atoms: C2_3  and  C3_4
REMARK    3  A    between atoms: C3_4  and  N1_5
REMARK       I    between atoms: N1_5  and  C4_7
REMARK    4  A    between atoms: C4_7  and  O2_9
REMARK    5  A    between atoms: O2_9  and  C5_10
ROOT
HETATM    1  C5  UNL     1       0.884  -7.534  20.129  1.00  0.00     0.134 C
HETATM    2  C6  UNL     1       1.153  -7.513  21.621  1.00  0.00     0.038 C
HETATM    3  C7  UNL     1       0.843  -6.158  22.220  1.00  0.00     0.077 C
HETATM    4  C8  UNL     1       1.706  -5.076  21.597  1.00  0.00     0.230 C
HETATM    5  C9  UNL     1       1.806  -5.267  20.092  1.00  0.00     0.077 C
HETATM    6  C10 UNL     1       0.694  -6.149  19.573  1.00  0.00     0.038 C
HETATM    7  O3  UNL     1       3.001  -5.108  22.100  1.00  0.00    -0.195 OA
HETATM    8  O4  UNL     1       3.661  -4.100  21.571  1.00  0.00    -0.194 OA
HETATM    9  C11 UNL     1       3.097  -2.939  22.097  1.00  0.00     0.237 C
HETATM   10  O5  UNL     1       1.804  -2.829  21.570  1.00  0.00    -0.194 OA
HETATM   11  O6  UNL     1       1.112  -3.861  21.936  1.00  0.00    -0.195 OA
HETATM   12  C12 UNL     1       3.022  -3.062  23.581  1.00  0.00     0.055 C
HETATM   13  C13 UNL     1       4.393  -2.994  24.211  1.00  0.00     0.015 C
HETATM   14  C14 UNL     1       5.058  -1.697  23.871  1.00  0.00    -0.013 C
HETATM   15  C15 UNL     1       4.225  -0.548  24.365  1.00  0.00     0.009 C
HETATM   16  C16 UNL     1       2.885  -0.605  23.678  1.00  0.00    -0.013 C
HETATM   17  C17 UNL     1       2.205  -1.875  24.102  1.00  0.00     0.015 C
HETATM   18  C18 UNL     1       3.066  -0.506  22.189  1.00  0.00     0.015 C
HETATM   19  C19 UNL     1       3.853  -1.703  21.696  1.00  0.00     0.055 C
HETATM   20  C20 UNL     1       5.214  -1.632  22.370  1.00  0.00     0.015 C
ENDROOT
BRANCH   1  21
HETATM   21  O2  UNL     1      -0.279  -8.301  19.932  1.00  0.00    -0.299 OA
BRANCH  21  22
HETATM   22  C4  UNL     1      -0.673  -8.807  18.702  1.00  0.00     0.360 C
HETATM   23  N1  UNL     1      -1.887  -8.414  18.072  1.00  0.00    -0.336 N
ATOM     24  H1  UNL     1      -2.506  -7.740  18.520  1.00  0.00     0.164 HD
HETATM   25  O1  UNL     1       0.110  -9.649  18.150  1.00  0.00    -0.239 OA
BRANCH  23  26
HETATM   26  C3  UNL     1      -2.230  -8.985  16.787  1.00  0.00     0.135 C
BRANCH  26  27
HETATM   27  C2  UNL     1      -3.379  -8.232  16.140  1.00  0.00     0.093 C
BRANCH  27  28
HETATM   28  S1  UNL     1      -2.629  -6.842  15.225  1.00  0.00    -0.172 SA
HETATM   29  C1  UNL     1      -3.003  -5.298  16.112  1.00  0.00     0.089 C
ENDBRANCH  27  28
ENDBRANCH  26  27
ENDBRANCH  23  26
ENDBRANCH  21  22
ENDBRANCH   1  21
TORSDOF 5
ENDMDL