MODEL 3
REMARK VINA RESULT: -7.834712718      0.864      1.384
REMARK  5 active torsions:
REMARK  status: ('A' for Active; 'I' for Inactive)
REMARK    1  A    between atoms: N2_6  and  C5_7
REMARK    2  A    between atoms: C9_13  and  N4_14
REMARK    3  A    between atoms: N4_14  and  O1_16
REMARK    4  A    between atoms: C13_21  and  N5_22
REMARK    5  A    between atoms: N5_22  and  C14_25
ROOT
HETATM    1  C5  UNL     1       0.117  -7.747  20.232  1.00  0.00     0.133 A
HETATM    2  N3  UNL     1       0.433  -6.423  20.083  1.00  0.00    -0.350 N
ATOM      3  H3  UNL     1       0.152  -5.941  19.229  1.00  0.00     0.166 HD
HETATM    4  C6  UNL     1       1.099  -5.742  21.024  1.00  0.00     0.099 A
HETATM    5  C7  UNL     1       1.487  -6.380  22.191  1.00  0.00    -0.004 A
HETATM    6  C8  UNL     1       1.161  -7.717  22.322  1.00  0.00    -0.016 A
HETATM    7  C9  UNL     1       0.475  -8.444  21.366  1.00  0.00     0.105 A
HETATM    8  C10 UNL     1       1.589  -8.363  23.574  1.00  0.00     0.042 C
HETATM    9  C11 UNL     1       1.136  -7.444  24.687  1.00  0.00     0.007 C
HETATM   10  C12 UNL     1       1.815  -6.130  24.634  1.00  0.00     0.038 C
HETATM   11  C13 UNL     1       2.213  -5.629  23.280  1.00  0.00     0.223 C
ENDROOT
BRANCH  11  12
HETATM   12  N5  UNL     1       1.818  -4.240  23.082  1.00  0.00    -0.041 N
ATOM     13  H52 UNL     1       1.025  -4.179  22.442  1.00  0.00     0.281 HD
ATOM     14  H51 UNL     1       1.384  -3.865  23.925  1.00  0.00     0.281 HD
BRANCH  12  15
HETATM   15  C14 UNL     1       2.890  -3.394  22.643  1.00  0.00     0.322 C
HETATM   16  C15 UNL     1       3.681  -2.798  23.773  1.00  0.00     0.066 C
HETATM   17  C16 UNL     1       4.683  -1.781  23.269  1.00  0.00    -0.008 C
HETATM   18  C17 UNL     1       5.859  -2.361  22.571  1.00  0.00     0.005 C
HETATM   19  C21 UNL     1       4.015  -0.809  22.290  1.00  0.00     0.037 C
HETATM   20  C18 UNL     1       5.691  -2.806  21.177  1.00  0.00     0.003 C
HETATM   21  C19 UNL     1       4.435  -2.479  20.471  1.00  0.00     0.032 C
HETATM   22  C20 UNL     1       3.424  -1.670  21.207  1.00  0.00     0.124 C
HETATM   23  O2  UNL     1       2.398  -2.431  21.781  1.00  0.00    -0.354 OA
ENDBRANCH  12  15
ENDBRANCH  11  12
BRANCH   7  24
HETATM   24  N4  UNL     1       0.140  -9.802  21.505  1.00  0.00    -0.265 N
ATOM     25  H4  UNL     1      -0.819  -9.993  21.797  1.00  0.00     0.194 HD
BRANCH  24  26
HETATM   26  O1  UNL     1       0.843 -10.786  21.324  1.00  0.00    -0.289 OA
ATOM     27  H1  UNL     1       1.617 -10.871  20.779  1.00  0.00     0.244 HD
ENDBRANCH  24  26
ENDBRANCH   7  24
BRANCH   1  28
HETATM   28  N2  UNL     1      -0.612  -8.313  19.136  1.00  0.00    -0.364 N
HETATM   29  C4  UNL     1      -1.858  -7.609  18.935  1.00  0.00     0.126 C
HETATM   30  C3  UNL     1      -2.635  -7.976  17.732  1.00  0.00     0.050 C
HETATM   31  C2  UNL     1      -1.902  -8.664  16.637  1.00  0.00     0.273 C
HETATM   32  N1  UNL     1      -1.775 -10.062  16.890  1.00  0.00     0.085 N
HETATM   33  C1  UNL     1      -1.141 -10.796  15.844  1.00  0.00     0.309 C
HETATM   34  C23 UNL     1      -1.206 -10.392  18.157  1.00  0.00     0.291 C
HETATM   35  C22 UNL     1      -0.052  -9.424  18.421  1.00  0.00     0.154 C
ENDBRANCH   1  28
TORSDOF 5
ENDMDL