MODEL 5
REMARK VINA RESULT: -7.089876805      2.335      3.285
REMARK  7 active torsions:
REMARK  status: ('A' for Active; 'I' for Inactive)
REMARK    1  A    between atoms: C2_2  and  O2_4
REMARK    2  A    between atoms: O2_4  and  C3_5
REMARK    3  A    between atoms: C3_5  and  C4_6
REMARK    4  A    between atoms: C9_11  and  O3_12
REMARK    5  A    between atoms: C18_24  and  O6_25
REMARK    6  A    between atoms: O6_25  and  C19_26
REMARK    7  A    between atoms: C19_26  and  C20_28
ROOT
HETATM    1  C4  UNL     1       3.043 -10.968  23.417  1.00  0.00     0.044 C
HETATM    2  C5  UNL     1       4.580 -11.032  23.729  1.00  0.00     0.026 C
HETATM    3  C6  UNL     1       2.520  -9.778  24.248  1.00  0.00     0.024 C
HETATM    4  C7  UNL     1       2.970  -8.459  23.669  1.00  0.00     0.046 C
HETATM    5  C8  UNL     1       1.927  -8.072  22.672  1.00  0.00     0.014 A
HETATM    6  C9  UNL     1       1.084  -7.012  22.681  1.00  0.00     0.190 A
HETATM    7  O4  UNL     1       0.291  -7.078  21.606  1.00  0.00    -0.288 OA
HETATM    8  C10 UNL     1       0.584  -8.149  20.886  1.00  0.00     0.097 A
HETATM    9  C11 UNL     1       1.592  -8.787  21.516  1.00  0.00     0.018 A
HETATM   10  C12 UNL     1       2.195 -10.018  20.987  1.00  0.00     0.010 C
HETATM   11  C13 UNL     1       2.917 -10.832  21.997  1.00  0.00     0.167 C
HETATM   12  O5  UNL     1       3.652 -11.650  21.387  1.00  0.00    -0.292 OA
HETATM   13  C14 UNL     1       1.301 -10.717  20.046  1.00  0.00    -0.013 C
HETATM   14  C15 UNL     1       0.141 -11.441  20.598  1.00  0.00     0.020 C
HETATM   15  C16 UNL     1       2.179 -11.663  19.205  1.00  0.00     0.020 C
HETATM   16  C17 UNL     1       0.874  -9.661  18.993  1.00  0.00     0.053 C
HETATM   17  C18 UNL     1       0.003  -8.664  19.630  1.00  0.00     0.191 C
ENDROOT
BRANCH  17  18
HETATM   18  O6  UNL     1      -0.432  -7.627  18.781  1.00  0.00    -0.306 OA
BRANCH  18  19
HETATM   19  C19 UNL     1      -1.746  -7.358  18.465  1.00  0.00     0.283 C
HETATM   20  O7  UNL     1      -2.486  -7.236  19.499  1.00  0.00    -0.260 OA
BRANCH  19  21
HETATM   21  C20 UNL     1      -2.306  -7.215  17.149  1.00  0.00     0.084 C
HETATM   22  C21 UNL     1      -2.417  -8.157  16.267  1.00  0.00    -0.082 C
HETATM   23  C22 UNL     1      -1.934  -9.530  16.596  1.00  0.00     0.043 C
HETATM   24  C23 UNL     1      -3.023  -7.862  14.932  1.00  0.00     0.043 C
ENDBRANCH  19  21
ENDBRANCH  18  19
ENDBRANCH  17  18
BRANCH   6  25
HETATM   25  O3  UNL     1       1.065  -6.022  23.662  1.00  0.00    -0.340 OA
ATOM     26  H3  UNL     1       0.534  -5.235  23.626  1.00  0.00     0.220 HD
ENDBRANCH   6  25
BRANCH   1  27
HETATM   27  C3  UNL     1       2.476 -12.166  24.092  1.00  0.00     0.196 C
BRANCH  27  28
HETATM   28  O2  UNL     1       1.300 -12.728  23.804  1.00  0.00    -0.321 OA
BRANCH  28  29
HETATM   29  C2  UNL     1       0.021 -12.659  24.189  1.00  0.00     0.254 C
HETATM   30  C1  UNL     1      -0.466 -11.361  24.769  1.00  0.00     0.126 C
HETATM   31  O1  UNL     1      -0.783 -13.592  24.097  1.00  0.00    -0.266 OA
ENDBRANCH  28  29
ENDBRANCH  27  28
ENDBRANCH   1  27
TORSDOF 7
ENDMDL