MODEL 4
REMARK VINA RESULT: -6.419995189      2.893      7.170
REMARK  5 active torsions:
REMARK  status: ('A' for Active; 'I' for Inactive)
REMARK    1  A    between atoms: C8_14  and  C9_15
REMARK       I    between atoms: N2_16  and  C10_18
REMARK    2  A    between atoms: C10_18  and  C11_20
REMARK    3  A    between atoms: C15_25  and  C16_26
REMARK    4  A    between atoms: C16_26  and  O4_28
REMARK    5  A    between atoms: O4_28  and  C17_29
ROOT
HETATM    1  C1  UNL     1       0.567 -12.730  22.523  1.00  0.00     0.028 C
HETATM    2  C2  UNL     1       0.958 -12.493  23.747  1.00  0.00    -0.004 C
HETATM    3  S1  UNL     1       1.882 -13.691  24.722  1.00  0.00    -0.070 SA
HETATM    4  C3  UNL     1       0.961 -13.603  26.242  1.00  0.00     0.107 C
HETATM    5  N1  UNL     1       1.003 -14.402  27.200  1.00  0.00    -0.388 N
ATOM      6  H11 UNL     1       0.475 -14.352  28.072  1.00  0.00     0.157 HD
ATOM      7  H12 UNL     1       1.571 -15.245  27.283  1.00  0.00     0.157 HD
HETATM    8  S2  UNL     1      -0.030 -12.134  26.097  1.00  0.00    -0.088 SA
HETATM    9  C4  UNL     1       0.785 -11.317  24.628  1.00  0.00     0.065 C
HETATM   10  C5  UNL     1       2.111 -10.880  25.156  1.00  0.00     0.073 C
HETATM   11  C6  UNL     1       2.623  -9.754  24.362  1.00  0.00    -0.011 C
HETATM   12  S3  UNL     1       3.921  -9.783  23.805  1.00  0.00    -0.089 SA
HETATM   13  C7  UNL     1       1.738  -8.598  24.168  1.00  0.00     0.057 C
HETATM   14  C8  UNL     1       0.399  -9.017  23.591  1.00  0.00     0.044 C
HETATM   15  C15 UNL     1      -0.144 -10.275  24.152  1.00  0.00     0.119 C
ENDROOT
BRANCH  14  16
HETATM   16  C9  UNL     1       0.397  -8.930  22.117  1.00  0.00     0.070 C
HETATM   17  N2  UNL     1       0.295  -7.792  21.565  1.00  0.00    -0.335 N
HETATM   18  C10 UNL     1       0.276  -7.514  20.194  1.00  0.00     0.279 C
ATOM     19  H2  UNL     1       0.217  -6.991  22.192  1.00  0.00     0.168 HD
HETATM   20  O1  UNL     1       1.045  -6.626  19.748  1.00  0.00    -0.265 OA
BRANCH  18  21
HETATM   21  C11 UNL     1      -0.591  -8.201  19.254  1.00  0.00     0.142 A
HETATM   22  C12 UNL     1      -1.858  -7.791  18.902  1.00  0.00     0.045 A
HETATM   23  C13 UNL     1      -2.357  -8.717  17.977  1.00  0.00     0.027 A
HETATM   24  C14 UNL     1      -1.344  -9.633  17.836  1.00  0.00     0.143 A
HETATM   25  O2  UNL     1      -0.333  -9.296  18.596  1.00  0.00    -0.317 OA
ENDBRANCH  18  21
ENDBRANCH  14  16
BRANCH  15  26
HETATM   26  C16 UNL     1      -1.076  -9.901  25.268  1.00  0.00     0.265 C
HETATM   27  O3  UNL     1      -2.065 -10.624  25.473  1.00  0.00    -0.265 OA
BRANCH  26  28
HETATM   28  O4  UNL     1      -0.893  -8.807  26.070  1.00  0.00    -0.321 OA
BRANCH  28  29
HETATM   29  C17 UNL     1      -0.611  -8.810  27.431  1.00  0.00     0.174 C
HETATM   30  C18 UNL     1       0.796  -8.555  27.815  1.00  0.00     0.034 C
ENDBRANCH  28  29
ENDBRANCH  26  28
ENDBRANCH  15  26
TORSDOF 5
ENDMDL