MODEL 5
REMARK VINA RESULT: -8.399149620      1.862      3.062
REMARK  5 active torsions:
REMARK  status: ('A' for Active; 'I' for Inactive)
REMARK    1  A    between atoms: C7_8  and  C8_9
REMARK    2  A    between atoms: C8_9  and  N1_10
REMARK    3  A    between atoms: N1_10  and  C10_12
REMARK    4  A    between atoms: C10_12  and  C11_13
REMARK    5  A    between atoms: C15_23  and  N5_24
REMARK       I    between atoms: N5_24  and  C16_26
ROOT
HETATM    1  C1  UNL     1      20.202   6.663   7.725  1.00  0.00     0.015 C
HETATM    2  C2  UNL     1      19.544   7.466   7.096  1.00  0.00    -0.073 C
HETATM    3  C3  UNL     1      18.766   8.439   6.362  1.00  0.00     0.165 C
HETATM    4  F1  UNL     1      18.215   9.382   7.195  1.00  0.00    -0.229 F
HETATM    5  C4  UNL     1      17.633   7.685   5.648  1.00  0.00     0.057 C
HETATM    6  C5  UNL     1      16.797   8.764   5.014  1.00  0.00     0.004 C
HETATM    7  C6  UNL     1      17.564   9.514   3.927  1.00  0.00     0.006 C
HETATM    8  C7  UNL     1      18.879  10.008   4.387  1.00  0.00     0.018 C
HETATM    9  C18 UNL     1      19.616   9.018   5.283  1.00  0.00     0.063 C
ENDROOT
BRANCH   8  10
HETATM   10  C8  UNL     1      19.834  10.388   3.316  1.00  0.00     0.277 C
BRANCH  10  11
HETATM   11  N1  UNL     1      20.197  11.765   3.168  1.00  0.00     0.088 N
HETATM   12  C9  UNL     1      20.261  12.470   4.420  1.00  0.00     0.310 C
BRANCH  11  13
HETATM   13  C10 UNL     1      19.390  12.438   2.189  1.00  0.00     0.313 C
BRANCH  13  14
HETATM   14  C11 UNL     1      20.037  12.654   0.895  1.00  0.00     0.002 A
HETATM   15  C12 UNL     1      21.200  13.363   0.675  1.00  0.00     0.097 A
HETATM   16  N2  UNL     1      21.776  13.501  -0.543  1.00  0.00    -0.372 N
HETATM   17  C13 UNL     1      21.265  12.954  -1.654  1.00  0.00     0.119 A
ATOM     18  H2  UNL     1      22.636  14.044  -0.617  1.00  0.00     0.164 HD
HETATM   19  C14 UNL     1      20.095  12.224  -1.506  1.00  0.00     0.078 A
HETATM   20  N3  UNL     1      19.349  11.559  -2.416  1.00  0.00    -0.297 N
HETATM   21  C17 UNL     1      19.506  12.082  -0.276  1.00  0.00     0.048 A
HETATM   22  N4  UNL     1      18.317  11.008  -1.794  1.00  0.00    -0.284 N
ATOM     23  H3  UNL     1      19.548  11.492  -3.415  1.00  0.00     0.187 HD
HETATM   24  C15 UNL     1      18.391  11.314  -0.480  1.00  0.00     0.135 A
ATOM     25  H4  UNL     1      17.589  10.445  -2.234  1.00  0.00     0.188 HD
BRANCH  24  26
HETATM   26  N5  UNL     1      17.583  10.976   0.466  1.00  0.00    -0.315 N
HETATM   27  C16 UNL     1      16.311  11.592   0.520  1.00  0.00     0.187 C
HETATM   28  N6  UNL     1      16.145  12.851   0.676  1.00  0.00    -0.373 N
HETATM   29  N7  UNL     1      15.146  10.787   0.396  1.00  0.00    -0.064 NA
ATOM     30  H62 UNL     1      16.981  13.428   0.765  1.00  0.00     0.158 HD
ATOM     31  H61 UNL     1      15.228  13.295   0.715  1.00  0.00     0.158 HD
ATOM     32  H5  UNL     1      17.855  10.281   1.160  1.00  0.00     0.170 HD
ENDBRANCH  24  26
ENDBRANCH  13  14
ENDBRANCH  11  13
ENDBRANCH  10  11
ENDBRANCH   8  10
TORSDOF 5
ENDMDL