MODEL 2
REMARK VINA RESULT: -8.905875012      0.254      1.473
REMARK  5 active torsions:
REMARK  status: ('A' for Active; 'I' for Inactive)
REMARK    1  A    between atoms: C1_4  and  C2_5
REMARK    2  A    between atoms: C1_4  and  N5_12
REMARK    3  A    between atoms: C6_16  and  C7_17
REMARK       I    between atoms: C7_17  and  N6_19
REMARK    4  A    between atoms: N6_19  and  C8_21
REMARK    5  A    between atoms: C8_21  and  C9_22
ROOT
HETATM    1  N5  UNL     1      18.968  12.005   2.194  1.00  0.00    -0.351 N
HETATM    2  C3  UNL     1      17.642  12.567   2.303  1.00  0.00     0.125 C
HETATM    3  C4  UNL     1      16.985  12.130   1.023  1.00  0.00     0.022 C
HETATM    4  C5  UNL     1      17.567  10.742   0.826  1.00  0.00     0.037 C
HETATM    5  C6  UNL     1      18.899  10.748   1.524  1.00  0.00     0.178 C
ENDROOT
BRANCH   5   6
HETATM    6  C7  UNL     1      19.018   9.572   2.476  1.00  0.00     0.244 C
HETATM    7  O1  UNL     1      20.096   8.948   2.407  1.00  0.00    -0.271 OA
HETATM    8  N6  UNL     1      17.926   9.315   3.314  1.00  0.00    -0.338 N
ATOM      9  H6  UNL     1      17.133   9.952   3.234  1.00  0.00     0.167 HD
BRANCH   8  10
HETATM   10  C8  UNL     1      17.805   8.281   4.249  1.00  0.00     0.073 C
BRANCH  10  11
HETATM   11  C9  UNL     1      18.258   8.389   5.646  1.00  0.00    -0.007 C
HETATM   12  C10 UNL     1      19.694   8.653   5.918  1.00  0.00     0.019 C
HETATM   13  C11 UNL     1      19.934   8.987   7.393  1.00  0.00    -0.013 C
HETATM   14  C12 UNL     1      19.561   7.770   8.212  1.00  0.00     0.009 C
HETATM   15  C16 UNL     1      19.136  10.151   7.873  1.00  0.00     0.009 C
HETATM   16  C13 UNL     1      18.126   7.397   7.898  1.00  0.00    -0.013 C
HETATM   17  C14 UNL     1      17.269   8.553   8.407  1.00  0.00     0.009 C
HETATM   18  C18 UNL     1      17.878   7.150   6.457  1.00  0.00     0.019 C
HETATM   19  C15 UNL     1      17.675   9.797   7.665  1.00  0.00    -0.013 C
HETATM   20  C17 UNL     1      17.467   9.591   6.216  1.00  0.00     0.019 C
ENDBRANCH  10  11
ENDBRANCH   8  10
ENDBRANCH   5   6
BRANCH   1  21
HETATM   21  C1  UNL     1      20.143  12.621   2.683  1.00  0.00     0.145 C
HETATM   22  N1  UNL     1      20.951  13.144   1.828  1.00  0.00    -0.382 N
ATOM     23  H12 UNL     1      21.798  13.589   2.181  1.00  0.00     0.157 HD
ATOM     24  H11 UNL     1      20.724  13.100   0.835  1.00  0.00     0.157 HD
BRANCH  21  25
HETATM   25  C2  UNL     1      20.468  12.683   4.104  1.00  0.00     0.181 A
HETATM   26  N2  UNL     1      20.113  12.044   5.231  1.00  0.00    -0.267 N
HETATM   27  N3  UNL     1      20.937  12.828   5.897  1.00  0.00    -0.239 N
ATOM     28  H2  UNL     1      19.479  11.281   5.469  1.00  0.00     0.190 HD
HETATM   29  N4  UNL     1      21.305  13.472   4.814  1.00  0.00    -0.267 N
ATOM     30  H3  UNL     1      21.192  12.906   6.881  1.00  0.00     0.208 HD
ATOM     31  H4  UNL     1      21.945  14.237   4.600  1.00  0.00     0.190 HD
ENDBRANCH  21  25
ENDBRANCH   1  21
TORSDOF 5
ENDMDL