MODEL 4
REMARK VINA RESULT: -7.033257275      2.420      6.035
REMARK  5 active torsions:
REMARK  status: ('A' for Active; 'I' for Inactive)
REMARK    1  A    between atoms: C11_11  and  N1_12
REMARK    2  A    between atoms: N1_12  and  C12_14
REMARK    3  A    between atoms: N2_16  and  N3_18
REMARK       I    between atoms: N3_18  and  C13_20
REMARK    4  A    between atoms: C13_20  and  C14_22
REMARK    5  A    between atoms: C14_22  and  C15_23
ROOT
HETATM    1  N1  UNL     1      20.250  10.991   4.495  1.00  0.00    -0.361 N
ATOM      2  H1  UNL     1      20.645  10.063   4.339  1.00  0.00     0.162 HD
ENDROOT
BRANCH   1   3
HETATM    3  C11 UNL     1      19.868  11.736   3.337  1.00  0.00     0.092 C
HETATM    4  C9  UNL     1      18.337  11.806   3.217  1.00  0.00     0.009 C
HETATM    5  C8  UNL     1      17.653  10.491   3.253  1.00  0.00     0.011 C
HETATM    6  C10 UNL     1      18.036  12.524   1.926  1.00  0.00     0.012 C
HETATM    7  C7  UNL     1      18.220   9.630   2.146  1.00  0.00    -0.013 C
HETATM    8  C6  UNL     1      17.786  10.309   0.840  1.00  0.00     0.010 C
HETATM    9  C17 UNL     1      19.707   9.543   2.200  1.00  0.00     0.012 C
HETATM   10  C5  UNL     1      18.460  11.639   0.748  1.00  0.00    -0.004 C
HETATM   11  C4  UNL     1      19.967  11.533   0.825  1.00  0.00    -0.028 A
HETATM   12  C2  UNL     1      20.744  11.084  -0.359  1.00  0.00    -0.009 A
HETATM   13  C3  UNL     1      20.728  12.547   0.110  1.00  0.00     0.015 A
HETATM   14  C16 UNL     1      20.335  10.928   2.128  1.00  0.00     0.018 C
HETATM   15  C1  UNL     1      22.081  10.442  -0.245  1.00  0.00     0.011 C
ENDBRANCH   1   3
BRANCH   1  16
HETATM   16  C12 UNL     1      20.133  11.415   5.816  1.00  0.00     0.186 C
HETATM   17  S1  UNL     1      20.937  12.861   6.220  1.00  0.00    -0.040 SA
HETATM   18  N2  UNL     1      19.458  10.833   6.851  1.00  0.00    -0.274 N
ATOM     19  H2  UNL     1      19.493  11.329   7.741  1.00  0.00     0.189 HD
BRANCH  18  20
HETATM   20  N3  UNL     1      18.738   9.661   6.842  1.00  0.00    -0.267 N
HETATM   21  C13 UNL     1      19.374   8.478   7.394  1.00  0.00     0.246 C
HETATM   22  O1  UNL     1      20.537   8.586   7.847  1.00  0.00    -0.271 OA
ATOM     23  H3  UNL     1      17.792   9.624   6.461  1.00  0.00     0.190 HD
BRANCH  21  24
HETATM   24  C14 UNL     1      18.572   7.238   7.369  1.00  0.00     0.217 C
BRANCH  24  25
HETATM   25  C15 UNL     1      17.182   7.562   7.003  1.00  0.00     0.181 C
HETATM   26  O2  UNL     1      16.322   7.728   7.873  1.00  0.00    -0.648 OA
HETATM   27  O3  UNL     1      16.901   7.667   5.634  1.00  0.00    -0.648 OA
ENDBRANCH  24  25
ENDBRANCH  21  24
ENDBRANCH  18  20
ENDBRANCH   1  16
TORSDOF 5
ENDMDL