MODEL 5
REMARK VINA RESULT: -8.059725098      3.969      4.372
REMARK  5 active torsions:
REMARK  status: ('A' for Active; 'I' for Inactive)
REMARK    1  A    between atoms: C8_9  and  N1_10
REMARK       I    between atoms: N1_10  and  C9_12
REMARK    2  A    between atoms: C9_12  and  C10_14
REMARK    3  A    between atoms: C10_14  and  N2_15
REMARK       I    between atoms: N2_15  and  C11_17
REMARK       I    between atoms: C11_17  and  N3_19
REMARK    4  A    between atoms: N3_19  and  C12_21
REMARK    5  A    between atoms: C16_25  and  N4_26
ROOT
HETATM    1  C10 UNL     1      18.794  10.286   2.908  1.00  0.00     0.115 A
HETATM    2  C17 UNL     1      20.144   9.591   2.434  1.00  0.00     0.044 A
HETATM    3  C18 UNL     1      20.056  11.050   2.647  1.00  0.00     0.044 A
ENDROOT
BRANCH   1   4
HETATM    4  C9  UNL     1      18.472   9.913   4.302  1.00  0.00     0.246 C
HETATM    5  N1  UNL     1      17.789   8.790   4.727  1.00  0.00    -0.352 N
ATOM      6  H1  UNL     1      17.502   8.171   3.969  1.00  0.00     0.163 HD
HETATM    7  O1  UNL     1      18.915  10.768   5.151  1.00  0.00    -0.271 OA
BRANCH   5   8
HETATM    8  C8  UNL     1      17.412   8.335   6.013  1.00  0.00     0.112 C
HETATM    9  C2  UNL     1      18.394   7.729   6.926  1.00  0.00     0.058 C
HETATM   10  C1  UNL     1      19.831   8.023   6.804  1.00  0.00     0.035 C
HETATM   11 CL1  UNL     1      18.276   5.910   6.948  1.00  0.00    -0.117 Cl
HETATM   12  C3  UNL     1      17.830   8.124   8.293  1.00  0.00     0.011 C
HETATM   13  C4  UNL     1      16.428   7.575   8.369  1.00  0.00     0.007 C
HETATM   14  C7  UNL     1      17.512   9.600   8.015  1.00  0.00     0.013 C
HETATM   15  C5  UNL     1      15.535   8.535   7.582  1.00  0.00     0.007 C
HETATM   16  C6  UNL     1      16.615   9.321   6.817  1.00  0.00     0.011 C
ENDBRANCH   5   8
ENDBRANCH   1   4
BRANCH   1  17
HETATM   17  N2  UNL     1      17.829  10.341   1.858  1.00  0.00    -0.325 N
HETATM   18  C11 UNL     1      16.890  11.264   1.422  1.00  0.00     0.317 C
HETATM   19  O2  UNL     1      16.715  12.379   1.931  1.00  0.00    -0.247 OA
HETATM   20  N3  UNL     1      16.078  10.832   0.299  1.00  0.00    -0.336 N
ATOM     21  H3  UNL     1      16.238   9.910  -0.105  1.00  0.00     0.164 HD
ATOM     22  H2  UNL     1      17.829   9.494   1.289  1.00  0.00     0.165 HD
BRANCH  20  23
HETATM   23  C12 UNL     1      15.064  11.666  -0.251  1.00  0.00     0.116 C
HETATM   24  C13 UNL     1      13.727  11.164   0.316  1.00  0.00     0.027 C
HETATM   25  C14 UNL     1      12.737  11.317  -0.775  1.00  0.00     0.004 C
HETATM   26  C15 UNL     1      13.459  11.921  -1.957  1.00  0.00     0.035 C
HETATM   27  C16 UNL     1      14.885  11.461  -1.731  1.00  0.00     0.206 C
BRANCH  27  28
HETATM   28  N4  UNL     1      14.905  10.027  -1.993  1.00  0.00    -0.073 N
ATOM     29  H43 UNL     1      14.121   9.720  -2.569  1.00  0.00     0.274 HD
ATOM     30  H42 UNL     1      15.656   9.752  -2.626  1.00  0.00     0.274 HD
ATOM     31  H41 UNL     1      14.947   9.543  -1.096  1.00  0.00     0.274 HD
ENDBRANCH  27  28
ENDBRANCH  20  23
ENDBRANCH   1  17
TORSDOF 5
ENDMDL