MODEL 5
REMARK VINA RESULT: -8.716545698      2.963      3.996
REMARK  5 active torsions:
REMARK  status: ('A' for Active; 'I' for Inactive)
REMARK    1  A    between atoms: C4_4  and  N1_5
REMARK       I    between atoms: N1_5  and  C5_7
REMARK    2  A    between atoms: C7_11  and  N3_12
REMARK       I    between atoms: N3_12  and  C8_14
REMARK    3  A    between atoms: C8_14  and  C9_16
REMARK       I    between atoms: C9_16  and  N4_18
REMARK    4  A    between atoms: N4_18  and  C10_20
REMARK    5  A    between atoms: C10_20  and  C11_21
ROOT
HETATM    1  N3  UNL     1      20.340  12.856   2.174  1.00  0.00    -0.348 N
ATOM      2  H3  UNL     1      19.952  13.526   2.838  1.00  0.00     0.163 HD
HETATM    3  C8  UNL     1      20.172  11.482   2.415  1.00  0.00     0.309 C
HETATM    4  O2  UNL     1      20.636  10.645   1.622  1.00  0.00    -0.262 OA
ENDROOT
BRANCH   1   5
HETATM    5  C7  UNL     1      21.046  13.353   1.009  1.00  0.00     0.087 C
HETATM    6  C6  UNL     1      21.343  14.798   1.192  1.00  0.00     0.050 C
HETATM    7  C4  UNL     1      21.590  15.586  -0.046  1.00  0.00     0.088 C
HETATM    8  C3  UNL     1      21.841  14.798  -1.280  1.00  0.00     0.029 C
HETATM    9  C2  UNL     1      21.136  13.501  -1.404  1.00  0.00    -0.015 C
HETATM   10  C1  UNL     1      20.316  13.382  -2.681  1.00  0.00     0.010 C
HETATM   11  C18 UNL     1      20.222  13.170  -0.249  1.00  0.00     0.029 C
BRANCH   7  12
HETATM   12  N1  UNL     1      20.552  16.571  -0.284  1.00  0.00    -0.341 N
HETATM   13  C5  UNL     1      20.838  17.916  -0.644  1.00  0.00     0.329 C
HETATM   14  N2  UNL     1      19.831  18.859  -0.871  1.00  0.00    -0.040 NA
HETATM   15  O1  UNL     1      22.048  18.239  -0.755  1.00  0.00    -0.251 OA
ATOM     16  H1  UNL     1      19.577  16.287  -0.188  1.00  0.00     0.164 HD
ENDBRANCH   7  12
ENDBRANCH   1   5
BRANCH   3  17
HETATM   17  C9  UNL     1      19.447  10.981   3.610  1.00  0.00     0.309 C
HETATM   18  O3  UNL     1      18.243  10.735   3.423  1.00  0.00    -0.262 OA
HETATM   19  N4  UNL     1      20.093  10.810   4.833  1.00  0.00    -0.353 N
ATOM     20  H4  UNL     1      21.078  11.072   4.806  1.00  0.00     0.162 HD
BRANCH  19  21
HETATM   21  C10 UNL     1      19.673  10.352   6.105  1.00  0.00     0.128 C
BRANCH  21  22
HETATM   22  C11 UNL     1      19.555   8.910   6.269  1.00  0.00     0.008 C
HETATM   23  C12 UNL     1      18.327   8.167   5.870  1.00  0.00     0.011 C
HETATM   24  C13 UNL     1      18.294   6.981   6.842  1.00  0.00    -0.014 C
HETATM   25  C14 UNL     1      17.688   7.565   8.116  1.00  0.00     0.005 C
HETATM   26  C17 UNL     1      19.729   6.883   7.296  1.00  0.00     0.010 C
HETATM   27  C15 UNL     1      18.733   8.563   8.587  1.00  0.00     0.005 C
HETATM   28  C16 UNL     1      19.877   8.379   7.677  1.00  0.00    -0.009 C
ENDBRANCH  21  22
ENDBRANCH  19  21
ENDBRANCH   3  17
TORSDOF 5
ENDMDL