MODEL 4
REMARK VINA RESULT: -8.425536101      1.612      2.365
REMARK  5 active torsions:
REMARK  status: ('A' for Active; 'I' for Inactive)
REMARK    1  A    between atoms: C4_6  and  C5_7
REMARK       I    between atoms: C5_7  and  N2_9
REMARK    2  A    between atoms: N2_9  and  C6_11
REMARK    3  A    between atoms: C13_18  and  C14_19
REMARK    4  A    between atoms: C18_25  and  C19_26
REMARK    5  A    between atoms: C19_26  and  N3_27
ROOT
HETATM    1  C5  UNL     1      19.737  10.629   3.949  1.00  0.00     0.240 C
HETATM    2  O1  UNL     1      20.448  11.387   4.647  1.00  0.00    -0.271 OA
HETATM    3  N2  UNL     1      19.321   9.383   4.507  1.00  0.00    -0.354 N
ATOM      4  H2  UNL     1      18.742   8.757   3.948  1.00  0.00     0.162 HD
ENDROOT
BRANCH   1   5
HETATM    5  C4  UNL     1      19.354  11.047   2.575  1.00  0.00     0.169 C
HETATM    6  N1  UNL     1      17.989  11.426   2.532  1.00  0.00    -0.409 N
HETATM    7  C3  UNL     1      17.583  12.249   1.442  1.00  0.00     0.119 C
ATOM      8  H1  UNL     1      17.327  11.124   3.247  1.00  0.00     0.154 HD
HETATM    9  C2  UNL     1      18.657  12.245   0.352  1.00  0.00     0.004 C
HETATM   10  C1  UNL     1      18.181  12.841  -0.919  1.00  0.00     0.012 C
HETATM   11  C18 UNL     1      19.840  12.928   0.975  1.00  0.00     0.018 C
HETATM   12  C17 UNL     1      20.339  12.030   2.063  1.00  0.00     0.041 C
BRANCH  11  13
HETATM   13  C19 UNL     1      20.947  13.224   0.005  1.00  0.00     0.234 C
BRANCH  13  14
HETATM   14  N3  UNL     1      21.961  14.085   0.542  1.00  0.00    -0.079 N
ATOM     15  H33 UNL     1      21.585  15.015   0.726  1.00  0.00     0.274 HD
ATOM     16  H32 UNL     1      22.202  13.809   1.494  1.00  0.00     0.274 HD
ATOM     17  H31 UNL     1      22.796  14.140  -0.040  1.00  0.00     0.274 HD
ENDBRANCH  13  14
ENDBRANCH  11  13
ENDBRANCH   1   5
BRANCH   3  18
HETATM   18  C6  UNL     1      19.698   8.992   5.830  1.00  0.00     0.092 C
HETATM   19  C7  UNL     1      19.264   7.595   6.185  1.00  0.00     0.010 C
HETATM   20  C8  UNL     1      20.004   7.217   7.466  1.00  0.00     0.011 C
HETATM   21  C16 UNL     1      17.794   7.469   6.443  1.00  0.00     0.027 C
HETATM   22  C9  UNL     1      19.595   8.153   8.554  1.00  0.00    -0.012 C
HETATM   23  C10 UNL     1      19.930   9.587   8.180  1.00  0.00     0.011 C
HETATM   24  C15 UNL     1      18.103   8.086   8.794  1.00  0.00     0.025 C
HETATM   25  C11 UNL     1      19.207   9.967   6.890  1.00  0.00     0.010 C
HETATM   26  C12 UNL     1      17.720   9.828   7.033  1.00  0.00     0.027 C
HETATM   27  C13 UNL     1      17.385   8.440   7.529  1.00  0.00     0.049 C
BRANCH  27  28
HETATM   28  C14 UNL     1      15.926   8.362   7.695  1.00  0.00     0.181 C
HETATM   29  O2  UNL     1      15.459   8.157   8.845  1.00  0.00    -0.647 OA
HETATM   30  O3  UNL     1      15.046   8.502   6.650  1.00  0.00    -0.647 OA
ENDBRANCH  27  28
ENDBRANCH   3  18
TORSDOF 5
ENDMDL