MODEL 5
REMARK VINA RESULT: -6.727819071      1.961      2.272
REMARK  8 active torsions:
REMARK  status: ('A' for Active; 'I' for Inactive)
REMARK    1  A    between atoms: C2_2  and  C3_3
REMARK    2  A    between atoms: C3_3  and  C4_4
REMARK    3  A    between atoms: C5_5  and  C6_6
REMARK    4  A    between atoms: C6_6  and  C7_7
REMARK       I    between atoms: C7_7  and  N1_9
REMARK    5  A    between atoms: C11_14  and  O2_15
REMARK    6  A    between atoms: C11_14  and  C12_17
REMARK    7  A    between atoms: C12_17  and  N2_18
REMARK       I    between atoms: N2_18  and  C13_20
REMARK       I    between atoms: C13_20  and  N3_22
REMARK    8  A    between atoms: N3_22  and  C14_24
ROOT
HETATM    1  C6  UNL     1      19.280  11.167   3.314  1.00  0.00     0.105 C
HETATM    2  C9  UNL     1      20.202  10.593   2.264  1.00  0.00     0.035 C
HETATM    3  C10 UNL     1      20.337  11.494   1.056  1.00  0.00     0.043 C
HETATM    4  C11 UNL     1      18.991  11.542   0.364  1.00  0.00     0.090 C
HETATM    5  C16 UNL     1      17.861  11.617   1.362  1.00  0.00     0.120 C
HETATM    6 CL1  UNL     1      16.592  12.700   0.772  1.00  0.00    -0.122 Cl
HETATM    7  C17 UNL     1      18.385  12.212   2.674  1.00  0.00     0.055 C
ENDROOT
BRANCH   4   8
HETATM    8  O2  UNL     1      18.805  10.419  -0.439  1.00  0.00    -0.387 OA
ATOM      9  H2  UNL     1      19.510  10.334  -1.071  1.00  0.00     0.210 HD
ENDBRANCH   4   8
BRANCH   4  10
HETATM   10  C12 UNL     1      18.997  12.789  -0.512  1.00  0.00     0.163 C
BRANCH  10  11
HETATM   11  N2  UNL     1      20.389  13.238  -0.642  1.00  0.00    -0.340 N
HETATM   12  C13 UNL     1      20.964  13.459  -1.917  1.00  0.00     0.316 C
HETATM   13  O3  UNL     1      20.245  13.260  -2.934  1.00  0.00    -0.247 OA
HETATM   14  N3  UNL     1      22.303  13.891  -2.034  1.00  0.00    -0.344 N
ATOM     15  H3  UNL     1      22.871  14.049  -1.201  1.00  0.00     0.164 HD
ATOM     16  H2  UNL     1      20.949  13.393   0.196  1.00  0.00     0.164 HD
BRANCH  14  17
HETATM   17  C14 UNL     1      22.859  14.107  -3.356  1.00  0.00     0.120 C
HETATM   18  C15 UNL     1      23.885  13.035  -3.661  1.00  0.00     0.026 C
ENDBRANCH  14  17
ENDBRANCH  10  11
ENDBRANCH   4  10
BRANCH   1  19
HETATM   19  C5  UNL     1      18.370  10.081   3.758  1.00  0.00    -0.087 C
HETATM   20  C4  UNL     1      17.626   9.210   4.136  1.00  0.00    -0.105 C
BRANCH  20  21
HETATM   21  C3  UNL     1      16.718   8.168   4.614  1.00  0.00     0.093 C
BRANCH  21  22
HETATM   22  C2  UNL     1      16.765   8.065   6.138  1.00  0.00     0.007 C
HETATM   23  C1  UNL     1      17.957   7.284   6.615  1.00  0.00     0.006 C
ENDBRANCH  21  22
ENDBRANCH  20  21
ENDBRANCH   1  19
BRANCH   1  24
HETATM   24  C7  UNL     1      20.014  11.733   4.458  1.00  0.00     0.238 C
HETATM   25  O1  UNL     1      20.804  12.686   4.308  1.00  0.00    -0.272 OA
HETATM   26  N1  UNL     1      19.824  11.197   5.743  1.00  0.00    -0.364 N
HETATM   27  C8  UNL     1      20.490  11.674   6.939  1.00  0.00     0.149 C
ATOM     28  H1  UNL     1      19.172  10.418   5.840  1.00  0.00     0.161 HD
ENDBRANCH   1  24
TORSDOF 8
ENDMDL