MODEL 2
REMARK VINA RESULT: -7.399462622      2.386      3.313
REMARK  5 active torsions:
REMARK  status: ('A' for Active; 'I' for Inactive)
REMARK    1  A    between atoms: C3_3  and  O1_4
REMARK    2  A    between atoms: C6_8  and  N1_9
REMARK       I    between atoms: N1_9  and  C7_11
REMARK    3  A    between atoms: C7_11  and  C8_13
REMARK    4  A    between atoms: C13_18  and  N2_19
REMARK       I    between atoms: N2_19  and  C14_21
REMARK    5  A    between atoms: C14_21  and  C15_23
ROOT
HETATM    1  C8  UNL     1      20.023  10.906   3.790  1.00  0.00     0.100 C
HETATM    2  C9  UNL     1      19.960  12.125   4.662  1.00  0.00     0.016 C
HETATM    3  C10 UNL     1      21.010  13.098   4.109  1.00  0.00     0.001 C
HETATM    4  C11 UNL     1      20.594  13.505   2.725  1.00  0.00     0.002 C
HETATM    5  C12 UNL     1      20.255  12.386   1.824  1.00  0.00     0.026 C
HETATM    6  C13 UNL     1      19.463  11.275   2.440  1.00  0.00     0.097 C
ENDROOT
BRANCH   1   7
HETATM    7  C7  UNL     1      19.333   9.765   4.393  1.00  0.00     0.224 C
HETATM    8  N1  UNL     1      18.929   9.722   5.747  1.00  0.00    -0.356 N
ATOM      9  H1  UNL     1      19.124  10.525   6.344  1.00  0.00     0.162 HD
HETATM   10  O2  UNL     1      19.086   8.764   3.663  1.00  0.00    -0.273 OA
BRANCH   8  11
HETATM   11  C6  UNL     1      18.250   8.583   6.312  1.00  0.00     0.090 C
HETATM   12  C2  UNL     1      16.772   8.807   6.502  1.00  0.00     0.033 C
HETATM   13  C1  UNL     1      16.035   8.418   5.253  1.00  0.00     0.014 C
HETATM   14  C3  UNL     1      16.438   7.776   7.567  1.00  0.00     0.124 C
HETATM   15  C4  UNL     1      17.600   7.861   8.514  1.00  0.00     0.034 C
HETATM   16  C5  UNL     1      18.779   8.222   7.670  1.00  0.00     0.028 C
BRANCH  14  17
HETATM   17  O1  UNL     1      15.265   8.073   8.238  1.00  0.00    -0.395 OA
ATOM     18  H1  UNL     1      15.338   8.862   8.761  1.00  0.00     0.210 HD
ENDBRANCH  14  17
ENDBRANCH   8  11
ENDBRANCH   1   7
BRANCH   6  19
HETATM   19  N2  UNL     1      18.087  11.659   2.482  1.00  0.00    -0.355 N
HETATM   20  C14 UNL     1      17.229  11.333   1.401  1.00  0.00     0.227 C
HETATM   21  O3  UNL     1      17.668  10.703   0.394  1.00  0.00    -0.273 OA
ATOM     22  H2  UNL     1      17.723  12.167   3.288  1.00  0.00     0.162 HD
BRANCH  20  23
HETATM   23  C15 UNL     1      15.788  11.696   1.365  1.00  0.00     0.187 C
HETATM   24 BR1  UNL     1      14.928  11.002  -0.209  1.00  0.00    -0.087 Br
ENDBRANCH  20  23
ENDBRANCH   6  19
TORSDOF 5
ENDMDL