MODEL 1
REMARK VINA RESULT: -7.153312811      0.000      0.000
REMARK  7 active torsions:
REMARK  status: ('A' for Active; 'I' for Inactive)
REMARK    1  A    between atoms: C2_2  and  N1_4
REMARK    2  A    between atoms: N1_4  and  C3_6
REMARK    3  A    between atoms: C6_9  and  N2_10
REMARK    4  A    between atoms: N2_10  and  C7_12
REMARK    5  A    between atoms: C9_17  and  C10_18
REMARK    6  A    between atoms: C10_18  and  C11_19
REMARK    7  A    between atoms: C11_19  and  O1_20
ROOT
HETATM    1  N2  UNL     1      20.246  13.339   3.133  1.00  0.00    -0.221 N
ATOM      2  H2  UNL     1      20.640  14.268   3.284  1.00  0.00     0.178 HD
ENDROOT
BRANCH   1   3
HETATM    3  C6  UNL     1      20.082  12.559   4.294  1.00  0.00     0.099 C
HETATM    4  C5  UNL     1      20.149  11.081   4.117  1.00  0.00     0.028 C
HETATM    5  C4  UNL     1      19.515  10.437   5.336  1.00  0.00     0.027 C
HETATM    6  C3  UNL     1      20.057  10.927   6.636  1.00  0.00     0.082 C
HETATM    7  C13 UNL     1      20.305  12.414   6.703  1.00  0.00     0.027 C
HETATM    8  C12 UNL     1      21.020  12.915   5.439  1.00  0.00     0.028 C
BRANCH   6   9
HETATM    9  N1  UNL     1      19.166  10.551   7.699  1.00  0.00    -0.380 N
ATOM     10  H1  UNL     1      19.068  11.228   8.456  1.00  0.00     0.160 HD
BRANCH   9  11
HETATM   11  C2  UNL     1      18.416   9.381   7.831  1.00  0.00     0.069 C
HETATM   12  C1  UNL     1      19.128   8.091   8.187  1.00  0.00     0.081 C
HETATM   13  S1  UNL     1      16.805   9.219   7.646  1.00  0.00    -0.066 SA
ENDBRANCH   9  11
ENDBRANCH   6   9
ENDBRANCH   1   3
BRANCH   1  14
HETATM   14  C7  UNL     1      19.977  13.055   1.930  1.00  0.00     0.679 A
HETATM   15  N3  UNL     1      18.808  12.969   1.280  1.00  0.00    -0.183 N
HETATM   16  C8  UNL     1      19.005  12.632  -0.010  1.00  0.00     0.119 A
ATOM     17  H3  UNL     1      17.896  13.136   1.704  1.00  0.00     0.185 HD
HETATM   18 BR1  UNL     1      17.611  12.376  -1.310  1.00  0.00    -0.029 Br
HETATM   19  C9  UNL     1      20.343  12.498  -0.194  1.00  0.00     0.063 A
HETATM   20  N4  UNL     1      20.909  12.763   1.009  1.00  0.00    -0.193 N
ATOM     21  H4  UNL     1      21.913  12.743   1.191  1.00  0.00     0.184 HD
BRANCH  19  22
HETATM   22  C10 UNL     1      21.047  12.152  -1.455  1.00  0.00     0.086 C
BRANCH  22  23
HETATM   23  C11 UNL     1      21.442  10.707  -1.518  1.00  0.00     0.170 C
BRANCH  23  24
HETATM   24  O1  UNL     1      22.163  10.296  -0.436  1.00  0.00    -0.400 OA
ATOM     25  H1  UNL     1      22.048   9.374  -0.236  1.00  0.00     0.209 HD
ENDBRANCH  23  24
ENDBRANCH  22  23
ENDBRANCH  19  22
ENDBRANCH   1  14
TORSDOF 7
ENDMDL