MODEL 5
REMARK VINA RESULT: -4.318821354      1.414      1.623
REMARK  1 active torsions:
REMARK  status: ('A' for Active; 'I' for Inactive)
REMARK    1  A    between atoms: C2_2  and  C3_3
ROOT
HETATM    1  C3  UNL     1       9.318  42.483  17.871  1.00  0.00     0.324 C
HETATM    2  N1  UNL     1       9.297  43.523  16.876  1.00  0.00    -0.142 NA
HETATM    3  S1  UNL     1       7.795  43.188  15.966  1.00  0.00    -0.033 SA
HETATM    4  C4  UNL     1       7.209  41.841  17.071  1.00  0.00     0.366 C
HETATM    5  N2  UNL     1       7.995  42.112  18.226  1.00  0.00     0.114 N
HETATM    6  C5  UNL     1       7.390  43.257  18.916  1.00  0.00     0.313 C
ENDROOT
BRANCH   1   7
HETATM    7  C2  UNL     1      10.245  41.357  17.566  1.00  0.00     0.049 C
HETATM    8  C1  UNL     1      11.681  41.683  17.492  1.00  0.00     0.009 C
ENDBRANCH   1   7
TORSDOF 1
ENDMDL