MODEL 4
REMARK VINA RESULT: -5.148513529      1.996      4.344
REMARK  2 active torsions:
REMARK  status: ('A' for Active; 'I' for Inactive)
REMARK    1  A    between atoms: C2_2  and  N1_3
REMARK    2  A    between atoms: N2_5  and  C3_7
ROOT
HETATM    1  C3  UNL     1       8.579  43.460  16.328  1.00  0.00     0.117 C
HETATM    2  C4  UNL     1       7.161  43.152  15.965  1.00  0.00     0.033 C
HETATM    3  C5  UNL     1       6.256  43.444  17.132  1.00  0.00     0.046 C
HETATM    4  C6  UNL     1       6.418  44.822  17.684  1.00  0.00     0.055 C
HETATM    5  N3  UNL     1       7.629  45.472  17.388  1.00  0.00    -0.400 N
ATOM      6  H3  UNL     1       7.680  46.490  17.359  1.00  0.00     0.158 HD
HETATM    7  C7  UNL     1       8.774  44.687  17.132  1.00  0.00     0.145 C
ENDROOT
BRANCH   1   8
HETATM    8  N2  UNL     1       9.117  42.312  17.035  1.00  0.00    -0.334 N
HETATM    9  N1  UNL     1      10.329  42.335  17.382  1.00  0.00    -0.341 N
ATOM     10  H1  UNL     1      10.923  43.137  17.174  1.00  0.00     0.179 HD
ATOM     11  H2  UNL     1       8.529  41.506  17.247  1.00  0.00     0.180 HD
BRANCH   9  12
HETATM   12  C2  UNL     1      10.843  41.191  18.079  1.00  0.00     0.134 C
HETATM   13  C1  UNL     1      10.081  39.982  17.584  1.00  0.00     0.028 C
ENDBRANCH   9  12
ENDBRANCH   1   8
TORSDOF 2
ENDMDL