MODEL 1
REMARK VINA RESULT: -5.275201517      0.000      0.000
REMARK  1 active torsions:
REMARK  status: ('A' for Active; 'I' for Inactive)
REMARK    1  A    between atoms: N2_3  and  C2_5
ROOT
HETATM    1  N1  UNL     1      11.155  39.449  19.824  1.00  0.00    -0.172 NA
HETATM    2  C1  UNL     1      11.034  40.292  19.034  1.00  0.00     0.177 C
HETATM    3  N2  UNL     1      10.895  41.293  18.068  1.00  0.00    -0.323 N
ATOM      4  H2  UNL     1      11.703  41.549  17.501  1.00  0.00     0.172 HD
ENDROOT
BRANCH   3   5
HETATM    5  C2  UNL     1       9.653  41.966  17.854  1.00  0.00     0.101 C
HETATM    6  C3  UNL     1       8.644  41.162  17.101  1.00  0.00     0.027 C
HETATM    7  C4  UNL     1       7.281  41.442  17.725  1.00  0.00     0.012 C
HETATM    8  C5  UNL     1       7.093  42.889  18.061  1.00  0.00     0.074 C
HETATM    9  S1  UNL     1       8.128  43.980  17.032  1.00  0.00    -0.167 SA
HETATM   10  C6  UNL     1       9.828  43.283  17.088  1.00  0.00     0.099 C
ENDBRANCH   3   5
TORSDOF 1
ENDMDL