MODEL 2
REMARK VINA RESULT: -4.815964870      2.669      3.692
REMARK  1 active torsions:
REMARK  status: ('A' for Active; 'I' for Inactive)
REMARK    1  A    between atoms: C2_2  and  C3_3
ROOT
HETATM    1  C3  UNL     1       9.599  41.013  17.338  1.00  0.00     0.099 C
HETATM    2  C4  UNL     1      10.439  42.223  17.540  1.00  0.00     0.096 C
HETATM    3  N1  UNL     1       9.993  43.455  17.155  1.00  0.00    -0.308 N
ATOM      4  H1  UNL     1      10.781  44.102  17.139  1.00  0.00     0.186 HD
HETATM    5  N2  UNL     1       9.010  44.036  16.833  1.00  0.00    -0.265 N
ATOM      6  H2  UNL     1       9.054  45.027  16.595  1.00  0.00     0.196 HD
HETATM    7  S1  UNL     1       7.493  43.185  16.768  1.00  0.00     0.036 SA
HETATM    8  S2  UNL     1       7.883  41.376  17.840  1.00  0.00    -0.064 SA
ENDROOT
BRANCH   1   9
HETATM    9  C2  UNL     1      10.155  39.837  18.091  1.00  0.00     0.017 C
HETATM   10  C1  UNL     1       9.936  39.924  19.566  1.00  0.00     0.006 C
ENDBRANCH   1   9
TORSDOF 1
ENDMDL