MODEL 3
REMARK VINA RESULT: -5.230699617      1.263      1.481
REMARK  1 active torsions:
REMARK  status: ('A' for Active; 'I' for Inactive)
REMARK    1  A    between atoms: C2_2  and  C3_3
ROOT
HETATM    1  C3  UNL     1       9.293  42.659  17.101  1.00  0.00     0.091 C
HETATM    2  C4  UNL     1       8.447  42.110  18.194  1.00  0.00     0.099 C
HETATM    3  S1  UNL     1       6.735  42.719  17.951  1.00  0.00    -0.160 SA
HETATM    4  C5  UNL     1       6.815  43.747  16.445  1.00  0.00     0.146 C
HETATM    5  C6  UNL     1       8.008  44.616  16.533  1.00  0.00     0.098 C
HETATM    6  N1  UNL     1       7.946  46.005  16.293  1.00  0.00    -0.087 NA
HETATM    7  N2  UNL     1       9.117  44.051  16.839  1.00  0.00    -0.376 N
ATOM      8  H2  UNL     1       9.943  44.646  16.900  1.00  0.00     0.160 HD
ENDROOT
BRANCH   1   9
HETATM    9  C2  UNL     1      10.778  42.448  17.394  1.00  0.00     0.021 C
HETATM   10  C1  UNL     1      11.008  41.070  17.964  1.00  0.00     0.007 C
ENDBRANCH   1   9
TORSDOF 1
ENDMDL