MODEL 3
REMARK VINA RESULT: -5.444688401      1.881      3.967
REMARK  2 active torsions:
REMARK  status: ('A' for Active; 'I' for Inactive)
REMARK    1  A    between atoms: O1_2  and  N1_3
REMARK    2  A    between atoms: N1_3  and  C2_4
ROOT
HETATM    1  C2  UNL     1       9.914  42.213  17.934  1.00  0.00     0.135 C
HETATM    2  C3  UNL     1       8.696  41.598  18.546  1.00  0.00     0.028 C
HETATM    3  C4  UNL     1       9.089  40.386  19.340  1.00  0.00     0.034 C
HETATM    4  C5  UNL     1      10.325  39.755  18.783  1.00  0.00     0.124 C
HETATM    5  C6  UNL     1      10.250  39.812  17.275  1.00  0.00     0.065 C
HETATM    6  C7  UNL     1      10.897  41.131  17.548  1.00  0.00     0.145 C
HETATM    7  O2  UNL     1      11.409  40.610  18.744  1.00  0.00    -0.379 OA
ENDROOT
BRANCH   1   8
HETATM    8  N1  UNL     1       9.610  43.072  16.809  1.00  0.00    -0.094 NA
BRANCH   8   9
HETATM    9  O1  UNL     1       9.512  44.358  17.145  1.00  0.00    -0.291 OA
HETATM   10  C1  UNL     1       8.329  44.960  16.768  1.00  0.00     0.231 C
ENDBRANCH   8   9
ENDBRANCH   1   8
TORSDOF 2
ENDMDL