MODEL 5
REMARK VINA RESULT: -5.854629134      1.058      1.225
REMARK  2 active torsions:
REMARK  status: ('A' for Active; 'I' for Inactive)
REMARK    1  A    between atoms: C2_3  and  O1_4
REMARK    2  A    between atoms: O1_4  and  O2_5
ROOT
HETATM    1  N1  UNL     1       6.922  44.990  19.615  1.00  0.00    -0.194 NA
HETATM    2  C1  UNL     1       7.331  44.370  18.725  1.00  0.00     0.101 C
HETATM    3  C2  UNL     1       7.840  43.573  17.586  1.00  0.00     0.183 C
HETATM    4  C3  UNL     1       7.550  42.145  17.820  1.00  0.00     0.057 C
HETATM    5  C4  UNL     1       8.621  41.320  18.398  1.00  0.00     0.004 C
HETATM    6  C5  UNL     1      10.004  41.611  17.952  1.00  0.00     0.000 C
HETATM    7  C6  UNL     1      10.163  42.776  17.052  1.00  0.00     0.004 C
HETATM    8  C7  UNL     1       9.263  43.929  17.346  1.00  0.00     0.057 C
ENDROOT
BRANCH   3   9
HETATM    9  O1  UNL     1       7.066  43.993  16.478  1.00  0.00    -0.217 OA
BRANCH   9  10
HETATM   10  O2  UNL     1       5.847  44.313  16.875  1.00  0.00    -0.249 OA
ATOM     11  H2  UNL     1       5.237  44.228  16.151  1.00  0.00     0.253 HD
ENDBRANCH   9  10
ENDBRANCH   3   9
TORSDOF 2
ENDMDL