MODEL 4
REMARK VINA RESULT: -5.432790744      1.551      1.551
REMARK  1 active torsions:
REMARK  status: ('A' for Active; 'I' for Inactive)
REMARK    1  A    between atoms: S1_3  and  C2_4
ROOT
HETATM    1  N1  UNL     1       6.413  44.980  19.765  1.00  0.00    -0.184 NA
HETATM    2  C1  UNL     1       6.654  44.136  19.014  1.00  0.00     0.135 C
HETATM    3  S1  UNL     1       7.014  42.819  17.882  1.00  0.00    -0.027 SA
ENDROOT
BRANCH   3   4
HETATM    4  C2  UNL     1       8.731  42.385  18.068  1.00  0.00     0.182 C
HETATM    5  C3  UNL     1       9.001  40.881  17.906  1.00  0.00     0.037 C
HETATM    6  C4  UNL     1      10.434  40.727  18.438  1.00  0.00     0.031 C
HETATM    7  C5  UNL     1      11.298  41.584  17.537  1.00  0.00     0.196 C
HETATM    8  O1  UNL     1      10.854  42.897  17.556  1.00  0.00    -0.285 OA
HETATM    9  N2  UNL     1       9.596  43.038  17.091  1.00  0.00    -0.085 NA
ENDBRANCH   3   4
TORSDOF 1
ENDMDL