MODEL 1
REMARK VINA RESULT: -4.426921697      0.000      0.000
REMARK  3 active torsions:
REMARK  status: ('A' for Active; 'I' for Inactive)
REMARK    1  A    between atoms: C2_4  and  N2_5
REMARK    2  A    between atoms: C2_4  and  S1_8
REMARK    3  A    between atoms: S1_8  and  C4_9
ROOT
HETATM    1  C4  UNL     1       8.304  43.699  17.501  1.00  0.00     0.206 C
HETATM    2  C5  UNL     1       7.970  44.956  16.836  1.00  0.00     0.069 C
HETATM    3  N3  UNL     1       7.723  45.960  16.315  1.00  0.00    -0.197 NA
ENDROOT
BRANCH   1   4
HETATM    4  S1  UNL     1       9.938  43.097  17.088  1.00  0.00    -0.080 SA
BRANCH   4   5
HETATM    5  C2  UNL     1      10.382  41.617  17.929  1.00  0.00     0.136 C
HETATM    6  N1  UNL     1      11.584  41.168  17.901  1.00  0.00    -0.375 N
HETATM    7  C1  UNL     1      12.688  41.768  17.219  1.00  0.00     0.148 C
ATOM      8  H1  UNL     1      11.769  40.305  18.411  1.00  0.00     0.161 HD
BRANCH   5   9
HETATM    9  N2  UNL     1       9.416  40.882  18.662  1.00  0.00    -0.375 N
HETATM   10  C3  UNL     1       9.786  39.885  19.654  1.00  0.00     0.148 C
ATOM     11  H2  UNL     1       8.427  41.059  18.486  1.00  0.00     0.161 HD
ENDBRANCH   5   9
ENDBRANCH   4   5
ENDBRANCH   1   4
TORSDOF 3
ENDMDL