MODEL 1
REMARK VINA RESULT: -3.702596987      0.000      0.000
REMARK  1 active torsions:
REMARK  status: ('A' for Active; 'I' for Inactive)
REMARK    1  A    between atoms: C4_6  and  N1_7
ROOT
HETATM    1  C1  UNL     1       9.396  43.496  17.093  1.00  0.00     0.024 C
HETATM    2  C2  UNL     1       8.313  43.092  18.047  1.00  0.00     0.085 C
HETATM    3  S1  UNL     1       7.178  41.869  17.346  1.00  0.00    -0.091 SA
HETATM    4  S2  UNL     1       5.531  43.240  17.066  1.00  0.00    -0.095 SA
HETATM    5  C3  UNL     1       6.534  44.707  17.538  1.00  0.00     0.120 C
HETATM    6  C4  UNL     1       7.518  44.238  18.552  1.00  0.00     0.207 C
ENDROOT
BRANCH   6   7
HETATM    7  N1  UNL     1       6.855  43.987  19.811  1.00  0.00    -0.073 N
ATOM      8  H13 UNL     1       5.843  44.013  19.694  1.00  0.00     0.274 HD
ATOM      9  H12 UNL     1       6.972  43.013  20.089  1.00  0.00     0.274 HD
ATOM     10  H11 UNL     1       7.144  44.610  20.565  1.00  0.00     0.274 HD
ENDBRANCH   6   7
TORSDOF 1
ENDMDL