MODEL 5
REMARK VINA RESULT: -8.035404552      3.048      6.679
REMARK  7 active torsions:
REMARK  status: ('A' for Active; 'I' for Inactive)
REMARK    1  A    between atoms: C2_2  and  C3_3
REMARK    2  A    between atoms: C3_3  and  S1_4
REMARK    3  A    between atoms: S1_4  and  C4_5
REMARK    4  A    between atoms: C5_8  and  N2_9
REMARK    5  A    between atoms: N2_9  and  C6_11
REMARK    6  A    between atoms: C6_11  and  C7_12
REMARK    7  A    between atoms: C6_11  and  C12_20
ROOT
HETATM    1  C4  UNL     1      -6.631  28.638  54.554  1.00  0.00     0.110 A
HETATM    2  N1  UNL     1      -7.314  29.782  54.855  1.00  0.00    -0.184 N
ATOM      3  H1  UNL     1      -8.240  29.921  54.448  1.00  0.00     0.185 HD
HETATM    4  C5  UNL     1      -6.817  30.732  55.666  1.00  0.00     0.681 A
HETATM    5  N4  UNL     1      -5.586  30.494  56.176  1.00  0.00    -0.177 N
ATOM      6  H4  UNL     1      -5.182  31.196  56.795  1.00  0.00     0.185 HD
HETATM    7  C15 UNL     1      -4.870  29.402  55.922  1.00  0.00     0.155 A
HETATM    8  N5  UNL     1      -3.565  29.181  56.482  1.00  0.00    -0.080 NA
HETATM    9  C16 UNL     1      -5.387  28.431  55.088  1.00  0.00     0.120 A
HETATM   10  C17 UNL     1      -4.588  27.256  54.817  1.00  0.00     0.106 C
HETATM   11  N6  UNL     1      -3.962  26.313  54.584  1.00  0.00    -0.191 NA
ENDROOT
BRANCH   1  12
HETATM   12  S1  UNL     1      -7.336  27.418  53.461  1.00  0.00    -0.110 SA
BRANCH  12  13
HETATM   13  C3  UNL     1      -6.765  27.580  51.761  1.00  0.00     0.080 C
BRANCH  13  14
HETATM   14  C2  UNL     1      -7.825  27.162  50.797  1.00  0.00     0.006 C
HETATM   15  C1  UNL     1      -8.652  26.010  51.334  1.00  0.00     0.006 C
ENDBRANCH  13  14
ENDBRANCH  12  13
ENDBRANCH   1  12
BRANCH   4  16
HETATM   16  N2  UNL     1      -7.413  31.813  55.975  1.00  0.00    -0.216 N
ATOM     17  H2  UNL     1      -6.889  32.672  55.803  1.00  0.00     0.178 HD
BRANCH  16  18
HETATM   18  C6  UNL     1      -8.711  31.983  56.527  1.00  0.00     0.152 C
BRANCH  18  19
HETATM   19  C7  UNL     1      -9.548  32.671  55.480  1.00  0.00     0.034 A
HETATM   20  C8  UNL     1      -8.954  33.415  54.488  1.00  0.00     0.027 A
HETATM   21  C9  UNL     1      -9.739  34.033  53.541  1.00  0.00     0.005 A
HETATM   22  C10 UNL     1     -11.111  33.928  53.560  1.00  0.00     0.037 A
HETATM   23  C11 UNL     1     -11.646  33.164  54.587  1.00  0.00     0.080 A
HETATM   24 BR1  UNL     1     -13.552  33.022  54.609  1.00  0.00    -0.031 Br
HETATM   25  N3  UNL     1     -10.877  32.566  55.502  1.00  0.00    -0.352 N
ATOM     26  H3  UNL     1     -11.319  32.015  56.237  1.00  0.00     0.166 HD
ENDBRANCH  18  19
BRANCH  18  27
HETATM   27  C12 UNL     1      -8.618  32.903  57.727  1.00  0.00     0.007 C
HETATM   28  C13 UNL     1      -9.627  32.607  58.788  1.00  0.00     0.012 C
HETATM   29  C14 UNL     1      -7.240  32.807  58.358  1.00  0.00     0.012 C
ENDBRANCH  18  27
ENDBRANCH  16  18
ENDBRANCH   4  16
TORSDOF 7
ENDMDL