MODEL 1
REMARK VINA RESULT: -9.004595286      0.000      0.000
REMARK  8 active torsions:
REMARK  status: ('A' for Active; 'I' for Inactive)
REMARK    1  A    between atoms: C3_5  and  N2_6
REMARK    2  A    between atoms: N2_6  and  N3_8
REMARK    3  A    between atoms: C4_10  and  C5_11
REMARK    4  A    between atoms: C8_14  and  O1_15
REMARK    5  A    between atoms: N5_24  and  C13_25
REMARK    6  A    between atoms: C13_25  and  C14_26
REMARK    7  A    between atoms: C14_26  and  C15_27
REMARK    8  A    between atoms: C15_27  and  C16_28
ROOT
HETATM    1  C1  UNL     1      -7.644  30.503  46.476  1.00  0.00     0.089 C
HETATM    2  C2  UNL     1      -8.399  29.266  46.862  1.00  0.00     0.080 A
HETATM    3  N1  UNL     1      -9.287  28.685  46.069  1.00  0.00    -0.329 N
ATOM      4  H1  UNL     1      -9.461  29.103  45.155  1.00  0.00     0.168 HD
HETATM    5  C3  UNL     1      -9.972  27.575  46.400  1.00  0.00     0.152 A
HETATM    6  C11 UNL     1      -9.710  27.030  47.654  1.00  0.00     0.124 A
HETATM    7  N4  UNL     1     -10.186  25.970  48.294  1.00  0.00    -0.346 N
ATOM      8  H4  UNL     1     -10.888  25.332  47.920  1.00  0.00     0.167 HD
HETATM    9  C12 UNL     1      -9.613  25.854  49.506  1.00  0.00     0.185 A
HETATM   10  N5  UNL     1      -8.746  26.875  49.633  1.00  0.00    -0.327 N
HETATM   11  C19 UNL     1      -8.788  27.611  48.508  1.00  0.00     0.141 A
HETATM   12  N6  UNL     1      -8.163  28.721  48.068  1.00  0.00    -0.330 N
ATOM     13  H6  UNL     1      -7.479  29.169  48.679  1.00  0.00     0.168 HD
ENDROOT
BRANCH   5  14
HETATM   14  N2  UNL     1     -10.833  27.012  45.630  1.00  0.00    -0.284 N
ATOM     15  H2  UNL     1     -11.824  27.053  45.867  1.00  0.00     0.188 HD
BRANCH  14  16
HETATM   16  N3  UNL     1     -10.438  26.365  44.507  1.00  0.00    -0.309 N
HETATM   17  C4  UNL     1     -10.310  26.686  43.305  1.00  0.00     0.119 C
ATOM     18  H3  UNL     1     -10.187  25.391  44.682  1.00  0.00     0.186 HD
BRANCH  17  19
HETATM   19  C5  UNL     1     -10.553  27.949  42.636  1.00  0.00    -0.002 A
HETATM   20  C6  UNL     1      -9.883  29.105  42.956  1.00  0.00     0.017 A
HETATM   21  C7  UNL     1     -10.123  30.330  42.302  1.00  0.00     0.037 A
HETATM   22  C8  UNL     1     -11.071  30.355  41.303  1.00  0.00     0.067 A
HETATM   23  C9  UNL     1     -11.766  29.220  40.949  1.00  0.00     0.056 A
HETATM   24  C10 UNL     1     -11.505  28.048  41.608  1.00  0.00     0.025 A
HETATM   25 BR1  UNL     1     -12.452  26.434  41.150  1.00  0.00    -0.050 Br
BRANCH  22  26
HETATM   26  O1  UNL     1     -11.332  31.548  40.639  1.00  0.00    -0.361 OA
ATOM     27  H1  UNL     1     -11.204  31.596  39.699  1.00  0.00     0.217 HD
ENDBRANCH  22  26
ENDBRANCH  17  19
ENDBRANCH  14  16
ENDBRANCH   5  14
BRANCH  10  28
HETATM   28  C13 UNL     1      -7.910  27.152  50.764  1.00  0.00     0.131 C
BRANCH  28  29
HETATM   29  C14 UNL     1      -8.033  26.127  51.869  1.00  0.00     0.021 C
BRANCH  29  30
HETATM   30  C15 UNL     1      -8.332  26.757  53.200  1.00  0.00     0.005 C
BRANCH  30  31
HETATM   31  C16 UNL     1      -7.063  27.102  53.905  1.00  0.00    -0.023 C
HETATM   32  C17 UNL     1      -6.916  28.554  54.222  1.00  0.00     0.009 C
HETATM   33  C18 UNL     1      -6.914  26.308  55.187  1.00  0.00     0.009 C
ENDBRANCH  30  31
ENDBRANCH  29  30
ENDBRANCH  28  29
ENDBRANCH  10  28
TORSDOF 8
ENDMDL