MODEL 5
REMARK VINA RESULT: -7.749744384      0.845      1.293
REMARK  9 active torsions:
REMARK  status: ('A' for Active; 'I' for Inactive)
REMARK    1  A    between atoms: C2_2  and  N1_3
REMARK    2  A    between atoms: C2_2  and  C13_19
REMARK    3  A    between atoms: N1_3  and  C3_4
REMARK    4  A    between atoms: N1_3  and  C7_8
REMARK    5  A    between atoms: C3_4  and  C4_5
REMARK    6  A    between atoms: C8_13  and  C9_14
REMARK    7  A    between atoms: C13_19  and  N4_22
REMARK    8  A    between atoms: N4_22  and  C14_25
REMARK    9  A    between atoms: C21_32  and  O2_33
ROOT
HETATM    1  C1  UNL     1      -2.224  28.852  57.655  1.00  0.00     0.040 C
HETATM    2  C2  UNL     1      -3.118  27.665  57.115  1.00  0.00     0.186 C
ENDROOT
BRANCH   2   3
HETATM    3  N1  UNL     1      -4.301  28.230  56.606  1.00  0.00    -0.333 N
BRANCH   3   4
HETATM    4  C3  UNL     1      -4.659  29.659  56.556  1.00  0.00     0.132 C
BRANCH   4   5
HETATM    5  C4  UNL     1      -5.985  29.902  57.176  1.00  0.00     0.004 A
HETATM    6  C5  UNL     1      -7.079  30.506  56.281  1.00  0.00     0.007 A
HETATM    7  C6  UNL     1      -6.534  31.263  57.465  1.00  0.00     0.007 A
ENDBRANCH   4   5
ENDBRANCH   3   4
BRANCH   3   8
HETATM    8  C7  UNL     1      -5.300  27.412  55.942  1.00  0.00     0.243 A
HETATM    9  N2  UNL     1      -5.945  26.393  56.472  1.00  0.00    -0.263 N
HETATM   10  N3  UNL     1      -6.774  25.949  55.505  1.00  0.00    -0.279 N
ATOM     11  H2  UNL     1      -5.840  26.019  57.415  1.00  0.00     0.190 HD
HETATM   12  C8  UNL     1      -6.610  26.703  54.435  1.00  0.00     0.149 A
ATOM     13  H3  UNL     1      -7.419  25.163  55.586  1.00  0.00     0.189 HD
HETATM   14  O1  UNL     1      -5.702  27.614  54.688  1.00  0.00    -0.263 OA
BRANCH  12  15
HETATM   15  C9  UNL     1      -7.334  26.574  53.114  1.00  0.00     0.016 C
HETATM   16  C10 UNL     1      -6.572  27.413  52.124  1.00  0.00     0.023 C
HETATM   17  C11 UNL     1      -8.735  27.133  53.343  1.00  0.00     0.023 C
HETATM   18  C12 UNL     1      -7.398  25.134  52.752  1.00  0.00     0.023 C
ENDBRANCH  12  15
ENDBRANCH   3   8
ENDBRANCH   2   3
BRANCH   2  19
HETATM   19  C13 UNL     1      -2.208  26.968  56.155  1.00  0.00     0.424 C
HETATM   20  F1  UNL     1      -2.301  27.945  55.024  1.00  0.00    -0.173 F
HETATM   21  F2  UNL     1      -2.699  25.809  55.664  1.00  0.00    -0.173 F
BRANCH  19  22
HETATM   22  N4  UNL     1      -0.819  26.905  56.432  1.00  0.00    -0.002 N
ATOM     23  H42 UNL     1      -0.273  27.277  55.655  1.00  0.00     0.284 HD
ATOM     24  H41 UNL     1      -0.558  27.577  57.153  1.00  0.00     0.284 HD
BRANCH  22  25
HETATM   25  C14 UNL     1      -0.382  25.558  56.784  1.00  0.00     0.201 C
HETATM   26  C15 UNL     1       0.127  24.730  55.668  1.00  0.00     0.020 C
HETATM   27  C16 UNL     1       1.395  25.258  55.027  1.00  0.00     0.011 C
HETATM   28  C23 UNL     1       0.507  23.347  56.204  1.00  0.00     0.044 C
HETATM   29  C17 UNL     1       2.476  25.416  56.086  1.00  0.00    -0.011 C
HETATM   30  C18 UNL     1       1.949  26.379  57.100  1.00  0.00     0.011 C
HETATM   31  C22 UNL     1       2.786  24.079  56.727  1.00  0.00     0.042 C
HETATM   32  C19 UNL     1       0.757  25.730  57.800  1.00  0.00     0.020 C
HETATM   33  C20 UNL     1       1.046  24.396  58.396  1.00  0.00     0.044 C
HETATM   34  C21 UNL     1       1.541  23.475  57.296  1.00  0.00     0.059 C
BRANCH  34  35
HETATM   35  O2  UNL     1       1.770  22.251  57.870  1.00  0.00    -0.390 OA
ATOM     36  H2  UNL     1       2.295  21.750  57.256  1.00  0.00     0.210 HD
ENDBRANCH  34  35
ENDBRANCH  22  25
ENDBRANCH  19  22
ENDBRANCH   2  19
TORSDOF 9
ENDMDL