MODEL 5
REMARK VINA RESULT: -8.112650058      2.272      3.604
REMARK  6 active torsions:
REMARK  status: ('A' for Active; 'I' for Inactive)
REMARK    1  A    between atoms: O1_2  and  C2_3
REMARK    2  A    between atoms: N2_6  and  C3_7
REMARK    3  A    between atoms: C3_7  and  C4_8
REMARK    4  A    between atoms: C13_20  and  C14_21
REMARK    5  A    between atoms: C14_21  and  C15_22
REMARK    6  A    between atoms: C17_29  and  C18_30
ROOT
HETATM    1  C2  UNL     1      -3.072  29.487  56.010  1.00  0.00     0.171 A
HETATM    2  N1  UNL     1      -4.392  29.662  55.882  1.00  0.00    -0.275 N
ATOM      3  H1  UNL     1      -4.861  30.568  55.896  1.00  0.00     0.189 HD
HETATM    4  N2  UNL     1      -5.001  28.508  55.738  1.00  0.00    -0.269 N
HETATM    5  C10 UNL     1      -4.112  27.501  55.763  1.00  0.00     0.138 A
HETATM    6  N3  UNL     1      -3.936  26.180  55.680  1.00  0.00    -0.344 N
ATOM      7  H3  UNL     1      -4.683  25.498  55.550  1.00  0.00     0.167 HD
HETATM    8  C11 UNL     1      -2.619  25.880  55.792  1.00  0.00     0.014 A
HETATM    9  C12 UNL     1      -2.093  24.487  55.737  1.00  0.00     0.068 C
HETATM   10  C13 UNL     1      -1.947  27.076  55.954  1.00  0.00    -0.012 A
HETATM   11  C21 UNL     1      -2.864  28.113  55.939  1.00  0.00     0.070 A
ENDROOT
BRANCH  10  12
HETATM   12  C14 UNL     1      -0.493  27.234  56.059  1.00  0.00     0.099 C
BRANCH  12  13
HETATM   13  C15 UNL     1       0.180  26.671  57.208  1.00  0.00     0.026 A
HETATM   14  N4  UNL     1      -0.100  27.197  58.445  1.00  0.00    -0.311 N
HETATM   15  C16 UNL     1       0.466  26.747  59.570  1.00  0.00     0.325 A
ATOM     16  H4  UNL     1      -0.769  27.965  58.509  1.00  0.00     0.170 HD
HETATM   17  O2  UNL     1       0.170  27.272  60.695  1.00  0.00    -0.247 OA
HETATM   18  N5  UNL     1       1.346  25.738  59.492  1.00  0.00    -0.307 N
HETATM   19  C17 UNL     1       1.672  25.171  58.324  1.00  0.00     0.054 A
ATOM     20  H5  UNL     1       1.779  25.392  60.348  1.00  0.00     0.170 HD
HETATM   21  C19 UNL     1       1.072  25.651  57.151  1.00  0.00    -0.011 A
HETATM   22  C20 UNL     1       1.456  24.988  55.885  1.00  0.00     0.052 C
BRANCH  19  23
HETATM   23  C18 UNL     1       2.637  24.067  58.260  1.00  0.00     0.111 C
HETATM   24  S1  UNL     1       2.320  22.560  58.786  1.00  0.00    -0.090 SA
ENDBRANCH  19  23
ENDBRANCH  12  13
ENDBRANCH  10  12
BRANCH   1  25
HETATM   25  O1  UNL     1      -2.129  30.474  56.175  1.00  0.00    -0.339 OA
HETATM   26  C1  UNL     1      -1.336  30.890  55.081  1.00  0.00     0.211 C
ENDBRANCH   1  25
BRANCH   4  27
HETATM   27  C3  UNL     1      -6.429  28.345  55.573  1.00  0.00     0.192 C
BRANCH  27  28
HETATM   28  C4  UNL     1      -6.781  27.674  54.304  1.00  0.00     0.000 A
HETATM   29  C5  UNL     1      -6.646  28.326  53.104  1.00  0.00     0.012 A
HETATM   30  C6  UNL     1      -6.971  27.713  51.895  1.00  0.00     0.001 A
HETATM   31  C7  UNL     1      -7.441  26.421  51.891  1.00  0.00     0.003 A
HETATM   32  C8  UNL     1      -7.586  25.748  53.083  1.00  0.00     0.043 A
HETATM   33  C9  UNL     1      -7.254  26.381  54.289  1.00  0.00     0.124 A
HETATM   34  F1  UNL     1      -7.417  25.669  55.428  1.00  0.00    -0.205 F
ENDBRANCH  27  28
ENDBRANCH   4  27
TORSDOF 6
ENDMDL