MODEL 1
REMARK VINA RESULT: -8.829880457      0.000      0.000
REMARK  7 active torsions:
REMARK  status: ('A' for Active; 'I' for Inactive)
REMARK    1  A    between atoms: O1_2  and  C2_3
REMARK    2  A    between atoms: C4_5  and  C5_6
REMARK    3  A    between atoms: C5_6  and  C6_7
REMARK    4  A    between atoms: C6_7  and  N1_8
REMARK    5  A    between atoms: N1_8  and  C7_10
REMARK    6  A    between atoms: C18_30  and  O2_31
REMARK    7  A    between atoms: C20_33  and  O3_34
ROOT
HETATM    1  C7  UNL     1      -7.750  27.198  50.143  1.00  0.00     0.114 A
HETATM    2  N2  UNL     1      -8.342  26.189  50.805  1.00  0.00    -0.338 N
ATOM      3  H2  UNL     1      -7.978  25.914  51.717  1.00  0.00     0.168 HD
HETATM    4  C8  UNL     1      -9.403  25.528  50.298  1.00  0.00     0.182 A
HETATM    5  N3  UNL     1      -9.919  25.854  49.097  1.00  0.00    -0.351 N
ATOM      6  H3  UNL     1     -10.721  25.357  48.711  1.00  0.00     0.166 HD
HETATM    7  C9  UNL     1      -9.332  26.863  48.428  1.00  0.00     0.055 A
HETATM    8  C10 UNL     1      -9.870  27.187  47.198  1.00  0.00    -0.005 A
HETATM    9  C11 UNL     1     -11.039  26.443  46.662  1.00  0.00     0.053 C
HETATM   10  C12 UNL     1      -9.305  28.221  46.461  1.00  0.00     0.069 A
HETATM   11  N4  UNL     1      -9.645  28.720  45.252  1.00  0.00    -0.330 N
ATOM     12  H4  UNL     1     -10.411  28.397  44.660  1.00  0.00     0.168 HD
HETATM   13  C13 UNL     1      -8.785  29.726  44.968  1.00  0.00     0.180 A
HETATM   14 CL1  UNL     1      -8.838  30.673  43.497  1.00  0.00    -0.045 Cl
HETATM   15  N5  UNL     1      -7.927  29.839  45.999  1.00  0.00    -0.331 N
ATOM     16  H5  UNL     1      -7.168  30.517  46.058  1.00  0.00     0.168 HD
HETATM   17  C14 UNL     1      -8.221  28.925  46.937  1.00  0.00     0.063 A
HETATM   18  C15 UNL     1      -7.695  28.590  48.166  1.00  0.00     0.049 A
HETATM   19  C16 UNL     1      -8.246  27.562  48.915  1.00  0.00     0.037 A
ENDROOT
BRANCH   1  20
HETATM   20  N1  UNL     1      -6.746  27.838  50.602  1.00  0.00    -0.375 N
ATOM     21  H1  UNL     1      -6.245  28.445  49.953  1.00  0.00     0.161 HD
BRANCH  20  22
HETATM   22  C6  UNL     1      -6.261  27.779  51.953  1.00  0.00     0.126 C
BRANCH  22  23
HETATM   23  C5  UNL     1      -7.395  28.047  52.942  1.00  0.00     0.058 C
BRANCH  23  24
HETATM   24  C4  UNL     1      -6.896  28.534  54.230  1.00  0.00    -0.051 A
HETATM   25  C3  UNL     1      -7.281  29.774  54.712  1.00  0.00     0.047 A
HETATM   26  C2  UNL     1      -6.839  30.277  55.918  1.00  0.00     0.104 A
HETATM   27  C20 UNL     1      -5.976  29.530  56.690  1.00  0.00     0.135 A
HETATM   28  C18 UNL     1      -5.574  28.280  56.227  1.00  0.00     0.104 A
HETATM   29  C17 UNL     1      -6.028  27.791  55.015  1.00  0.00     0.047 A
BRANCH  26  30
HETATM   30  O1  UNL     1      -7.235  31.531  56.395  1.00  0.00    -0.353 OA
HETATM   31  C1  UNL     1      -8.606  31.714  56.679  1.00  0.00     0.210 C
ENDBRANCH  26  30
BRANCH  27  32
HETATM   32  O3  UNL     1      -5.541  30.049  57.901  1.00  0.00    -0.351 OA
HETATM   33  C21 UNL     1      -4.378  30.857  57.929  1.00  0.00     0.210 C
ENDBRANCH  27  32
BRANCH  28  34
HETATM   34  O2  UNL     1      -4.704  27.577  57.050  1.00  0.00    -0.353 OA
HETATM   35  C19 UNL     1      -3.317  27.474  56.762  1.00  0.00     0.210 C
ENDBRANCH  28  34
ENDBRANCH  23  24
ENDBRANCH  22  23
ENDBRANCH  20  22
ENDBRANCH   1  20
TORSDOF 7
ENDMDL