MODEL 4
REMARK VINA RESULT: -6.760920476      2.248      3.265
REMARK  11 active torsions:
REMARK  status: ('A' for Active; 'I' for Inactive)
REMARK    1  A    between atoms: C3_5  and  N2_7
REMARK    2  A    between atoms: N2_7  and  C5_9
REMARK    3  A    between atoms: C5_9  and  N3_11
REMARK    4  A    between atoms: N3_11  and  N4_13
REMARK    5  A    between atoms: N4_13  and  C6_14
REMARK    6  A    between atoms: C6_14  and  C7_15
REMARK    7  A    between atoms: C10_19  and  C11_20
REMARK    8  A    between atoms: C11_20  and  C12_21
REMARK    9  A    between atoms: C15_24  and  O1_25
REMARK   10  A    between atoms: O1_25  and  C16_26
REMARK   11  A    between atoms: C18_29  and  O3_30
ROOT
HETATM    1  C1  UNL     1      -9.129  27.537  48.935  1.00  0.00     0.037 C
HETATM    2  C2  UNL     1      -8.893  26.830  49.882  1.00  0.00     0.000 C
HETATM    3  N1  UNL     1      -8.653  26.001  50.955  1.00  0.00    -0.306 N
ATOM      4  H1  UNL     1      -9.184  25.134  51.037  1.00  0.00     0.177 HD
HETATM    5  C3  UNL     1      -7.784  26.283  51.852  1.00  0.00     0.086 C
HETATM    6  C4  UNL     1      -7.551  25.355  52.999  1.00  0.00     0.089 C
ENDROOT
BRANCH   5   7
HETATM    7  N2  UNL     1      -7.046  27.492  51.760  1.00  0.00    -0.321 N
ATOM      8  H2  UNL     1      -7.015  28.014  50.884  1.00  0.00     0.169 HD
BRANCH   7   9
HETATM    9  C5  UNL     1      -6.353  27.959  52.899  1.00  0.00     0.202 C
HETATM   10  S1  UNL     1      -7.076  28.808  54.059  1.00  0.00    -0.038 SA
BRANCH   9  11
HETATM   11  N3  UNL     1      -4.943  27.669  53.004  1.00  0.00    -0.209 N
ATOM     12  H3  UNL     1      -4.344  27.853  52.199  1.00  0.00     0.204 HD
BRANCH  11  13
HETATM   13  N4  UNL     1      -4.401  27.180  54.090  1.00  0.00    -0.335 NA
BRANCH  13  14
HETATM   14  C6  UNL     1      -3.927  26.748  55.075  1.00  0.00     0.225 C
BRANCH  14  15
HETATM   15  C7  UNL     1      -2.937  27.179  56.039  1.00  0.00     0.053 A
HETATM   16  C8  UNL     1      -3.177  28.216  56.892  1.00  0.00     0.050 A
HETATM   17 CL1  UNL     1      -4.708  29.048  56.886  1.00  0.00    -0.083 Cl
HETATM   18  C9  UNL     1      -2.198  28.639  57.813  1.00  0.00     0.034 A
HETATM   19  C10 UNL     1      -0.969  28.039  57.893  1.00  0.00    -0.019 A
HETATM   20  C15 UNL     1      -0.720  27.001  57.041  1.00  0.00     0.119 A
HETATM   21  C18 UNL     1      -1.670  26.578  56.140  1.00  0.00     0.117 A
BRANCH  19  22
HETATM   22  C11 UNL     1       0.003  28.547  58.883  1.00  0.00     0.045 C
BRANCH  22  23
HETATM   23  C12 UNL     1      -0.027  27.705  60.151  1.00  0.00    -0.018 C
HETATM   24  C13 UNL     1       1.383  27.226  60.467  1.00  0.00     0.010 C
HETATM   25  C14 UNL     1      -0.397  28.655  61.266  1.00  0.00     0.010 C
ENDBRANCH  22  23
ENDBRANCH  19  22
BRANCH  20  26
HETATM   26  O1  UNL     1       0.501  26.377  57.091  1.00  0.00    -0.276 OA
BRANCH  26  27
HETATM   27  C16 UNL     1       1.468  26.543  56.122  1.00  0.00     0.260 C
HETATM   28  C17 UNL     1       1.894  27.938  55.826  1.00  0.00     0.126 C
HETATM   29  O2  UNL     1       1.923  25.520  55.562  1.00  0.00    -0.265 OA
ENDBRANCH  26  27
ENDBRANCH  20  26
BRANCH  21  30
HETATM   30  O3  UNL     1      -1.403  25.527  55.280  1.00  0.00    -0.352 OA
HETATM   31  C19 UNL     1      -1.405  24.170  55.556  1.00  0.00     0.210 C
ENDBRANCH  21  30
ENDBRANCH  14  15
ENDBRANCH  13  14
ENDBRANCH  11  13
ENDBRANCH   9  11
ENDBRANCH   7   9
ENDBRANCH   5   7
TORSDOF 11
ENDMDL