MODEL 3
REMARK VINA RESULT: -6.942793444      2.223      4.301
REMARK  7 active torsions:
REMARK  status: ('A' for Active; 'I' for Inactive)
REMARK    1  A    between atoms: O1_2  and  C2_3
REMARK    2  A    between atoms: C5_6  and  N1_7
REMARK    3  A    between atoms: N1_7  and  C6_9
REMARK    4  A    between atoms: C7_10  and  C8_11
REMARK    5  A    between atoms: C12_20  and  O3_21
REMARK    6  A    between atoms: C14_25  and  C15_26
REMARK    7  A    between atoms: C21_32  and  O4_33
ROOT
HETATM    1  C6  UNL     1      -2.570  27.870  56.395  1.00  0.00     0.064 A
HETATM    2  C7  UNL     1      -2.996  26.850  55.565  1.00  0.00     0.072 A
HETATM    3  C9  UNL     1      -2.460  25.538  55.639  1.00  0.00     0.107 A
HETATM    4  N3  UNL     1      -1.518  25.285  56.532  1.00  0.00    -0.361 N
ATOM      5  H3  UNL     1      -1.126  24.345  56.590  1.00  0.00     0.165 HD
HETATM    6  C10 UNL     1      -1.065  26.239  57.365  1.00  0.00     0.090 A
HETATM    7  C11 UNL     1      -0.106  25.847  58.285  1.00  0.00     0.194 A
HETATM    8  F1  UNL     1       0.384  24.585  58.326  1.00  0.00    -0.199 F
HETATM    9  C12 UNL     1       0.354  26.776  59.182  1.00  0.00     0.184 A
HETATM   10  N4  UNL     1      -0.140  27.990  59.120  1.00  0.00    -0.337 N
ATOM     11  H4  UNL     1       0.221  28.659  59.800  1.00  0.00     0.168 HD
HETATM   12  C14 UNL     1      -1.090  28.466  58.241  1.00  0.00     0.029 A
HETATM   13  C18 UNL     1      -1.561  27.552  57.336  1.00  0.00     0.045 A
ENDROOT
BRANCH   1  14
HETATM   14  N1  UNL     1      -3.042  29.005  56.470  1.00  0.00    -0.354 N
ATOM     15  H1  UNL     1      -2.270  29.667  56.399  1.00  0.00     0.166 HD
BRANCH  14  16
HETATM   16  C5  UNL     1      -4.192  29.720  56.610  1.00  0.00     0.041 A
HETATM   17  C4  UNL     1      -5.349  29.109  57.175  1.00  0.00     0.033 A
HETATM   18  C3  UNL     1      -6.512  29.785  57.387  1.00  0.00     0.042 A
HETATM   19  C2  UNL     1      -6.615  31.112  57.055  1.00  0.00     0.102 A
HETATM   20  C21 UNL     1      -5.532  31.744  56.509  1.00  0.00     0.109 A
HETATM   21  C19 UNL     1      -4.348  31.045  56.296  1.00  0.00     0.001 A
HETATM   22  C20 UNL     1      -3.270  31.859  55.638  1.00  0.00     0.054 C
BRANCH  19  23
HETATM   23  O1  UNL     1      -7.789  31.829  57.259  1.00  0.00    -0.353 OA
HETATM   24  C1  UNL     1      -8.896  31.659  56.387  1.00  0.00     0.210 C
ENDBRANCH  19  23
BRANCH  20  25
HETATM   25  O4  UNL     1      -5.584  33.089  56.156  1.00  0.00    -0.352 OA
HETATM   26  C22 UNL     1      -6.100  33.451  54.889  1.00  0.00     0.210 C
ENDBRANCH  20  25
ENDBRANCH  14  16
ENDBRANCH   1  14
BRANCH   2  27
HETATM   27  C8  UNL     1      -3.948  27.006  54.514  1.00  0.00     0.268 C
HETATM   28  N2  UNL     1      -5.278  26.478  54.790  1.00  0.00    -0.057 NA
HETATM   29  O2  UNL     1      -3.742  27.535  53.435  1.00  0.00    -0.271 OA
ENDBRANCH   2  27
BRANCH  12  30
HETATM   30  C15 UNL     1      -1.505  29.855  58.296  1.00  0.00     0.028 C
HETATM   31  C16 UNL     1      -2.153  29.934  59.764  1.00  0.00     0.016 C
HETATM   32  C17 UNL     1      -0.359  30.818  58.559  1.00  0.00     0.016 C
ENDBRANCH  12  30
BRANCH   9  33
HETATM   33  O3  UNL     1       1.332  26.408  60.135  1.00  0.00    -0.338 OA
HETATM   34  C13 UNL     1       2.368  27.276  60.471  1.00  0.00     0.211 C
ENDBRANCH   9  33
TORSDOF 7
ENDMDL