MODEL 1
REMARK VINA RESULT: -8.225988628      0.000      0.000
REMARK  7 active torsions:
REMARK  status: ('A' for Active; 'I' for Inactive)
REMARK       I    between atoms: C2_2  and  N1_4
REMARK    1  A    between atoms: N1_4  and  C3_5
REMARK    2  A    between atoms: C5_7  and  C6_8
REMARK    3  A    between atoms: C6_8  and  N2_11
REMARK       I    between atoms: N2_11  and  C9_13
REMARK    4  A    between atoms: C9_13  and  C10_15
REMARK    5  A    between atoms: C13_19  and  C14_20
REMARK    6  A    between atoms: C14_20  and  N4_21
REMARK    7  A    between atoms: C16_23  and  C17_24
ROOT
HETATM    1  C10 UNL     1      -3.213  32.336  55.735  1.00  0.00     0.180 C
HETATM    2  C11 UNL     1      -2.136  31.349  55.300  1.00  0.00     0.035 C
HETATM    3  C12 UNL     1      -3.427  33.215  54.590  1.00  0.00     0.073 C
HETATM    4  N3  UNL     1      -3.610  33.915  53.688  1.00  0.00    -0.196 NA
ENDROOT
BRANCH   1   5
HETATM    5  C9  UNL     1      -4.419  31.614  56.161  1.00  0.00     0.235 C
HETATM    6  N2  UNL     1      -5.359  31.057  55.252  1.00  0.00    -0.347 N
ATOM      7  H2  UNL     1      -5.175  31.160  54.254  1.00  0.00     0.163 HD
HETATM    8  O2  UNL     1      -4.646  31.474  57.387  1.00  0.00    -0.272 OA
BRANCH   6   9
HETATM    9  C6  UNL     1      -6.577  30.346  55.652  1.00  0.00     0.054 C
HETATM   10  C7  UNL     1      -6.703  30.577  57.110  1.00  0.00     0.043 C
HETATM   11  C8  UNL     1      -7.630  31.183  54.872  1.00  0.00     0.043 C
BRANCH   9  12
HETATM   12  C5  UNL     1      -6.546  28.972  55.155  1.00  0.00    -0.016 A
HETATM   13  C4  UNL     1      -7.064  28.724  53.858  1.00  0.00     0.058 A
HETATM   14  C3  UNL     1      -7.158  27.548  53.229  1.00  0.00     0.150 A
HETATM   15  C22 UNL     1      -6.678  26.432  53.967  1.00  0.00     0.157 A
HETATM   16  C21 UNL     1      -6.177  26.612  55.205  1.00  0.00     0.059 A
HETATM   17  F1  UNL     1      -6.768  25.234  53.358  1.00  0.00    -0.203 F
HETATM   18  C13 UNL     1      -6.090  27.883  55.845  1.00  0.00    -0.007 A
BRANCH  14  19
HETATM   19  N1  UNL     1      -7.715  27.292  51.991  1.00  0.00    -0.368 NA
HETATM   20  C2  UNL     1      -8.244  27.050  50.811  1.00  0.00     0.288 C
HETATM   21  C1  UNL     1      -9.393  26.057  50.682  1.00  0.00     0.135 C
HETATM   22  O1  UNL     1      -7.928  27.546  49.684  1.00  0.00    -0.258 OA
ENDBRANCH  14  19
BRANCH  18  23
HETATM   23  C14 UNL     1      -5.511  27.811  57.139  1.00  0.00     0.129 C
BRANCH  23  24
HETATM   24  N4  UNL     1      -4.105  28.029  57.385  1.00  0.00    -0.262 N
HETATM   25  C15 UNL     1      -2.982  27.471  56.931  1.00  0.00     0.144 A
HETATM   26  C16 UNL     1      -1.865  28.070  57.466  1.00  0.00     0.052 A
HETATM   27  N5  UNL     1      -2.343  29.019  58.267  1.00  0.00    -0.288 N
HETATM   28  N6  UNL     1      -3.650  29.003  58.228  1.00  0.00    -0.237 N
ATOM     29  H5  UNL     1      -1.778  29.659  58.826  1.00  0.00     0.188 HD
ATOM     30  H6  UNL     1      -4.250  29.635  58.757  1.00  0.00     0.209 HD
BRANCH  26  31
HETATM   31  C17 UNL     1      -0.445  27.680  57.156  1.00  0.00    -0.006 C
HETATM   32  C18 UNL     1       0.243  28.751  56.374  1.00  0.00     0.021 C
HETATM   33  C19 UNL     1      -0.540  26.398  56.348  1.00  0.00     0.021 C
HETATM   34  C20 UNL     1       0.304  27.343  58.438  1.00  0.00     0.021 C
ENDBRANCH  26  31
ENDBRANCH  23  24
ENDBRANCH  18  23
ENDBRANCH   9  12
ENDBRANCH   6   9
ENDBRANCH   1   5
TORSDOF 7
ENDMDL