MODEL 1
REMARK VINA RESULT: -10.277012111      0.000      0.000
REMARK  7 active torsions:
REMARK  status: ('A' for Active; 'I' for Inactive)
REMARK    1  A    between atoms: C2_2  and  N1_3
REMARK    2  A    between atoms: N1_3  and  C4_5
REMARK    3  A    between atoms: C4_5  and  C5_6
REMARK    4  A    between atoms: C7_10  and  N3_11
REMARK    5  A    between atoms: N3_11  and  C8_13
REMARK    6  A    between atoms: C9_16  and  C10_17
REMARK    7  A    between atoms: C12_19  and  C13_20
REMARK       I    between atoms: C13_20  and  N5_22
ROOT
HETATM    1  C8  UNL     1      -7.307  27.308  50.983  1.00  0.00     0.164 A
HETATM    2  N4  UNL     1      -6.889  27.983  52.034  1.00  0.00    -0.335 N
ATOM      3  H4  UNL     1      -6.213  28.737  51.918  1.00  0.00     0.168 HD
HETATM    4  C9  UNL     1      -7.337  27.690  53.218  1.00  0.00     0.054 A
HETATM    5  C20 UNL     1      -8.248  26.666  53.314  1.00  0.00     0.083 A
HETATM    6  S1  UNL     1      -8.393  26.191  51.669  1.00  0.00    -0.063 SA
ENDROOT
BRANCH   1   7
HETATM    7  N3  UNL     1      -6.978  27.415  49.602  1.00  0.00    -0.170 N
ATOM      8  H3  UNL     1      -5.992  27.360  49.349  1.00  0.00     0.186 HD
BRANCH   7   9
HETATM    9  C7  UNL     1      -7.815  27.573  48.662  1.00  0.00     0.683 A
HETATM   10  N2  UNL     1      -7.489  28.428  47.672  1.00  0.00    -0.201 N
HETATM   11  C6  UNL     1      -8.296  28.665  46.624  1.00  0.00     0.116 A
ATOM     12  H2  UNL     1      -6.594  28.915  47.721  1.00  0.00     0.183 HD
HETATM   13  C5  UNL     1      -9.515  28.021  46.530  1.00  0.00     0.002 A
HETATM   14  C21 UNL     1      -9.855  27.150  47.528  1.00  0.00     0.116 A
HETATM   15  N6  UNL     1      -8.999  26.950  48.567  1.00  0.00    -0.201 N
ATOM     16  H6  UNL     1      -9.268  26.299  49.303  1.00  0.00     0.183 HD
BRANCH  13  17
HETATM   17  C4  UNL     1     -10.389  28.318  45.342  1.00  0.00     0.313 C
BRANCH  17  18
HETATM   18  N1  UNL     1     -10.306  27.178  44.484  1.00  0.00     0.088 N
HETATM   19  C3  UNL     1     -11.529  26.421  44.406  1.00  0.00     0.310 C
BRANCH  18  20
HETATM   20  C2  UNL     1      -9.693  27.410  43.209  1.00  0.00     0.268 C
HETATM   21  C1  UNL     1     -10.703  27.068  42.131  1.00  0.00     0.037 C
ENDBRANCH  18  20
ENDBRANCH  17  18
ENDBRANCH  13  17
ENDBRANCH   7   9
ENDBRANCH   1   7
BRANCH   4  22
HETATM   22  C10 UNL     1      -6.888  28.430  54.430  1.00  0.00     0.031 A
HETATM   23  C11 UNL     1      -7.281  29.710  54.662  1.00  0.00     0.034 A
HETATM   24  C12 UNL     1      -6.879  30.459  55.802  1.00  0.00     0.039 A
HETATM   25  C15 UNL     1      -6.054  29.852  56.705  1.00  0.00    -0.037 A
HETATM   26  C16 UNL     1      -5.506  30.506  57.913  1.00  0.00     0.050 C
HETATM   27  C17 UNL     1      -5.656  28.542  56.463  1.00  0.00    -0.015 A
HETATM   28  C18 UNL     1      -4.761  27.881  57.437  1.00  0.00     0.052 C
HETATM   29  C19 UNL     1      -6.054  27.843  55.363  1.00  0.00     0.135 A
HETATM   30  F1  UNL     1      -5.667  26.562  55.127  1.00  0.00    -0.205 F
BRANCH  24  31
HETATM   31  C13 UNL     1      -7.411  31.788  55.962  1.00  0.00     0.251 C
HETATM   32  O1  UNL     1      -6.740  32.726  55.383  1.00  0.00    -0.268 OA
HETATM   33  N5  UNL     1      -8.544  32.161  56.651  1.00  0.00    -0.361 N
HETATM   34  C14 UNL     1      -8.949  33.578  56.731  1.00  0.00     0.149 C
ATOM     35  H5  UNL     1      -9.109  31.449  57.112  1.00  0.00     0.162 HD
ENDBRANCH  24  31
ENDBRANCH   4  22
TORSDOF 7
ENDMDL