MODEL 3
REMARK VINA RESULT: -6.167782204      3.611      4.546
REMARK  11 active torsions:
REMARK  status: ('A' for Active; 'I' for Inactive)
REMARK    1  A    between atoms: N1_1  and  C1_4
REMARK    2  A    between atoms: C2_7  and  C3_8
REMARK    3  A    between atoms: C3_8  and  S1_9
REMARK    4  A    between atoms: S1_9  and  C4_10
REMARK    5  A    between atoms: C4_10  and  C5_11
REMARK    6  A    between atoms: C5_11  and  N3_12
REMARK    7  A    between atoms: C11_20  and  N5_21
REMARK    8  A    between atoms: N5_21  and  C12_23
REMARK    9  A    between atoms: C12_23  and  C13_24
REMARK   10  A    between atoms: C13_24  and  C14_25
REMARK   11  A    between atoms: C14_25  and  N6_26
ROOT
HETATM    1  C1  UNL     1     -15.084 -63.238 -31.698  1.00  0.00     0.677 A
HETATM    2  N2  UNL     1     -16.264 -63.848 -31.530  1.00  0.00    -0.195 N
ATOM      3  H2  UNL     1     -16.514 -64.613 -32.156  1.00  0.00     0.184 HD
HETATM    4  C2  UNL     1     -17.133 -63.492 -30.567  1.00  0.00     0.039 A
HETATM    5  C10 UNL     1     -16.750 -62.439 -29.732  1.00  0.00     0.075 A
HETATM    6  C11 UNL     1     -15.556 -61.807 -29.885  1.00  0.00     0.118 A
HETATM    7  N7  UNL     1     -14.755 -62.229 -30.871  1.00  0.00    -0.177 N
ATOM      8  H7  UNL     1     -13.855 -61.765 -31.000  1.00  0.00     0.185 HD
ENDROOT
BRANCH   4   9
HETATM    9  C3  UNL     1     -18.436 -64.157 -30.373  1.00  0.00     0.131 C
BRANCH   9  10
HETATM   10  S1  UNL     1     -18.843 -65.225 -31.793  1.00  0.00    -0.161 SA
BRANCH  10  11
HETATM   11  C4  UNL     1     -18.428 -66.921 -31.395  1.00  0.00     0.104 C
BRANCH  11  12
HETATM   12  C5  UNL     1     -17.635 -67.549 -32.490  1.00  0.00     0.282 C
BRANCH  12  13
HETATM   13  N3  UNL     1     -16.248 -67.728 -32.180  1.00  0.00     0.092 N
HETATM   14  C6  UNL     1     -15.433 -67.044 -33.128  1.00  0.00     0.291 C
HETATM   15  C7  UNL     1     -15.074 -67.847 -34.333  1.00  0.00     0.144 C
HETATM   16  N4  UNL     1     -15.788 -69.060 -34.491  1.00  0.00    -0.418 N
HETATM   17  C8  UNL     1     -15.957 -69.838 -33.310  1.00  0.00     0.144 C
ATOM     18  H4  UNL     1     -16.159 -69.358 -35.394  1.00  0.00     0.153 HD
HETATM   19  C9  UNL     1     -15.832 -69.085 -32.030  1.00  0.00     0.291 C
ENDBRANCH  12  13
ENDBRANCH  11  12
ENDBRANCH  10  11
ENDBRANCH   9  10
ENDBRANCH   4   9
BRANCH   1  20
HETATM   20  N1  UNL     1     -14.277 -63.588 -32.634  1.00  0.00    -0.234 N
ATOM     21  H12 UNL     1     -14.610 -64.173 -33.400  1.00  0.00     0.174 HD
ATOM     22  H11 UNL     1     -13.298 -63.302 -32.626  1.00  0.00     0.174 HD
ENDBRANCH   1  20
BRANCH   6  23
HETATM   23  N5  UNL     1     -15.254 -60.831 -29.093  1.00  0.00    -0.376 N
ATOM     24  H5  UNL     1     -15.968 -60.213 -28.708  1.00  0.00     0.161 HD
BRANCH  23  25
HETATM   25  C12 UNL     1     -13.833 -60.657 -28.774  1.00  0.00     0.123 C
BRANCH  25  26
HETATM   26  C13 UNL     1     -13.563 -59.185 -28.484  1.00  0.00     0.047 C
BRANCH  26  27
HETATM   27  C14 UNL     1     -12.333 -58.793 -29.267  1.00  0.00     0.231 C
BRANCH  27  28
HETATM   28  N6  UNL     1     -11.913 -60.000 -29.980  1.00  0.00    -0.079 N
ATOM     29  H63 UNL     1     -11.847 -60.824 -29.383  1.00  0.00     0.274 HD
ATOM     30  H62 UNL     1     -12.622 -60.366 -30.615  1.00  0.00     0.274 HD
ATOM     31  H61 UNL     1     -11.037 -59.758 -30.443  1.00  0.00     0.274 HD
ENDBRANCH  27  28
ENDBRANCH  26  27
ENDBRANCH  25  26
ENDBRANCH  23  25
ENDBRANCH   6  23
TORSDOF 11
ENDMDL