MODEL 3
REMARK VINA RESULT: -6.924150559      1.423      2.413
REMARK  12 active torsions:
REMARK  status: ('A' for Active; 'I' for Inactive)
REMARK    1  A    between atoms: C4_6  and  N1_7
REMARK    2  A    between atoms: N1_7  and  C5_9
REMARK    3  A    between atoms: C5_9  and  C6_10
REMARK    4  A    between atoms: C5_9  and  C13_17
REMARK    5  A    between atoms: C6_10  and  C7_11
REMARK    6  A    between atoms: C13_17  and  O3_18
REMARK    7  A    between atoms: C13_17  and  N2_20
REMARK    8  A    between atoms: N2_20  and  C14_22
REMARK    9  A    between atoms: C14_22  and  C15_23
REMARK   10  A    between atoms: C15_23  and  O4_24
REMARK   11  A    between atoms: C15_23  and  C16_26
REMARK   12  A    between atoms: C16_26  and  O5_27
ROOT
HETATM    1  C5  UNL     1     -15.936 -62.517 -30.284  1.00  0.00     0.035 C
ENDROOT
BRANCH   1   2
HETATM    2  N1  UNL     1     -17.108 -62.434 -31.036  1.00  0.00    -0.379 N
ATOM      3  H1  UNL     1     -17.064 -61.811 -31.842  1.00  0.00     0.160 HD
BRANCH   2   4
HETATM    4  C4  UNL     1     -18.311 -63.066 -30.852  1.00  0.00     0.183 C
HETATM    5  C1  UNL     1     -18.696 -64.027 -31.881  1.00  0.00     0.281 C
HETATM    6  O1  UNL     1     -18.756 -63.806 -33.131  1.00  0.00    -0.263 OA
HETATM    7  O2  UNL     1     -19.010 -65.271 -31.302  1.00  0.00    -0.320 OA
HETATM    8  C2  UNL     1     -19.520 -64.897 -30.016  1.00  0.00     0.181 C
HETATM    9  C3  UNL     1     -18.411 -63.922 -29.592  1.00  0.00     0.062 C
ENDBRANCH   2   4
ENDBRANCH   1   2
BRANCH   1  10
HETATM   10  C6  UNL     1     -14.903 -63.300 -31.018  1.00  0.00     0.095 C
BRANCH  10  11
HETATM   11  C7  UNL     1     -15.203 -64.662 -31.418  1.00  0.00    -0.053 A
HETATM   12  C8  UNL     1     -15.169 -65.045 -32.742  1.00  0.00     0.007 A
HETATM   13  C9  UNL     1     -15.470 -66.330 -33.145  1.00  0.00     0.001 A
HETATM   14  C10 UNL     1     -15.816 -67.270 -32.222  1.00  0.00     0.000 A
HETATM   15  C11 UNL     1     -15.858 -66.914 -30.874  1.00  0.00     0.001 A
HETATM   16  C12 UNL     1     -15.552 -65.617 -30.497  1.00  0.00     0.007 A
ENDBRANCH  10  11
ENDBRANCH   1  10
BRANCH   1  17
HETATM   17  C13 UNL     1     -15.528 -61.319 -29.533  1.00  0.00     0.260 C
BRANCH  17  18
HETATM   18  O3  UNL     1     -16.356 -61.217 -28.345  1.00  0.00    -0.372 OA
ATOM     19  H3  UNL     1     -15.816 -60.904 -27.629  1.00  0.00     0.212 HD
ENDBRANCH  17  18
BRANCH  17  20
HETATM   20  N2  UNL     1     -14.236 -61.057 -29.111  1.00  0.00    -0.390 N
ATOM     21  H2  UNL     1     -13.556 -61.816 -29.112  1.00  0.00     0.156 HD
BRANCH  20  22
HETATM   22  C14 UNL     1     -13.826 -59.770 -28.679  1.00  0.00     0.150 C
BRANCH  22  23
HETATM   23  C15 UNL     1     -12.776 -59.204 -29.659  1.00  0.00     0.159 C
BRANCH  23  24
HETATM   24  O4  UNL     1     -11.935 -58.339 -28.993  1.00  0.00    -0.392 OA
ATOM     25  H4  UNL     1     -12.243 -58.212 -28.103  1.00  0.00     0.210 HD
ENDBRANCH  23  24
BRANCH  23  26
HETATM   26  C16 UNL     1     -11.971 -60.330 -30.266  1.00  0.00     0.197 C
BRANCH  26  27
HETATM   27  O5  UNL     1     -12.160 -60.414 -31.644  1.00  0.00    -0.398 OA
ATOM     28  H5  UNL     1     -13.030 -60.727 -31.861  1.00  0.00     0.209 HD
ENDBRANCH  26  27
ENDBRANCH  23  26
ENDBRANCH  22  23
ENDBRANCH  20  22
ENDBRANCH  17  20
ENDBRANCH   1  17
TORSDOF 12
ENDMDL