MODEL 4
REMARK VINA RESULT: -6.192620146      0.995      1.064
REMARK  13 active torsions:
REMARK  status: ('A' for Active; 'I' for Inactive)
REMARK    1  A    between atoms: N1_1  and  C1_5
REMARK    2  A    between atoms: C1_5  and  C2_6
REMARK    3  A    between atoms: C2_6  and  C3_7
REMARK    4  A    between atoms: C3_7  and  N2_8
REMARK    5  A    between atoms: N2_8  and  C4_10
REMARK    6  A    between atoms: C5_13  and  C6_14
REMARK    7  A    between atoms: C12_22  and  N5_23
REMARK    8  A    between atoms: N5_23  and  C13_25
REMARK    9  A    between atoms: C13_25  and  C14_26
REMARK   10  A    between atoms: C14_26  and  N6_27
REMARK   11  A    between atoms: N6_27  and  C15_29
REMARK   12  A    between atoms: C15_29  and  C16_30
REMARK   13  A    between atoms: C16_30  and  N7_31
ROOT
HETATM    1  C4  UNL     1     -16.057 -63.458 -30.413  1.00  0.00     0.694 A
HETATM    2  N3  UNL     1     -16.168 -64.741 -30.804  1.00  0.00    -0.175 N
ATOM      3  H3  UNL     1     -16.926 -65.306 -30.421  1.00  0.00     0.186 HD
HETATM    4  C5  UNL     1     -15.323 -65.303 -31.676  1.00  0.00     0.146 A
HETATM    5  N4  UNL     1     -14.341 -64.526 -32.155  1.00  0.00    -0.175 N
ATOM      6  H4  UNL     1     -13.681 -64.925 -32.821  1.00  0.00     0.186 HD
HETATM    7  C12 UNL     1     -14.192 -63.211 -31.782  1.00  0.00     0.694 A
HETATM    8  N8  UNL     1     -15.046 -62.690 -30.919  1.00  0.00    -0.022 N
ATOM      9  H8  UNL     1     -14.951 -61.716 -30.632  1.00  0.00     0.203 HD
ENDROOT
BRANCH   7  10
HETATM   10  N5  UNL     1     -13.234 -62.520 -32.274  1.00  0.00    -0.224 N
ATOM     11  H5  UNL     1     -13.298 -62.227 -33.249  1.00  0.00     0.177 HD
BRANCH  10  12
HETATM   12  C13 UNL     1     -12.081 -62.139 -31.526  1.00  0.00     0.157 C
BRANCH  12  13
HETATM   13  C14 UNL     1     -12.104 -60.627 -31.364  1.00  0.00     0.134 C
BRANCH  13  14
HETATM   14  N6  UNL     1     -11.740 -60.269 -30.033  1.00  0.00    -0.418 N
ATOM     15  H6  UNL     1     -11.011 -60.762 -29.517  1.00  0.00     0.153 HD
BRANCH  14  16
HETATM   16  C15 UNL     1     -12.465 -59.174 -29.471  1.00  0.00     0.141 C
BRANCH  16  17
HETATM   17  C16 UNL     1     -13.384 -59.652 -28.377  1.00  0.00     0.248 C
BRANCH  17  18
HETATM   18  N7  UNL     1     -14.684 -60.020 -28.857  1.00  0.00    -0.078 N
ATOM     19  H73 UNL     1     -15.415 -59.518 -28.352  1.00  0.00     0.274 HD
ATOM     20  H72 UNL     1     -14.845 -59.649 -29.794  1.00  0.00     0.274 HD
ATOM     21  H71 UNL     1     -14.849 -61.026 -28.831  1.00  0.00     0.274 HD
ENDBRANCH  17  18
ENDBRANCH  16  17
ENDBRANCH  14  16
ENDBRANCH  13  14
ENDBRANCH  12  13
ENDBRANCH  10  12
ENDBRANCH   7  10
BRANCH   4  22
HETATM   22  C6  UNL     1     -15.411 -66.703 -32.127  1.00  0.00     0.009 A
HETATM   23  C7  UNL     1     -15.444 -66.974 -33.484  1.00  0.00     0.015 A
HETATM   24  C8  UNL     1     -15.524 -68.234 -34.021  1.00  0.00     0.001 A
HETATM   25  C9  UNL     1     -15.576 -69.297 -33.143  1.00  0.00     0.000 A
HETATM   26  C10 UNL     1     -15.545 -69.057 -31.785  1.00  0.00     0.001 A
HETATM   27  C11 UNL     1     -15.462 -67.760 -31.264  1.00  0.00     0.015 A
ENDBRANCH   4  22
BRANCH   1  28
HETATM   28  N2  UNL     1     -16.845 -62.899 -29.587  1.00  0.00    -0.225 N
ATOM     29  H2  UNL     1     -16.998 -61.893 -29.649  1.00  0.00     0.177 HD
BRANCH  28  30
HETATM   30  C3  UNL     1     -17.520 -63.647 -28.576  1.00  0.00     0.139 C
BRANCH  30  31
HETATM   31  C2  UNL     1     -18.915 -63.984 -29.083  1.00  0.00     0.047 C
BRANCH  31  32
HETATM   32  C1  UNL     1     -19.717 -64.412 -27.845  1.00  0.00     0.231 C
BRANCH  32  33
HETATM   33  N1  UNL     1     -21.090 -64.009 -28.109  1.00  0.00    -0.079 N
ATOM     34  H13 UNL     1     -21.781 -64.707 -27.835  1.00  0.00     0.274 HD
ATOM     35  H12 UNL     1     -21.422 -63.264 -27.497  1.00  0.00     0.274 HD
ATOM     36  H11 UNL     1     -21.120 -63.770 -29.100  1.00  0.00     0.274 HD
ENDBRANCH  32  33
ENDBRANCH  31  32
ENDBRANCH  30  31
ENDBRANCH  28  30
ENDBRANCH   1  28
TORSDOF 13
ENDMDL