MODEL 4
REMARK VINA RESULT: -6.044010280      3.881      7.594
REMARK  12 active torsions:
REMARK  status: ('A' for Active; 'I' for Inactive)
REMARK    1  A    between atoms: N1_1  and  C1_5
REMARK    2  A    between atoms: C1_5  and  C2_6
REMARK    3  A    between atoms: C1_5  and  C3_9
REMARK    4  A    between atoms: C2_6  and  O1_7
REMARK    5  A    between atoms: C3_9  and  O2_10
REMARK    6  A    between atoms: C3_9  and  N2_12
REMARK    7  A    between atoms: C6_15  and  C7_16
REMARK    8  A    between atoms: C7_16  and  N3_17
REMARK    9  A    between atoms: N3_17  and  C8_20
REMARK   10  A    between atoms: C8_20  and  C9_21
REMARK   11  A    between atoms: C9_21  and  N4_22
REMARK   12  A    between atoms: N4_22  and  C10_24
ROOT
HETATM    1  N2  UNL     1     -14.415 -61.948 -30.090  1.00  0.00    -0.343 N
HETATM    2  C4  UNL     1     -15.682 -62.526 -30.087  1.00  0.00     0.066 C
HETATM    3  C5  UNL     1     -15.677 -63.931 -30.684  1.00  0.00     0.051 C
HETATM    4  C6  UNL     1     -15.060 -64.014 -32.033  1.00  0.00     0.017 C
HETATM    5  C16 UNL     1     -14.504 -62.647 -32.385  1.00  0.00     0.027 C
HETATM    6  C17 UNL     1     -13.553 -62.324 -31.221  1.00  0.00     0.130 C
ENDROOT
BRANCH   4   7
HETATM    7  C7  UNL     1     -15.893 -64.613 -33.105  1.00  0.00     0.237 C
BRANCH   7   8
HETATM    8  N3  UNL     1     -16.705 -63.677 -33.820  1.00  0.00    -0.073 N
ATOM      9  H32 UNL     1     -16.374 -62.722 -33.676  1.00  0.00     0.277 HD
ATOM     10  H31 UNL     1     -16.553 -63.755 -34.825  1.00  0.00     0.277 HD
BRANCH   8  11
HETATM   11  C8  UNL     1     -18.108 -63.791 -33.498  1.00  0.00     0.251 C
BRANCH  11  12
HETATM   12  C9  UNL     1     -18.571 -65.197 -33.343  1.00  0.00     0.147 C
BRANCH  12  13
HETATM   13  N4  UNL     1     -19.437 -65.332 -32.205  1.00  0.00    -0.388 N
ATOM     14  H4  UNL     1     -20.437 -65.411 -32.387  1.00  0.00     0.159 HD
BRANCH  13  15
HETATM   15  C10 UNL     1     -19.023 -65.365 -30.850  1.00  0.00     0.027 A
HETATM   16  C11 UNL     1     -18.340 -66.418 -30.290  1.00  0.00     0.029 A
HETATM   17  C12 UNL     1     -17.923 -66.432 -28.961  1.00  0.00     0.002 A
HETATM   18  C13 UNL     1     -18.197 -65.352 -28.153  1.00  0.00     0.000 A
HETATM   19  C14 UNL     1     -18.881 -64.277 -28.681  1.00  0.00     0.002 A
HETATM   20  C15 UNL     1     -19.280 -64.289 -29.993  1.00  0.00     0.029 A
ENDBRANCH  13  15
ENDBRANCH  12  13
ENDBRANCH  11  12
ENDBRANCH   8  11
ENDBRANCH   7   8
ENDBRANCH   4   7
BRANCH   1  21
HETATM   21  C3  UNL     1     -14.164 -60.619 -29.784  1.00  0.00     0.150 C
BRANCH  21  22
HETATM   22  C1  UNL     1     -12.960 -60.227 -28.988  1.00  0.00     0.280 C
BRANCH  22  23
HETATM   23  N1  UNL     1     -11.884 -59.779 -29.944  1.00  0.00    -0.066 N
ATOM     24  H13 UNL     1     -11.745 -60.375 -30.761  1.00  0.00     0.275 HD
ATOM     25  H12 UNL     1     -12.096 -58.940 -30.484  1.00  0.00     0.275 HD
ATOM     26  H11 UNL     1     -11.087 -59.706 -29.312  1.00  0.00     0.275 HD
ENDBRANCH  22  23
BRANCH  22  27
HETATM   27  C2  UNL     1     -13.155 -58.953 -28.162  1.00  0.00     0.205 C
BRANCH  27  28
HETATM   28  O1  UNL     1     -13.443 -59.122 -26.857  1.00  0.00    -0.398 OA
ATOM     29  H1  UNL     1     -14.276 -58.776 -26.559  1.00  0.00     0.209 HD
ENDBRANCH  27  28
ENDBRANCH  22  27
ENDBRANCH  21  22
BRANCH  21  30
HETATM   30  O2  UNL     1     -15.253 -59.805 -29.454  1.00  0.00    -0.348 OA
ATOM     31  H2  UNL     1     -15.357 -59.115 -30.099  1.00  0.00     0.219 HD
ENDBRANCH  21  30
ENDBRANCH   1  21
TORSDOF 12
ENDMDL