MODEL 5
REMARK VINA RESULT: -6.276617231      4.613      8.090
REMARK  11 active torsions:
REMARK  status: ('A' for Active; 'I' for Inactive)
REMARK    1  A    between atoms: N1_2  and  C2_4
REMARK    2  A    between atoms: C3_9  and  N4_10
REMARK    3  A    between atoms: N4_10  and  C4_12
REMARK    4  A    between atoms: C4_12  and  C5_13
REMARK    5  A    between atoms: C5_13  and  N5_14
REMARK    6  A    between atoms: N5_14  and  C6_16
REMARK    7  A    between atoms: C6_16  and  C7_17
REMARK    8  A    between atoms: N6_18  and  N7_20
REMARK    9  A    between atoms: N7_20  and  C8_22
REMARK   10  A    between atoms: C8_22  and  C9_23
REMARK   11  A    between atoms: C9_23  and  C10_24
ROOT
HETATM    1  N5  UNL     1     -18.147 -62.924 -34.336  1.00  0.00    -0.415 N
ATOM      2  H5  UNL     1     -19.122 -62.643 -34.235  1.00  0.00     0.153 HD
ENDROOT
BRANCH   1   3
HETATM    3  C5  UNL     1     -17.313 -62.258 -35.257  1.00  0.00     0.134 C
BRANCH   3   4
HETATM    4  C4  UNL     1     -17.952 -61.282 -36.190  1.00  0.00     0.157 C
BRANCH   4   5
HETATM    5  N4  UNL     1     -18.824 -60.328 -35.613  1.00  0.00    -0.223 N
ATOM      6  H4  UNL     1     -19.327 -60.607 -34.770  1.00  0.00     0.177 HD
BRANCH   5   7
HETATM    7  C3  UNL     1     -19.038 -59.142 -36.056  1.00  0.00     0.707 A
HETATM    8  N3  UNL     1     -20.242 -58.605 -36.321  1.00  0.00    -0.117 N
HETATM    9  N2  UNL     1     -20.067 -57.386 -36.763  1.00  0.00    -0.117 N
ATOM     10  H3  UNL     1     -21.140 -59.071 -36.198  1.00  0.00     0.206 HD
HETATM   11  C2  UNL     1     -18.754 -57.141 -36.782  1.00  0.00     0.707 A
ATOM     12  H2  UNL     1     -20.803 -56.738 -37.045  1.00  0.00     0.206 HD
HETATM   13  N9  UNL     1     -18.089 -58.242 -36.336  1.00  0.00    -0.020 N
ATOM     14  H9  UNL     1     -17.081 -58.358 -36.238  1.00  0.00     0.203 HD
BRANCH  11  15
HETATM   15  N1  UNL     1     -18.159 -56.076 -37.144  1.00  0.00    -0.229 N
HETATM   16  C1  UNL     1     -17.740 -55.040 -36.260  1.00  0.00     0.165 C
ATOM     17  H1  UNL     1     -17.969 -55.954 -38.139  1.00  0.00     0.177 HD
ENDBRANCH  11  15
ENDBRANCH   5   7
ENDBRANCH   4   5
ENDBRANCH   3   4
ENDBRANCH   1   3
BRANCH   1  18
HETATM   18  C6  UNL     1     -17.631 -63.980 -33.553  1.00  0.00     0.160 C
BRANCH  18  19
HETATM   19  C7  UNL     1     -17.680 -63.779 -32.088  1.00  0.00     0.099 C
HETATM   20  N6  UNL     1     -16.639 -63.421 -31.424  1.00  0.00    -0.319 N
ATOM     21  H6  UNL     1     -16.690 -63.287 -30.414  1.00  0.00     0.185 HD
BRANCH  20  22
HETATM   22  N7  UNL     1     -15.440 -63.219 -32.105  1.00  0.00    -0.337 N
ATOM     23  H7  UNL     1     -15.439 -62.939 -33.086  1.00  0.00     0.180 HD
BRANCH  22  24
HETATM   24  C8  UNL     1     -14.189 -63.414 -31.388  1.00  0.00     0.145 C
BRANCH  24  25
HETATM   25  C9  UNL     1     -13.214 -62.311 -31.808  1.00  0.00     0.078 C
BRANCH  25  26
HETATM   26  C10 UNL     1     -13.217 -61.305 -30.717  1.00  0.00     0.010 A
HETATM   27  C11 UNL     1     -14.262 -61.284 -29.808  1.00  0.00     0.025 A
HETATM   28  C12 UNL     1     -14.244 -60.353 -28.803  1.00  0.00     0.003 A
HETATM   29  C13 UNL     1     -13.216 -59.470 -28.708  1.00  0.00     0.017 A
HETATM   30  C14 UNL     1     -12.184 -59.504 -29.621  1.00  0.00     0.088 A
HETATM   31  N8  UNL     1     -12.226 -60.428 -30.598  1.00  0.00    -0.369 N
ATOM     32  H8  UNL     1     -11.464 -60.457 -31.276  1.00  0.00     0.165 HD
ENDBRANCH  25  26
ENDBRANCH  24  25
ENDBRANCH  22  24
ENDBRANCH  20  22
ENDBRANCH  18  19
ENDBRANCH   1  18
TORSDOF 11
ENDMDL