MODEL 1
REMARK VINA RESULT: -6.359119883      0.000      0.000
REMARK  11 active torsions:
REMARK  status: ('A' for Active; 'I' for Inactive)
REMARK    1  A    between atoms: O1_2  and  C2_3
REMARK    2  A    between atoms: C2_3  and  C3_4
REMARK    3  A    between atoms: C3_4  and  N1_5
REMARK    4  A    between atoms: N1_5  and  C4_7
REMARK    5  A    between atoms: C4_7  and  C6_9
REMARK    6  A    between atoms: C7_10  and  O2_11
REMARK    7  A    between atoms: C8_13  and  C9_14
REMARK    8  A    between atoms: C8_13  and  N4_22
REMARK    9  A    between atoms: C9_14  and  C10_15
REMARK   10  A    between atoms: N4_22  and  C13_24
REMARK   11  A    between atoms: C16_27  and  O3_28
ROOT
HETATM    1  C6  UNL     1     -15.216 -64.007 -31.968  1.00  0.00     0.093 C
HETATM    2  C7  UNL     1     -15.527 -64.445 -33.349  1.00  0.00     0.161 C
HETATM    3  C8  UNL     1     -16.617 -65.317 -32.774  1.00  0.00     0.085 C
HETATM    4  C16 UNL     1     -16.678 -64.200 -31.672  1.00  0.00     0.161 C
ENDROOT
BRANCH   3   5
HETATM    5  C9  UNL     1     -16.220 -66.552 -32.044  1.00  0.00     0.094 C
BRANCH   5   6
HETATM    6  C10 UNL     1     -16.086 -67.783 -32.803  1.00  0.00     0.028 A
HETATM    7  C11 UNL     1     -15.510 -67.938 -34.032  1.00  0.00     0.114 A
HETATM    8  N2  UNL     1     -15.612 -69.253 -34.370  1.00  0.00    -0.360 N
HETATM    9  C12 UNL     1     -16.232 -69.927 -33.398  1.00  0.00     0.180 A
ATOM     10  H2  UNL     1     -15.266 -69.663 -35.238  1.00  0.00     0.166 HD
HETATM   11  N3  UNL     1     -16.516 -69.001 -32.437  1.00  0.00    -0.354 N
ATOM     12  H3  UNL     1     -16.992 -69.207 -31.559  1.00  0.00     0.166 HD
ENDBRANCH   5   6
ENDBRANCH   3   5
BRANCH   3  13
HETATM   13  N4  UNL     1     -17.891 -65.304 -33.394  1.00  0.00    -0.404 N
ATOM     14  H4  UNL     1     -18.108 -64.621 -34.119  1.00  0.00     0.154 HD
BRANCH  13  15
HETATM   15  C13 UNL     1     -18.857 -66.255 -32.992  1.00  0.00     0.077 A
HETATM   16  C14 UNL     1     -20.110 -66.221 -33.914  1.00  0.00     0.027 A
HETATM   17  C15 UNL     1     -20.197 -65.891 -32.472  1.00  0.00     0.027 A
ENDBRANCH  13  15
ENDBRANCH   3  13
BRANCH   2  18
HETATM   18  O2  UNL     1     -16.100 -63.443 -34.115  1.00  0.00    -0.392 OA
ATOM     19  H2  UNL     1     -15.460 -62.837 -34.470  1.00  0.00     0.210 HD
ENDBRANCH   2  18
BRANCH   4  20
HETATM   20  O3  UNL     1     -17.498 -63.160 -32.071  1.00  0.00    -0.392 OA
ATOM     21  H3  UNL     1     -18.369 -63.167 -31.693  1.00  0.00     0.210 HD
ENDBRANCH   4  20
BRANCH   1  22
HETATM   22  C4  UNL     1     -14.644 -62.657 -31.713  1.00  0.00    -0.013 C
HETATM   23  C5  UNL     1     -14.882 -62.275 -30.272  1.00  0.00     0.063 C
BRANCH  22  24
HETATM   24  N1  UNL     1     -13.386 -62.354 -32.255  1.00  0.00    -0.394 N
ATOM     25  H1  UNL     1     -13.233 -62.414 -33.262  1.00  0.00     0.159 HD
BRANCH  24  26
HETATM   26  C3  UNL     1     -12.327 -61.965 -31.394  1.00  0.00     0.145 C
BRANCH  26  27
HETATM   27  C2  UNL     1     -12.011 -60.526 -31.235  1.00  0.00     0.186 C
BRANCH  27  28
HETATM   28  O1  UNL     1     -11.714 -60.351 -29.845  1.00  0.00    -0.394 OA
HETATM   29  C1  UNL     1     -12.522 -59.386 -29.298  1.00  0.00     0.201 C
ENDBRANCH  27  28
ENDBRANCH  26  27
ENDBRANCH  24  26
ENDBRANCH  22  24
ENDBRANCH   1  22
TORSDOF 11
ENDMDL