MODEL 4
REMARK VINA RESULT: -5.832823813      3.047      5.233
REMARK  13 active torsions:
REMARK  status: ('A' for Active; 'I' for Inactive)
REMARK    1  A    between atoms: C2_2  and  C4_4
REMARK    2  A    between atoms: C4_4  and  C5_5
REMARK    3  A    between atoms: C5_5  and  N1_6
REMARK    4  A    between atoms: C5_5  and  C7_10
REMARK    5  A    between atoms: C7_10  and  N3_12
REMARK    6  A    between atoms: N3_12  and  C9_14
REMARK    7  A    between atoms: C9_14  and  C10_15
REMARK    8  A    between atoms: C9_14  and  C13_26
REMARK    9  A    between atoms: C10_15  and  O1_16
REMARK   10  A    between atoms: C10_15  and  N4_18
REMARK   11  A    between atoms: N4_18  and  C11_20
REMARK   12  A    between atoms: C11_20  and  C12_21
REMARK   13  A    between atoms: C12_21  and  N5_22
ROOT
HETATM    1  N1  UNL     1     -16.026 -63.778 -33.356  1.00  0.00    -0.322 N
ATOM      2  H1  UNL     1     -15.304 -63.629 -34.061  1.00  0.00     0.172 HD
HETATM    3  C6  UNL     1     -17.387 -63.784 -33.698  1.00  0.00     0.177 C
HETATM    4  N2  UNL     1     -18.497 -63.778 -33.959  1.00  0.00    -0.172 NA
ENDROOT
BRANCH   1   5
HETATM    5  C5  UNL     1     -15.688 -63.989 -31.975  1.00  0.00     0.114 C
BRANCH   5   6
HETATM    6  C4  UNL     1     -14.228 -63.876 -31.756  1.00  0.00     0.031 C
BRANCH   6   7
HETATM    7  C2  UNL     1     -13.834 -62.425 -31.608  1.00  0.00    -0.021 C
HETATM    8  C1  UNL     1     -14.318 -61.749 -30.383  1.00  0.00     0.009 C
HETATM    9  C3  UNL     1     -12.297 -62.303 -31.589  1.00  0.00     0.009 C
ENDBRANCH   6   7
ENDBRANCH   5   6
BRANCH   5  10
HETATM   10  C7  UNL     1     -16.290 -65.349 -31.610  1.00  0.00     0.097 C
HETATM   11  C8  UNL     1     -16.436 -65.291 -30.083  1.00  0.00     0.034 C
BRANCH  10  12
HETATM   12  N3  UNL     1     -15.494 -66.419 -32.028  1.00  0.00    -0.400 N
ATOM     13  H3  UNL     1     -14.501 -66.282 -32.218  1.00  0.00     0.154 HD
BRANCH  12  14
HETATM   14  C9  UNL     1     -16.097 -67.726 -32.187  1.00  0.00     0.204 C
BRANCH  14  15
HETATM   15  C10 UNL     1     -16.208 -68.028 -33.628  1.00  0.00     0.140 C
BRANCH  15  16
HETATM   16  O1  UNL     1     -15.078 -68.309 -34.232  1.00  0.00    -0.348 OA
ATOM     17  H1  UNL     1     -14.292 -68.010 -33.788  1.00  0.00     0.219 HD
ENDBRANCH  15  16
BRANCH  15  18
HETATM   18  N4  UNL     1     -17.307 -68.063 -34.472  1.00  0.00    -0.371 N
ATOM     19  H4  UNL     1     -17.261 -68.529 -35.378  1.00  0.00     0.161 HD
BRANCH  18  20
HETATM   20  C11 UNL     1     -18.521 -67.419 -34.026  1.00  0.00     0.148 C
BRANCH  20  21
HETATM   21  C12 UNL     1     -19.738 -68.287 -34.008  1.00  0.00     0.249 C
BRANCH  21  22
HETATM   22  N5  UNL     1     -19.456 -69.683 -34.093  1.00  0.00    -0.078 N
ATOM     23  H53 UNL     1     -19.437 -70.102 -33.163  1.00  0.00     0.274 HD
ATOM     24  H52 UNL     1     -20.248 -70.185 -34.492  1.00  0.00     0.274 HD
ATOM     25  H51 UNL     1     -18.599 -69.904 -34.601  1.00  0.00     0.274 HD
ENDBRANCH  21  22
ENDBRANCH  20  21
ENDBRANCH  18  20
ENDBRANCH  15  18
ENDBRANCH  14  15
BRANCH  14  26
HETATM   26  C13 UNL     1     -15.426 -68.792 -31.458  1.00  0.00     0.056 A
HETATM   27  C14 UNL     1     -14.696 -68.625 -30.303  1.00  0.00     0.116 A
HETATM   28  N6  UNL     1     -14.217 -69.832 -29.933  1.00  0.00    -0.360 N
HETATM   29  C15 UNL     1     -14.628 -70.754 -30.829  1.00  0.00     0.180 A
ATOM     30  H6  UNL     1     -13.641 -70.017 -29.113  1.00  0.00     0.166 HD
HETATM   31  N7  UNL     1     -15.354 -70.091 -31.737  1.00  0.00    -0.353 N
ATOM     32  H7  UNL     1     -15.799 -70.528 -32.543  1.00  0.00     0.166 HD
ENDBRANCH  14  26
ENDBRANCH  12  14
ENDBRANCH  10  12
ENDBRANCH   5  10
ENDBRANCH   1   5
TORSDOF 13
ENDMDL