MODEL 5
REMARK VINA RESULT: -6.108693327      4.744      9.152
REMARK  11 active torsions:
REMARK  status: ('A' for Active; 'I' for Inactive)
REMARK    1  A    between atoms: C5_6  and  C6_7
REMARK    2  A    between atoms: C6_7  and  N2_8
REMARK    3  A    between atoms: N2_8  and  C7_10
REMARK    4  A    between atoms: C7_10  and  C8_11
REMARK    5  A    between atoms: C8_11  and  N3_12
REMARK    6  A    between atoms: N3_12  and  C9_15
REMARK    7  A    between atoms: C9_15  and  C10_16
REMARK    8  A    between atoms: C10_16  and  C11_17
REMARK    9  A    between atoms: C11_17  and  N4_18
REMARK   10  A    between atoms: N4_18  and  C12_20
REMARK   11  A    between atoms: C15_27  and  C16_28
ROOT
HETATM    1  C8  UNL     1     -16.739 -65.897 -32.670  1.00  0.00     0.276 C
ENDROOT
BRANCH   1   2
HETATM    2  C7  UNL     1     -16.881 -64.471 -32.973  1.00  0.00     0.087 C
BRANCH   2   3
HETATM    3  N2  UNL     1     -15.849 -63.547 -32.939  1.00  0.00    -0.376 N
ATOM      4  H2  UNL     1     -15.873 -62.771 -33.600  1.00  0.00     0.164 HD
BRANCH   3   5
HETATM    5  C6  UNL     1     -14.775 -63.623 -32.043  1.00  0.00     0.101 C
BRANCH   5   6
HETATM    6  C5  UNL     1     -14.707 -62.599 -31.014  1.00  0.00     0.007 A
HETATM    7  C4  UNL     1     -15.717 -62.359 -30.134  1.00  0.00     0.016 A
HETATM    8  C3  UNL     1     -15.622 -61.377 -29.157  1.00  0.00     0.018 A
HETATM    9  C2  UNL     1     -14.457 -60.660 -29.123  1.00  0.00     0.091 A
HETATM   10  N1  UNL     1     -13.429 -60.875 -29.988  1.00  0.00    -0.359 N
HETATM   11  C1  UNL     1     -12.273 -60.028 -29.811  1.00  0.00     0.156 C
HETATM   12  C15 UNL     1     -13.540 -61.810 -30.908  1.00  0.00     0.060 A
BRANCH  12  13
HETATM   13  C16 UNL     1     -12.489 -62.055 -31.867  1.00  0.00     0.111 C
HETATM   14  N7  UNL     1     -11.591 -62.908 -31.884  1.00  0.00    -0.406 N
ATOM     15  H72 UNL     1     -11.611 -63.532 -31.078  1.00  0.00     0.155 HD
ATOM     16  H71 UNL     1     -10.848 -63.081 -32.561  1.00  0.00     0.155 HD
ENDBRANCH  12  13
ENDBRANCH   5   6
ENDBRANCH   3   5
ENDBRANCH   2   3
ENDBRANCH   1   2
BRANCH   1  17
HETATM   17  N3  UNL     1     -16.990 -66.334 -31.320  1.00  0.00    -0.071 N
ATOM     18  H32 UNL     1     -17.275 -65.572 -30.705  1.00  0.00     0.277 HD
ATOM     19  H31 UNL     1     -17.835 -66.900 -31.239  1.00  0.00     0.277 HD
BRANCH  17  20
HETATM   20  C9  UNL     1     -15.789 -67.034 -30.840  1.00  0.00     0.234 C
BRANCH  20  21
HETATM   21  C10 UNL     1     -15.452 -68.175 -31.722  1.00  0.00     0.047 C
BRANCH  21  22
HETATM   22  C11 UNL     1     -15.851 -69.454 -30.993  1.00  0.00     0.124 C
BRANCH  22  23
HETATM   23  N4  UNL     1     -14.673 -70.245 -30.758  1.00  0.00    -0.362 N
ATOM     24  H4  UNL     1     -14.352 -70.879 -31.491  1.00  0.00     0.162 HD
BRANCH  23  25
HETATM   25  C12 UNL     1     -13.927 -70.174 -29.524  1.00  0.00     0.171 A
HETATM   26  N5  UNL     1     -13.524 -69.210 -28.837  1.00  0.00    -0.361 N
HETATM   27  C13 UNL     1     -12.798 -69.562 -27.641  1.00  0.00     0.142 A
ATOM     28  H5  UNL     1     -13.697 -68.242 -29.104  1.00  0.00     0.162 HD
HETATM   29  C14 UNL     1     -12.732 -71.068 -27.695  1.00  0.00     0.142 A
HETATM   30  N6  UNL     1     -13.511 -71.395 -28.864  1.00  0.00    -0.361 N
ATOM     31  H6  UNL     1     -13.735 -72.340 -29.178  1.00  0.00     0.162 HD
ENDBRANCH  23  25
ENDBRANCH  22  23
ENDBRANCH  21  22
ENDBRANCH  20  21
ENDBRANCH  17  20
ENDBRANCH   1  17
TORSDOF 11
ENDMDL