MODEL 5
REMARK VINA RESULT: -6.423833788      1.721      2.376
REMARK  11 active torsions:
REMARK  status: ('A' for Active; 'I' for Inactive)
REMARK    1  A    between atoms: C2_2  and  C3_3
REMARK    2  A    between atoms: C2_2  and  N2_16
REMARK    3  A    between atoms: C3_3  and  C4_4
REMARK    4  A    between atoms: C7_7  and  S1_8
REMARK    5  A    between atoms: S1_8  and  N1_9
REMARK    6  A    between atoms: N2_16  and  C10_18
REMARK    7  A    between atoms: C10_18  and  C11_19
REMARK    8  A    between atoms: C11_19  and  O3_20
REMARK    9  A    between atoms: C11_19  and  N3_22
REMARK   10  A    between atoms: N3_22  and  C12_24
REMARK   11  A    between atoms: C12_24  and  C13_25
ROOT
HETATM    1  C1  UNL     1     -17.099 -63.543 -29.299  1.00  0.00     0.063 C
HETATM    2  C2  UNL     1     -16.283 -62.667 -30.173  1.00  0.00    -0.014 C
ENDROOT
BRANCH   2   3
HETATM    3  C3  UNL     1     -15.055 -63.460 -30.674  1.00  0.00     0.090 C
BRANCH   3   4
HETATM    4  C4  UNL     1     -15.569 -64.645 -31.419  1.00  0.00    -0.053 A
HETATM    5  C5  UNL     1     -16.498 -64.434 -32.452  1.00  0.00     0.009 A
HETATM    6  C6  UNL     1     -17.000 -65.489 -33.203  1.00  0.00     0.026 A
HETATM    7  C7  UNL     1     -16.555 -66.756 -32.902  1.00  0.00     0.079 A
HETATM    8  C8  UNL     1     -15.642 -67.002 -31.893  1.00  0.00     0.026 A
HETATM    9  C9  UNL     1     -15.152 -65.936 -31.154  1.00  0.00     0.009 A
BRANCH   7  10
HETATM   10  S1  UNL     1     -17.198 -68.109 -33.843  1.00  0.00     0.256 S
HETATM   11  O1  UNL     1     -17.819 -69.091 -32.908  1.00  0.00    -0.201 OA
HETATM   12  O2  UNL     1     -18.203 -67.614 -34.821  1.00  0.00    -0.201 OA
BRANCH  10  13
HETATM   13  N1  UNL     1     -15.828 -68.859 -34.586  1.00  0.00    -0.324 N
ATOM     14  H12 UNL     1     -15.411 -68.603 -35.481  1.00  0.00     0.169 HD
ATOM     15  H11 UNL     1     -15.535 -69.597 -33.946  1.00  0.00     0.169 HD
ENDBRANCH  10  13
ENDBRANCH   7  10
ENDBRANCH   3   4
ENDBRANCH   2   3
BRANCH   2  16
HETATM   16  N2  UNL     1     -15.997 -61.361 -29.877  1.00  0.00    -0.372 N
ATOM     17  H2  UNL     1     -16.551 -60.684 -30.402  1.00  0.00     0.164 HD
BRANCH  16  18
HETATM   18  C10 UNL     1     -15.105 -60.797 -29.004  1.00  0.00     0.113 C
BRANCH  18  19
HETATM   19  C11 UNL     1     -14.017 -59.926 -29.523  1.00  0.00     0.253 C
BRANCH  19  20
HETATM   20  O3  UNL     1     -13.903 -58.708 -28.907  1.00  0.00    -0.372 OA
ATOM     21  H3  UNL     1     -14.544 -58.060 -29.174  1.00  0.00     0.212 HD
ENDBRANCH  19  20
BRANCH  19  22
HETATM   22  N3  UNL     1     -12.720 -60.549 -29.531  1.00  0.00    -0.388 N
ATOM     23  H3  UNL     1     -12.324 -60.985 -28.698  1.00  0.00     0.156 HD
BRANCH  22  24
HETATM   24  C12 UNL     1     -12.023 -60.519 -30.773  1.00  0.00     0.161 C
BRANCH  24  25
HETATM   25  C13 UNL     1     -11.815 -61.921 -31.197  1.00  0.00     0.072 C
HETATM   26  N4  UNL     1     -12.103 -62.261 -32.382  1.00  0.00    -0.410 N
ATOM     27  H42 UNL     1     -12.475 -61.562 -33.025  1.00  0.00     0.155 HD
ATOM     28  H41 UNL     1     -11.959 -63.227 -32.674  1.00  0.00     0.155 HD
ENDBRANCH  24  25
ENDBRANCH  22  24
ENDBRANCH  19  22
ENDBRANCH  18  19
ENDBRANCH  16  18
ENDBRANCH   2  16
TORSDOF 11
ENDMDL