MODEL 4
REMARK VINA RESULT: -5.969302291      2.131      7.133
REMARK  11 active torsions:
REMARK  status: ('A' for Active; 'I' for Inactive)
REMARK    1  A    between atoms: C2_2  and  N1_3
REMARK    2  A    between atoms: N1_3  and  C3_5
REMARK    3  A    between atoms: N3_9  and  C5_11
REMARK    4  A    between atoms: C5_11  and  C6_12
REMARK    5  A    between atoms: C6_12  and  C7_13
REMARK    6  A    between atoms: C7_13  and  C8_14
REMARK    7  A    between atoms: C8_14  and  N4_15
REMARK    8  A    between atoms: N4_15  and  C9_17
REMARK    9  A    between atoms: C9_17  and  C10_18
REMARK   10  A    between atoms: C10_18  and  C11_19
REMARK   11  A    between atoms: C11_19  and  N5_20
ROOT
HETATM    1  C3  UNL     1     -14.134 -70.164 -29.988  1.00  0.00     0.681 A
HETATM    2  N2  UNL     1     -14.307 -68.832 -29.981  1.00  0.00    -0.175 N
ATOM      3  H2  UNL     1     -13.736 -68.265 -29.355  1.00  0.00     0.186 HD
HETATM    4  C4  UNL     1     -15.215 -68.214 -30.776  1.00  0.00     0.147 A
HETATM    5  N3  UNL     1     -15.350 -66.951 -30.742  1.00  0.00    -0.374 N
ATOM      6  H3  UNL     1     -14.741 -66.457 -30.089  1.00  0.00     0.161 HD
HETATM    7  C12 UNL     1     -16.008 -68.951 -31.636  1.00  0.00     0.123 A
HETATM    8  N6  UNL     1     -16.975 -68.676 -32.534  1.00  0.00    -0.346 N
ATOM      9  H6  UNL     1     -17.326 -67.743 -32.750  1.00  0.00     0.167 HD
HETATM   10  C13 UNL     1     -17.411 -69.813 -33.103  1.00  0.00     0.184 A
HETATM   11  N7  UNL     1     -16.697 -70.803 -32.543  1.00  0.00    -0.331 N
HETATM   12  C14 UNL     1     -16.817 -72.226 -32.844  1.00  0.00     0.158 C
HETATM   13  C15 UNL     1     -15.821 -70.317 -31.633  1.00  0.00     0.154 A
HETATM   14  N8  UNL     1     -14.903 -70.884 -30.823  1.00  0.00    -0.174 N
ATOM     15  H8  UNL     1     -14.788 -71.898 -30.844  1.00  0.00     0.186 HD
ENDROOT
BRANCH   5  16
HETATM   16  C5  UNL     1     -16.240 -66.135 -31.494  1.00  0.00     0.121 C
BRANCH  16  17
HETATM   17  C6  UNL     1     -15.407 -65.434 -32.563  1.00  0.00     0.021 C
BRANCH  17  18
HETATM   18  C7  UNL     1     -14.304 -64.713 -31.845  1.00  0.00     0.021 C
BRANCH  18  19
HETATM   19  C8  UNL     1     -14.661 -63.224 -31.774  1.00  0.00     0.113 C
BRANCH  19  20
HETATM   20  N4  UNL     1     -13.645 -62.397 -32.320  1.00  0.00    -0.421 N
ATOM     21  H4  UNL     1     -13.798 -61.852 -33.168  1.00  0.00     0.153 HD
BRANCH  20  22
HETATM   22  C9  UNL     1     -12.403 -62.367 -31.628  1.00  0.00     0.115 C
BRANCH  22  23
HETATM   23  C10 UNL     1     -12.017 -60.939 -31.352  1.00  0.00     0.046 C
BRANCH  23  24
HETATM   24  C11 UNL     1     -12.415 -60.647 -29.901  1.00  0.00     0.231 C
BRANCH  24  25
HETATM   25  N5  UNL     1     -12.189 -59.244 -29.635  1.00  0.00    -0.079 N
ATOM     26  H53 UNL     1     -12.944 -58.822 -29.094  1.00  0.00     0.274 HD
ATOM     27  H52 UNL     1     -11.435 -59.090 -28.966  1.00  0.00     0.274 HD
ATOM     28  H51 UNL     1     -12.029 -58.767 -30.521  1.00  0.00     0.274 HD
ENDBRANCH  24  25
ENDBRANCH  23  24
ENDBRANCH  22  23
ENDBRANCH  20  22
ENDBRANCH  19  20
ENDBRANCH  18  19
ENDBRANCH  17  18
ENDBRANCH  16  17
ENDBRANCH   5  16
BRANCH   1  29
HETATM   29  N1  UNL     1     -13.255 -70.732 -29.216  1.00  0.00    -0.226 N
ATOM     30  H1  UNL     1     -12.689 -71.489 -29.600  1.00  0.00     0.177 HD
BRANCH  29  31
HETATM   31  C2  UNL     1     -13.040 -70.344 -27.842  1.00  0.00     0.133 C
HETATM   32  C1  UNL     1     -11.622 -69.844 -27.616  1.00  0.00     0.027 C
ENDBRANCH  29  31
ENDBRANCH   1  29
TORSDOF 11
ENDMDL