MODEL 5
REMARK VINA RESULT: -4.759398825      1.212      3.938
REMARK  8 active torsions:
REMARK  status: ('A' for Active; 'I' for Inactive)
REMARK    1  A    between atoms: N1_1  and  C1_5
REMARK    2  A    between atoms: C1_5  and  C2_6
REMARK    3  A    between atoms: C2_6  and  C3_7
REMARK    4  A    between atoms: C3_7  and  C4_8
REMARK    5  A    between atoms: C5_9  and  N2_10
REMARK    6  A    between atoms: N3_16  and  C8_17
REMARK    7  A    between atoms: C8_17  and  C9_18
REMARK    8  A    between atoms: C9_18  and  N4_19
ROOT
HETATM    1  C4  UNL     1     126.645  53.306  31.659  1.00  0.00     0.253 C
HETATM    2  C5  UNL     1     128.140  52.894  31.752  1.00  0.00     0.218 C
HETATM    3  C6  UNL     1     128.229  51.961  32.938  1.00  0.00     0.065 C
HETATM    4  C7  UNL     1     126.855  52.148  33.560  1.00  0.00     0.275 C
HETATM    5  N3  UNL     1     126.057  52.223  32.325  1.00  0.00     0.096 N
ENDROOT
BRANCH   1   6
HETATM    6  C3  UNL     1     126.294  53.544  30.224  1.00  0.00     0.040 C
BRANCH   6   7
HETATM    7  C2  UNL     1     124.990  54.325  30.087  1.00  0.00     0.029 C
BRANCH   7   8
HETATM    8  C1  UNL     1     125.097  55.145  28.795  1.00  0.00     0.229 C
BRANCH   8   9
HETATM    9  N1  UNL     1     124.309  54.542  27.749  1.00  0.00    -0.079 N
ATOM     10  H13 UNL     1     124.096  53.565  27.949  1.00  0.00     0.274 HD
ATOM     11  H12 UNL     1     123.356  54.905  27.735  1.00  0.00     0.274 HD
ATOM     12  H11 UNL     1     124.770  54.654  26.846  1.00  0.00     0.274 HD
ENDBRANCH   8   9
ENDBRANCH   7   8
ENDBRANCH   6   7
ENDBRANCH   1   6
BRANCH   2  13
HETATM   13  N2  UNL     1     128.968  54.050  32.068  1.00  0.00    -0.073 N
ATOM     14  H23 UNL     1     129.960  53.854  31.939  1.00  0.00     0.274 HD
ATOM     15  H22 UNL     1     128.868  54.790  31.373  1.00  0.00     0.274 HD
ATOM     16  H21 UNL     1     128.767  54.385  33.010  1.00  0.00     0.274 HD
ENDBRANCH   2  13
BRANCH   5  17
HETATM   17  C8  UNL     1     124.714  52.052  32.583  1.00  0.00     0.300 C
BRANCH  17  18
HETATM   18  C9  UNL     1     123.995  50.860  32.079  1.00  0.00     0.259 C
BRANCH  18  19
HETATM   19  N4  UNL     1     124.589  49.610  32.532  1.00  0.00    -0.078 N
ATOM     20  H43 UNL     1     124.167  48.812  32.057  1.00  0.00     0.274 HD
ATOM     21  H42 UNL     1     125.547  49.517  32.193  1.00  0.00     0.274 HD
ATOM     22  H41 UNL     1     124.547  49.497  33.544  1.00  0.00     0.274 HD
ENDBRANCH  18  19
ENDBRANCH  17  18
ENDBRANCH   5  17
TORSDOF 8
ENDMDL