MODEL 3
REMARK VINA RESULT: -4.924895179      1.741      2.486
REMARK  8 active torsions:
REMARK  status: ('A' for Active; 'I' for Inactive)
REMARK    1  A    between atoms: C2_2  and  C3_3
REMARK    2  A    between atoms: C3_3  and  C4_4
REMARK    3  A    between atoms: C4_4  and  N1_5
REMARK    4  A    between atoms: N1_5  and  C5_7
REMARK    5  A    between atoms: C6_10  and  N3_11
REMARK    6  A    between atoms: N4_14  and  C7_15
REMARK    7  A    between atoms: C7_15  and  C8_16
REMARK    8  A    between atoms: C8_16  and  N5_17
ROOT
HETATM    1  C5  UNL     1     126.208  53.280  31.521  1.00  0.00     0.707 A
HETATM    2  N2  UNL     1     125.741  52.130  32.000  1.00  0.00    -0.020 N
ATOM      3  H2  UNL     1     124.808  51.752  31.838  1.00  0.00     0.203 HD
HETATM    4  C6  UNL     1     126.715  51.543  32.740  1.00  0.00     0.707 A
HETATM    5  N4  UNL     1     127.765  52.350  32.699  1.00  0.00    -0.108 N
HETATM    6  N6  UNL     1     127.471  53.388  31.973  1.00  0.00    -0.115 N
ATOM      7  H6  UNL     1     128.101  54.166  31.777  1.00  0.00     0.206 HD
ENDROOT
BRANCH   1   8
HETATM    8  N1  UNL     1     125.661  54.174  30.774  1.00  0.00    -0.224 N
ATOM      9  H1  UNL     1     125.906  55.150  30.937  1.00  0.00     0.177 HD
BRANCH   8  10
HETATM   10  C4  UNL     1     124.721  53.875  29.721  1.00  0.00     0.138 C
BRANCH  10  11
HETATM   11  C3  UNL     1     123.418  54.546  30.031  1.00  0.00     0.020 C
BRANCH  11  12
HETATM   12  C2  UNL     1     123.119  55.720  29.150  1.00  0.00    -0.003 C
HETATM   13  C1  UNL     1     124.215  56.074  28.208  1.00  0.00     0.005 C
ENDBRANCH  11  12
ENDBRANCH  10  11
ENDBRANCH   8  10
ENDBRANCH   1   8
BRANCH   4  14
HETATM   14  N3  UNL     1     126.570  50.399  33.349  1.00  0.00    -0.233 N
ATOM     15  H32 UNL     1     125.729  49.971  33.737  1.00  0.00     0.174 HD
ATOM     16  H31 UNL     1     127.337  49.749  33.521  1.00  0.00     0.174 HD
ENDBRANCH   4  14
BRANCH   5  17
HETATM   17  C7  UNL     1     129.027  52.106  33.357  1.00  0.00     0.196 C
BRANCH  17  18
HETATM   18  C8  UNL     1     130.061  52.978  32.668  1.00  0.00     0.252 C
BRANCH  18  19
HETATM   19  N5  UNL     1     131.289  52.964  33.426  1.00  0.00    -0.078 N
ATOM     20  H53 UNL     1     131.551  53.895  33.751  1.00  0.00     0.274 HD
ATOM     21  H52 UNL     1     131.174  52.519  34.336  1.00  0.00     0.274 HD
ATOM     22  H51 UNL     1     132.028  52.528  32.875  1.00  0.00     0.274 HD
ENDBRANCH  18  19
ENDBRANCH  17  18
ENDBRANCH   5  17
TORSDOF 8
ENDMDL