MODEL 2
REMARK VINA RESULT: -5.129992986      1.611      2.449
REMARK  5 active torsions:
REMARK  status: ('A' for Active; 'I' for Inactive)
REMARK    1  A    between atoms: N1_2  and  C3_4
REMARK    2  A    between atoms: C5_9  and  C6_10
REMARK    3  A    between atoms: C6_10  and  C7_11
REMARK    4  A    between atoms: C7_11  and  N3_12
REMARK    5  A    between atoms: N3_12  and  C8_14
ROOT
HETATM    1  C3  UNL     1     124.042  53.540  30.288  1.00  0.00     0.446 C
HETATM    2  C4  UNL     1     125.019  54.253  29.425  1.00  0.00     0.300 C
HETATM    3  N2  UNL     1     126.211  53.421  29.527  1.00  0.00    -0.042 N
ATOM      4  H21 UNL     1     127.070  53.878  29.222  1.00  0.00     0.279 HD
ATOM      5  H22 UNL     1     126.248  52.657  28.852  1.00  0.00     0.279 HD
HETATM    6  C5  UNL     1     126.219  53.000  30.891  1.00  0.00     0.387 C
HETATM    7  N5  UNL     1     124.880  53.060  31.397  1.00  0.00    -0.013 N
ATOM      8  H51 UNL     1     124.557  52.178  31.797  1.00  0.00     0.282 HD
ATOM      9  H52 UNL     1     124.790  53.621  32.244  1.00  0.00     0.282 HD
ENDROOT
BRANCH   6  10
HETATM   10  C6  UNL     1     127.191  53.742  31.775  1.00  0.00     0.082 C
BRANCH  10  11
HETATM   11  C7  UNL     1     128.080  52.786  32.539  1.00  0.00     0.124 C
BRANCH  11  12
HETATM   12  N3  UNL     1     129.446  53.308  32.593  1.00  0.00    -0.386 N
ATOM     13  H3  UNL     1     129.671  54.190  32.134  1.00  0.00     0.160 HD
BRANCH  12  14
HETATM   14  C8  UNL     1     130.447  52.602  33.274  1.00  0.00     0.168 C
HETATM   15  N4  UNL     1     131.654  53.018  33.414  1.00  0.00    -0.396 N
ATOM     16  H42 UNL     1     131.883  53.920  32.997  1.00  0.00     0.156 HD
ATOM     17  H41 UNL     1     132.382  52.504  33.910  1.00  0.00     0.156 HD
ENDBRANCH  12  14
ENDBRANCH  11  12
ENDBRANCH  10  11
ENDBRANCH   6  10
BRANCH   1  18
HETATM   18  N1  UNL     1     123.050  54.395  30.877  1.00  0.00     0.112 N
HETATM   19  C1  UNL     1     123.027  54.414  32.306  1.00  0.00     0.312 C
HETATM   20  C2  UNL     1     123.035  55.716  30.292  1.00  0.00     0.312 C
ENDBRANCH   1  18
TORSDOF 5
ENDMDL