MODEL 2
REMARK VINA RESULT: -5.099278857      1.499      2.054
REMARK  7 active torsions:
REMARK  status: ('A' for Active; 'I' for Inactive)
REMARK    1  A    between atoms: C2_2  and  C3_3
REMARK    2  A    between atoms: C3_3  and  N1_4
REMARK    3  A    between atoms: C3_3  and  C4_8
REMARK    4  A    between atoms: C4_8  and  N2_9
REMARK    5  A    between atoms: C5_11  and  C6_12
REMARK    6  A    between atoms: C7_15  and  C8_16
REMARK    7  A    between atoms: C8_16  and  N4_17
ROOT
HETATM    1  C6  UNL     1     127.184  52.616  32.346  1.00  0.00     0.120 A
HETATM    2  N3  UNL     1     128.018  51.968  33.203  1.00  0.00    -0.342 N
ATOM      3  H3  UNL     1     127.727  51.256  33.872  1.00  0.00     0.167 HD
HETATM    4  C7  UNL     1     129.278  52.399  33.042  1.00  0.00     0.051 A
HETATM    5  C9  UNL     1     129.216  53.351  32.045  1.00  0.00     0.116 A
HETATM    6  N5  UNL     1     127.942  53.467  31.639  1.00  0.00    -0.349 N
ATOM      7  H5  UNL     1     127.606  54.098  30.912  1.00  0.00     0.167 HD
ENDROOT
BRANCH   1   8
HETATM    8  C5  UNL     1     125.744  52.418  32.224  1.00  0.00     0.132 C
HETATM    9  N2  UNL     1     125.131  52.847  31.186  1.00  0.00    -0.394 N
ATOM     10  H2  UNL     1     125.650  53.325  30.450  1.00  0.00     0.159 HD
BRANCH   9  11
HETATM   11  C4  UNL     1     123.723  52.657  31.058  1.00  0.00     0.151 C
BRANCH  11  12
HETATM   12  C3  UNL     1     122.964  53.904  30.724  1.00  0.00     0.200 C
BRANCH  12  13
HETATM   13  C2  UNL     1     123.883  54.904  30.045  1.00  0.00     0.030 C
HETATM   14  C1  UNL     1     123.057  55.552  28.934  1.00  0.00     0.007 C
ENDBRANCH  12  13
BRANCH  12  15
HETATM   15  N1  UNL     1     122.355  54.547  31.834  1.00  0.00    -0.073 N
ATOM     16  H13 UNL     1     122.657  54.160  32.728  1.00  0.00     0.274 HD
ATOM     17  H12 UNL     1     122.695  55.498  31.973  1.00  0.00     0.274 HD
ATOM     18  H11 UNL     1     121.344  54.505  31.708  1.00  0.00     0.274 HD
ENDBRANCH  12  15
ENDBRANCH  11  12
ENDBRANCH   9  11
ENDBRANCH   1   8
BRANCH   4  19
HETATM   19  C8  UNL     1     130.492  51.952  33.778  1.00  0.00     0.287 C
BRANCH  19  20
HETATM   20  N4  UNL     1     131.607  52.846  33.537  1.00  0.00    -0.074 N
ATOM     21  H43 UNL     1     132.068  52.641  32.651  1.00  0.00     0.274 HD
ATOM     22  H42 UNL     1     131.291  53.793  33.333  1.00  0.00     0.274 HD
ATOM     23  H41 UNL     1     132.266  52.829  34.316  1.00  0.00     0.274 HD
ENDBRANCH  19  20
ENDBRANCH   4  19
TORSDOF 7
ENDMDL