MODEL 1
REMARK VINA RESULT: -5.787321546      0.000      0.000
REMARK  7 active torsions:
REMARK  status: ('A' for Active; 'I' for Inactive)
REMARK    1  A    between atoms: C1_4  and  C2_5
REMARK    2  A    between atoms: C2_5  and  N2_6
REMARK    3  A    between atoms: N2_6  and  C3_8
REMARK    4  A    between atoms: C3_8  and  C4_9
REMARK    5  A    between atoms: C4_9  and  N3_10
REMARK    6  A    between atoms: N3_10  and  C5_12
REMARK    7  A    between atoms: C8_19  and  N6_20
ROOT
HETATM    1  C5  UNL     1     126.109  52.254  32.219  1.00  0.00     0.149 A
HETATM    2  N4  UNL     1     126.783  53.389  31.838  1.00  0.00    -0.348 N
ATOM      3  H4  UNL     1     126.287  54.119  31.326  1.00  0.00     0.167 HD
HETATM    4  C6  UNL     1     128.070  53.550  32.127  1.00  0.00     0.107 A
HETATM    5  C7  UNL     1     128.758  52.570  32.822  1.00  0.00     0.107 A
HETATM    6  N5  UNL     1     128.116  51.469  33.194  1.00  0.00    -0.348 N
ATOM      7  H5  UNL     1     128.620  50.746  33.707  1.00  0.00     0.167 HD
HETATM    8  C8  UNL     1     126.779  51.283  32.902  1.00  0.00     0.143 A
ENDROOT
BRANCH   1   9
HETATM    9  N3  UNL     1     124.913  52.238  31.902  1.00  0.00    -0.348 N
ATOM     10  H3  UNL     1     124.625  51.273  31.737  1.00  0.00     0.167 HD
BRANCH   9  11
HETATM   11  C4  UNL     1     123.819  53.085  31.691  1.00  0.00     0.106 C
BRANCH  11  12
HETATM   12  C3  UNL     1     123.306  52.826  30.294  1.00  0.00     0.104 C
BRANCH  12  13
HETATM   13  N2  UNL     1     124.041  53.270  29.213  1.00  0.00    -0.373 N
ATOM     14  H2  UNL     1     124.169  52.645  28.417  1.00  0.00     0.164 HD
BRANCH  13  15
HETATM   15  C2  UNL     1     124.620  54.551  29.166  1.00  0.00     0.104 C
BRANCH  15  16
HETATM   16  C1  UNL     1     123.657  55.644  28.796  1.00  0.00     0.097 C
HETATM   17  N1  UNL     1     124.092  56.632  28.134  1.00  0.00    -0.407 N
ATOM     18  H12 UNL     1     125.075  56.670  27.866  1.00  0.00     0.155 HD
ATOM     19  H11 UNL     1     123.438  57.374  27.884  1.00  0.00     0.155 HD
ENDBRANCH  15  16
ENDBRANCH  13  15
ENDBRANCH  12  13
ENDBRANCH  11  12
ENDBRANCH   9  11
ENDBRANCH   1   9
BRANCH   8  20
HETATM   20  N6  UNL     1     126.301  50.164  33.304  1.00  0.00    -0.382 N
ATOM     21  H62 UNL     1     125.294  50.171  33.468  1.00  0.00     0.157 HD
ATOM     22  H61 UNL     1     126.826  49.307  33.483  1.00  0.00     0.157 HD
ENDBRANCH   8  20
TORSDOF 7
ENDMDL