MODEL 5
REMARK VINA RESULT: -5.360825258      3.864      6.097
REMARK  6 active torsions:
REMARK  status: ('A' for Active; 'I' for Inactive)
REMARK    1  A    between atoms: C2_2  and  O1_3
REMARK    2  A    between atoms: O1_3  and  C3_4
REMARK    3  A    between atoms: C3_4  and  C4_5
REMARK    4  A    between atoms: C4_5  and  C5_6
REMARK    5  A    between atoms: C5_6  and  N1_7
REMARK    6  A    between atoms: C7_16  and  N5_17
ROOT
HETATM    1  N1  UNL     1     124.909  53.602  30.138  1.00  0.00    -0.278 N
HETATM    2  N2  UNL     1     125.191  54.343  29.024  1.00  0.00    -0.270 N
ATOM      3  H2  UNL     1     125.971  54.222  28.378  1.00  0.00     0.190 HD
HETATM    4  C6  UNL     1     124.151  55.324  28.962  1.00  0.00     0.190 C
HETATM    5  N3  UNL     1     124.111  56.372  28.175  1.00  0.00    -0.370 N
ATOM      6  H31 UNL     1     123.369  57.072  28.131  1.00  0.00     0.159 HD
ATOM      7  H32 UNL     1     124.825  56.628  27.493  1.00  0.00     0.159 HD
HETATM    8  N4  UNL     1     123.156  54.968  29.912  1.00  0.00    -0.317 N
ATOM      9  H4  UNL     1     122.336  55.516  30.172  1.00  0.00     0.166 HD
HETATM   10  C7  UNL     1     123.536  53.668  30.440  1.00  0.00     0.406 C
ENDROOT
BRANCH   1  11
HETATM   11  C5  UNL     1     125.851  53.499  31.144  1.00  0.00     0.149 C
BRANCH  11  12
HETATM   12  C4  UNL     1     125.382  52.477  32.201  1.00  0.00     0.048 C
BRANCH  12  13
HETATM   13  C3  UNL     1     126.585  51.797  32.792  1.00  0.00     0.169 C
BRANCH  13  14
HETATM   14  O1  UNL     1     127.453  52.661  33.377  1.00  0.00    -0.391 OA
BRANCH  14  15
HETATM   15  C2  UNL     1     128.774  52.393  33.152  1.00  0.00     0.163 C
HETATM   16  C1  UNL     1     129.337  53.319  32.069  1.00  0.00     0.033 C
ENDBRANCH  14  15
ENDBRANCH  13  14
ENDBRANCH  12  13
ENDBRANCH  11  12
ENDBRANCH   1  11
BRANCH  10  17
HETATM   17  N5  UNL     1     122.808  52.685  29.620  1.00  0.00    -0.039 N
ATOM     18  H53 UNL     1     123.321  51.809  29.521  1.00  0.00     0.279 HD
ATOM     19  H52 UNL     1     121.984  52.319  30.098  1.00  0.00     0.279 HD
ATOM     20  H51 UNL     1     122.576  53.102  28.718  1.00  0.00     0.279 HD
ENDBRANCH  10  17
TORSDOF 6
ENDMDL