MODEL 2
REMARK VINA RESULT: -4.784763068      1.363      2.092
REMARK  4 active torsions:
REMARK  status: ('A' for Active; 'I' for Inactive)
REMARK    1  A    between atoms: C2_2  and  C3_3
REMARK    2  A    between atoms: C3_3  and  C4_4
REMARK    3  A    between atoms: C4_4  and  N1_5
REMARK    4  A    between atoms: C5_7  and  C6_8
REMARK       I    between atoms: N3_14  and  C9_15
REMARK       I    between atoms: C9_15  and  N4_16
REMARK       I    between atoms: C9_15  and  N5_20
ROOT
HETATM    1  C6  UNL     1     124.871  53.097  31.013  1.00  0.00     0.462 C
HETATM    2  N2  UNL     1     123.910  53.551  30.048  1.00  0.00    -0.037 N
ATOM      3  H21 UNL     1     123.517  52.809  29.469  1.00  0.00     0.280 HD
ATOM      4  H22 UNL     1     124.311  54.090  29.280  1.00  0.00     0.280 HD
HETATM    5  C7  UNL     1     122.945  54.265  30.821  1.00  0.00     0.265 C
HETATM    6  C8  UNL     1     123.200  53.923  32.276  1.00  0.00     0.308 C
HETATM    7  N3  UNL     1     124.193  52.884  32.252  1.00  0.00     0.184 N
HETATM    8  C9  UNL     1     123.545  51.602  32.356  1.00  0.00     0.615 C
HETATM    9  N4  UNL     1     122.548  51.408  31.334  1.00  0.00    -0.023 N
ATOM     10  H41 UNL     1     122.089  50.500  31.408  1.00  0.00     0.279 HD
ATOM     11  H42 UNL     1     122.942  51.547  30.403  1.00  0.00     0.279 HD
ATOM     12  H43 UNL     1     121.866  52.166  31.336  1.00  0.00     0.279 HD
HETATM   13  N5  UNL     1     124.456  50.498  32.428  1.00  0.00    -0.023 N
ATOM     14  H51 UNL     1     123.997  49.590  32.502  1.00  0.00     0.279 HD
ATOM     15  H52 UNL     1     125.120  50.628  33.191  1.00  0.00     0.279 HD
ATOM     16  H53 UNL     1     125.100  50.511  31.637  1.00  0.00     0.279 HD
ENDROOT
BRANCH   1  17
HETATM   17  C5  UNL     1     125.864  54.204  31.200  1.00  0.00     0.120 C
HETATM   18  N1  UNL     1     127.078  54.019  31.508  1.00  0.00    -0.399 N
ATOM     19  H1  UNL     1     127.662  54.848  31.609  1.00  0.00     0.158 HD
BRANCH  18  20
HETATM   20  C4  UNL     1     127.700  52.758  31.725  1.00  0.00     0.119 C
BRANCH  20  21
HETATM   21  C3  UNL     1     127.859  52.429  33.188  1.00  0.00     0.019 C
BRANCH  21  22
HETATM   22  C2  UNL     1     129.227  51.889  33.510  1.00  0.00    -0.003 C
HETATM   23  C1  UNL     1     130.339  52.765  33.033  1.00  0.00     0.005 C
ENDBRANCH  21  22
ENDBRANCH  20  21
ENDBRANCH  18  20
ENDBRANCH   1  17
TORSDOF 4
ENDMDL