MODEL 1
REMARK VINA RESULT: -5.285284044      0.000      0.000
REMARK  5 active torsions:
REMARK  status: ('A' for Active; 'I' for Inactive)
REMARK    1  A    between atoms: O1_2  and  C2_3
REMARK    2  A    between atoms: C2_3  and  C3_4
REMARK    3  A    between atoms: C3_4  and  N1_5
REMARK    4  A    between atoms: N1_5  and  C4_7
REMARK    5  A    between atoms: C4_7  and  C5_8
ROOT
HETATM    1  C5  UNL     1     126.095  53.553  31.392  1.00  0.00     0.144 C
HETATM    2  C6  UNL     1     127.570  53.276  31.214  1.00  0.00     0.262 C
HETATM    3  N2  UNL     1     128.237  53.547  32.440  1.00  0.00    -0.073 N
ATOM      4  H21 UNL     1     128.018  54.488  32.767  1.00  0.00     0.277 HD
ATOM      5  H22 UNL     1     129.241  53.648  32.286  1.00  0.00     0.277 HD
HETATM    6  C7  UNL     1     127.982  52.587  33.469  1.00  0.00     0.237 C
HETATM    7  C8  UNL     1     127.339  51.349  32.995  1.00  0.00     0.071 C
HETATM    8  C9  UNL     1     125.940  51.405  32.578  1.00  0.00     0.058 C
HETATM    9  N3  UNL     1     125.376  52.566  32.051  1.00  0.00    -0.392 N
ATOM     10  H3  UNL     1     124.370  52.699  32.156  1.00  0.00     0.159 HD
ENDROOT
BRANCH   1  11
HETATM   11  C4  UNL     1     125.565  53.743  29.984  1.00  0.00     0.082 C
BRANCH  11  12
HETATM   12  N1  UNL     1     124.383  53.052  29.656  1.00  0.00    -0.398 N
ATOM     13  H1  UNL     1     124.398  52.117  29.246  1.00  0.00     0.158 HD
BRANCH  12  14
HETATM   14  C3  UNL     1     123.165  53.736  29.931  1.00  0.00     0.145 C
BRANCH  14  15
HETATM   15  C2  UNL     1     123.297  55.240  29.838  1.00  0.00     0.186 C
BRANCH  15  16
HETATM   16  O1  UNL     1     122.980  55.854  31.048  1.00  0.00    -0.394 OA
HETATM   17  C1  UNL     1     122.663  54.920  32.027  1.00  0.00     0.201 C
ENDBRANCH  15  16
ENDBRANCH  14  15
ENDBRANCH  12  14
ENDBRANCH  11  12
ENDBRANCH   1  11
TORSDOF 5
ENDMDL