MODEL 3
REMARK VINA RESULT: -5.339911779      0.943      1.048
REMARK  7 active torsions:
REMARK  status: ('A' for Active; 'I' for Inactive)
REMARK    1  A    between atoms: O1_2  and  C2_3
REMARK    2  A    between atoms: C2_3  and  C3_4
REMARK    3  A    between atoms: C3_4  and  N1_5
REMARK    4  A    between atoms: N1_5  and  N2_6
REMARK    5  A    between atoms: N1_5  and  C4_9
REMARK    6  A    between atoms: C4_9  and  C5_10
REMARK    7  A    between atoms: C7_14  and  N4_15
ROOT
HETATM    1  C5  UNL     1     126.321  52.113  32.549  1.00  0.00     0.061 A
HETATM    2  C6  UNL     1     127.237  51.569  33.455  1.00  0.00     0.133 A
HETATM    3  N3  UNL     1     128.389  52.244  33.376  1.00  0.00    -0.200 N
ATOM      4  H3  UNL     1     129.233  52.067  33.921  1.00  0.00     0.183 HD
HETATM    5  C7  UNL     1     128.227  53.191  32.451  1.00  0.00     0.676 A
HETATM    6  N5  UNL     1     126.973  53.111  31.949  1.00  0.00    -0.193 N
ATOM      7  H5  UNL     1     126.586  53.717  31.226  1.00  0.00     0.184 HD
ENDROOT
BRANCH   1   8
HETATM    8  C4  UNL     1     124.926  51.667  32.310  1.00  0.00     0.201 C
BRANCH   8   9
HETATM    9  N1  UNL     1     124.257  52.671  31.552  1.00  0.00    -0.327 N
BRANCH   9  10
HETATM   10  C3  UNL     1     123.314  53.454  32.290  1.00  0.00     0.168 C
BRANCH  10  11
HETATM   11  C2  UNL     1     123.245  54.842  31.725  1.00  0.00     0.188 C
BRANCH  11  12
HETATM   12  O1  UNL     1     122.544  54.866  30.515  1.00  0.00    -0.394 OA
HETATM   13  C1  UNL     1     123.195  55.691  29.587  1.00  0.00     0.201 C
ENDBRANCH  11  12
ENDBRANCH  10  11
ENDBRANCH   9  10
BRANCH   9  14
HETATM   14  N2  UNL     1     123.960  52.394  30.273  1.00  0.00    -0.347 N
ATOM     15  H22 UNL     1     123.296  53.005  29.796  1.00  0.00     0.176 HD
ATOM     16  H21 UNL     1     124.713  52.037  29.685  1.00  0.00     0.176 HD
ENDBRANCH   9  14
ENDBRANCH   8   9
ENDBRANCH   1   8
BRANCH   5  17
HETATM   17  N4  UNL     1     129.118  54.040  32.096  1.00  0.00    -0.234 N
ATOM     18  H42 UNL     1     130.080  54.067  32.434  1.00  0.00     0.174 HD
ATOM     19  H41 UNL     1     128.977  54.799  31.430  1.00  0.00     0.174 HD
ENDBRANCH   5  17
TORSDOF 7
ENDMDL