MODEL 5
REMARK VINA RESULT: -7.622616766      1.050      1.722
REMARK  8 active torsions:
REMARK  status: ('A' for Active; 'I' for Inactive)
REMARK    1  A    between atoms: S1_2  and  C2_3
REMARK    2  A    between atoms: C7_8  and  N1_9
REMARK    3  A    between atoms: N1_9  and  C8_11
REMARK    4  A    between atoms: C8_11  and  C9_12
REMARK    5  A    between atoms: C12_15  and  C13_16
REMARK    6  A    between atoms: C13_16  and  N2_17
REMARK    7  A    between atoms: N2_17  and  C14_20
REMARK    8  A    between atoms: C14_20  and  C15_21
ROOT
HETATM    1  C9  UNL     1     -17.725  18.359 -45.330  1.00  0.00    -0.041 A
HETATM    2  C10 UNL     1     -18.968  18.054 -45.843  1.00  0.00     0.009 A
HETATM    3  C11 UNL     1     -19.869  17.241 -45.157  1.00  0.00     0.009 A
HETATM    4  C12 UNL     1     -19.548  16.716 -43.946  1.00  0.00    -0.033 A
HETATM    5  C18 UNL     1     -18.307  17.011 -43.417  1.00  0.00     0.009 A
HETATM    6  C19 UNL     1     -17.411  17.813 -44.087  1.00  0.00     0.009 A
ENDROOT
BRANCH   1   7
HETATM    7  C8  UNL     1     -16.729  19.210 -46.008  1.00  0.00     0.158 C
BRANCH   7   8
HETATM    8  N1  UNL     1     -17.284  20.384 -46.632  1.00  0.00    -0.385 N
ATOM      9  H1  UNL     1     -18.245  20.657 -46.429  1.00  0.00     0.160 HD
BRANCH   8  10
HETATM   10  C7  UNL     1     -16.516  21.155 -47.515  1.00  0.00     0.045 A
HETATM   11  C2  UNL     1     -17.155  22.192 -48.207  1.00  0.00     0.026 A
HETATM   12  C3  UNL     1     -16.484  22.995 -49.105  1.00  0.00     0.021 A
HETATM   13  C4  UNL     1     -15.154  22.746 -49.308  1.00  0.00     0.002 A
HETATM   14  C5  UNL     1     -14.485  21.731 -48.646  1.00  0.00     0.002 A
HETATM   15  C6  UNL     1     -15.174  20.930 -47.743  1.00  0.00     0.030 A
BRANCH  11  16
HETATM   16  S1  UNL     1     -18.892  22.482 -47.902  1.00  0.00    -0.132 SA
HETATM   17  C1  UNL     1     -19.175  24.270 -47.917  1.00  0.00     0.095 C
ENDBRANCH  11  16
ENDBRANCH   8  10
ENDBRANCH   7   8
ENDBRANCH   1   7
BRANCH   4  18
HETATM   18  C13 UNL     1     -20.488  15.836 -43.179  1.00  0.00     0.270 C
BRANCH  18  19
HETATM   19  N2  UNL     1     -21.260  15.094 -44.144  1.00  0.00    -0.071 N
ATOM     20  H22 UNL     1     -21.098  15.454 -45.085  1.00  0.00     0.277 HD
ATOM     21  H21 UNL     1     -20.888  14.151 -44.254  1.00  0.00     0.277 HD
BRANCH  19  22
HETATM   22  C14 UNL     1     -22.661  15.052 -43.857  1.00  0.00     0.237 C
BRANCH  22  23
HETATM   23  C15 UNL     1     -23.469  14.319 -44.908  1.00  0.00     0.011 A
HETATM   24  C16 UNL     1     -24.536  15.081 -45.638  1.00  0.00     0.007 A
HETATM   25  C17 UNL     1     -24.908  14.067 -44.570  1.00  0.00     0.007 A
ENDBRANCH  22  23
ENDBRANCH  19  22
ENDBRANCH  18  19
ENDBRANCH   4  18
TORSDOF 8
ENDMDL