MODEL 3
REMARK VINA RESULT: -7.483175214      1.282      1.987
REMARK  10 active torsions:
REMARK  status: ('A' for Active; 'I' for Inactive)
REMARK    1  A    between atoms: C2_2  and  C3_3
REMARK    2  A    between atoms: C3_3  and  C4_4
REMARK    3  A    between atoms: C4_4  and  C5_5
REMARK    4  A    between atoms: C5_5  and  C6_6
REMARK    5  A    between atoms: C6_6  and  C7_7
REMARK    6  A    between atoms: C7_7  and  N1_8
REMARK    7  A    between atoms: C7_7  and  C15_21
REMARK    8  A    between atoms: N1_8  and  N2_10
REMARK    9  A    between atoms: C8_12  and  C9_13
REMARK   10  A    between atoms: C12_16  and  O1_17
ROOT
HETATM    1  C7  UNL     1     -16.586  19.552 -45.950  1.00  0.00     0.135 C
ENDROOT
BRANCH   1   2
HETATM    2  C6  UNL     1     -16.132  18.378 -46.729  1.00  0.00     0.058 C
BRANCH   2   3
HETATM    3  C5  UNL     1     -15.373  18.650 -47.977  1.00  0.00    -0.024 C
BRANCH   3   4
HETATM    4  C4  UNL     1     -14.235  19.268 -48.087  1.00  0.00    -0.004 C
BRANCH   4   5
HETATM    5  C3  UNL     1     -13.801  20.480 -48.720  1.00  0.00    -0.001 C
BRANCH   5   6
HETATM    6  C2  UNL     1     -14.664  21.511 -49.239  1.00  0.00    -0.010 C
HETATM    7  C1  UNL     1     -14.684  22.809 -49.240  1.00  0.00     0.011 C
ENDBRANCH   5   6
ENDBRANCH   4   5
ENDBRANCH   3   4
ENDBRANCH   2   3
ENDBRANCH   1   2
BRANCH   1   8
HETATM    8  N1  UNL     1     -17.166  19.211 -44.658  1.00  0.00    -0.327 N
ATOM      9  H1  UNL     1     -17.781  19.923 -44.263  1.00  0.00     0.181 HD
BRANCH   8  10
HETATM   10  N2  UNL     1     -17.022  18.117 -43.909  1.00  0.00    -0.315 N
HETATM   11  C8  UNL     1     -17.618  17.125 -43.489  1.00  0.00     0.118 C
ATOM     12  H2  UNL     1     -16.067  18.094 -43.553  1.00  0.00     0.185 HD
BRANCH  11  13
HETATM   13  C9  UNL     1     -19.005  16.800 -43.778  1.00  0.00    -0.019 A
HETATM   14  C10 UNL     1     -19.660  15.901 -42.923  1.00  0.00     0.015 A
HETATM   15  C11 UNL     1     -20.967  15.556 -43.130  1.00  0.00     0.037 A
HETATM   16  C12 UNL     1     -21.672  16.083 -44.181  1.00  0.00     0.065 A
HETATM   17  C13 UNL     1     -21.032  16.963 -45.018  1.00  0.00     0.037 A
HETATM   18  C14 UNL     1     -19.693  17.340 -44.838  1.00  0.00     0.015 A
BRANCH  16  19
HETATM   19  O1  UNL     1     -22.995  15.740 -44.397  1.00  0.00    -0.361 OA
ATOM     20  H1  UNL     1     -23.678  16.015 -43.798  1.00  0.00     0.217 HD
ENDBRANCH  16  19
ENDBRANCH  11  13
ENDBRANCH   8  10
ENDBRANCH   1   8
BRANCH   1  21
HETATM   21  C15 UNL     1     -17.543  20.395 -46.704  1.00  0.00    -0.034 A
HETATM   22  C16 UNL     1     -18.634  19.783 -47.284  1.00  0.00     0.009 A
HETATM   23  C17 UNL     1     -19.569  20.488 -48.025  1.00  0.00     0.001 A
HETATM   24  C18 UNL     1     -19.361  21.841 -48.157  1.00  0.00     0.000 A
HETATM   25  C19 UNL     1     -18.279  22.458 -47.582  1.00  0.00     0.001 A
HETATM   26  C20 UNL     1     -17.359  21.758 -46.854  1.00  0.00     0.009 A
ENDBRANCH   1  21
TORSDOF 10
ENDMDL