MODEL 5
REMARK VINA RESULT: -7.400764405      2.426      6.491
REMARK  9 active torsions:
REMARK  status: ('A' for Active; 'I' for Inactive)
REMARK    1  A    between atoms: C2_2  and  C4_4
REMARK    2  A    between atoms: C4_4  and  O1_5
REMARK    3  A    between atoms: O1_5  and  C5_6
REMARK    4  A    between atoms: C5_6  and  N1_7
REMARK    5  A    between atoms: C5_6  and  C14_21
REMARK    6  A    between atoms: N1_7  and  C6_9
REMARK    7  A    between atoms: C6_9  and  C7_10
REMARK    8  A    between atoms: C7_10  and  N2_11
REMARK    9  A    between atoms: C7_10  and  C8_15
ROOT
HETATM    1  N1  UNL     1     -17.143  22.408 -47.529  1.00  0.00    -0.374 N
ATOM      2  H1  UNL     1     -16.826  23.097 -46.847  1.00  0.00     0.161 HD
ENDROOT
BRANCH   1   3
HETATM    3  C5  UNL     1     -17.769  21.235 -47.063  1.00  0.00     0.224 C
BRANCH   3   4
HETATM    4  O1  UNL     1     -18.504  20.616 -48.127  1.00  0.00    -0.366 OA
BRANCH   4   5
HETATM    5  C4  UNL     1     -19.842  20.629 -47.794  1.00  0.00     0.174 C
BRANCH   5   6
HETATM    6  C2  UNL     1     -20.571  19.355 -48.055  1.00  0.00     0.001 C
HETATM    7  C1  UNL     1     -22.045  19.521 -48.245  1.00  0.00     0.011 C
HETATM    8  C3  UNL     1     -20.214  18.354 -46.972  1.00  0.00     0.011 C
ENDBRANCH   5   6
ENDBRANCH   4   5
ENDBRANCH   3   4
BRANCH   3   9
HETATM    9  C14 UNL     1     -16.978  20.183 -46.394  1.00  0.00     0.034 C
HETATM   10  C15 UNL     1     -16.829  18.861 -47.034  1.00  0.00     0.009 C
HETATM   11  C16 UNL     1     -15.627  18.199 -46.319  1.00  0.00     0.001 C
HETATM   12  C17 UNL     1     -16.148  17.746 -44.971  1.00  0.00     0.000 C
HETATM   13  C18 UNL     1     -17.354  18.528 -44.518  1.00  0.00     0.001 C
HETATM   14  C19 UNL     1     -17.400  19.948 -44.953  1.00  0.00     0.009 C
ENDBRANCH   3   9
ENDBRANCH   1   3
BRANCH   1  15
HETATM   15  C6  UNL     1     -16.938  22.664 -48.883  1.00  0.00     0.095 C
BRANCH  15  16
HETATM   16  C7  UNL     1     -15.471  22.873 -49.257  1.00  0.00     0.254 C
BRANCH  16  17
HETATM   17  N2  UNL     1     -14.992  23.910 -48.332  1.00  0.00    -0.066 N
ATOM     18  H23 UNL     1     -15.726  24.324 -47.757  1.00  0.00     0.275 HD
ATOM     19  H22 UNL     1     -14.430  23.550 -47.561  1.00  0.00     0.275 HD
ATOM     20  H21 UNL     1     -14.501  24.581 -48.924  1.00  0.00     0.275 HD
ENDBRANCH  16  17
BRANCH  16  21
HETATM   21  C8  UNL     1     -14.678  21.665 -48.969  1.00  0.00    -0.023 A
HETATM   22  C9  UNL     1     -14.702  20.527 -49.729  1.00  0.00     0.009 A
HETATM   23  C10 UNL     1     -13.958  19.400 -49.439  1.00  0.00     0.001 A
HETATM   24  C11 UNL     1     -13.150  19.450 -48.309  1.00  0.00     0.000 A
HETATM   25  C12 UNL     1     -13.109  20.583 -47.530  1.00  0.00     0.001 A
HETATM   26  C13 UNL     1     -13.860  21.682 -47.850  1.00  0.00     0.009 A
ENDBRANCH  16  21
ENDBRANCH  15  16
ENDBRANCH   1  15
TORSDOF 9
ENDMDL