MODEL 2
REMARK VINA RESULT: -8.148381782      1.199      3.233
REMARK  7 active torsions:
REMARK  status: ('A' for Active; 'I' for Inactive)
REMARK    1  A    between atoms: C2_2  and  C3_3
REMARK    2  A    between atoms: C3_3  and  C4_4
REMARK    3  A    between atoms: C3_3  and  N1_10
REMARK    4  A    between atoms: C4_4  and  C5_5
REMARK    5  A    between atoms: N1_10  and  C10_13
REMARK    6  A    between atoms: C10_13  and  C11_14
REMARK    7  A    between atoms: C14_17  and  C15_18
ROOT
HETATM    1  C11 UNL     1     -20.509  16.744 -42.835  1.00  0.00    -0.033 A
HETATM    2  C12 UNL     1     -20.902  16.923 -44.135  1.00  0.00     0.010 A
HETATM    3  C13 UNL     1     -21.931  16.162 -44.631  1.00  0.00     0.016 A
HETATM    4  C14 UNL     1     -22.584  15.220 -43.868  1.00  0.00     0.011 A
HETATM    5  C16 UNL     1     -22.184  15.044 -42.563  1.00  0.00     0.016 A
HETATM    6  C17 UNL     1     -21.139  15.812 -42.043  1.00  0.00     0.010 A
ENDROOT
BRANCH   1   7
HETATM    7  C10 UNL     1     -19.390  17.545 -42.230  1.00  0.00     0.271 C
BRANCH   7   8
HETATM    8  N1  UNL     1     -18.619  18.204 -43.244  1.00  0.00    -0.067 N
ATOM      9  H12 UNL     1     -18.263  19.098 -42.905  1.00  0.00     0.277 HD
ATOM     10  H11 UNL     1     -19.221  18.536 -43.998  1.00  0.00     0.277 HD
BRANCH   8  11
HETATM   11  C3  UNL     1     -17.536  17.384 -43.771  1.00  0.00     0.186 C
BRANCH  11  12
HETATM   12  C2  UNL     1     -16.904  18.037 -44.971  1.00  0.00     0.028 C
HETATM   13  C1  UNL     1     -17.228  19.533 -45.021  1.00  0.00     0.007 C
ENDBRANCH  11  12
BRANCH  11  14
HETATM   14  C4  UNL     1     -16.619  16.847 -42.759  1.00  0.00     0.037 C
BRANCH  14  15
HETATM   15  C5  UNL     1     -15.358  17.502 -42.439  1.00  0.00    -0.013 C
HETATM   16  C6  UNL     1     -14.052  16.883 -42.670  1.00  0.00     0.005 C
HETATM   17  C7  UNL     1     -13.097  17.441 -41.629  1.00  0.00     0.000 C
HETATM   18  C8  UNL     1     -13.937  18.052 -40.562  1.00  0.00     0.000 C
HETATM   19  C9  UNL     1     -15.343  17.737 -40.911  1.00  0.00     0.005 C
ENDBRANCH  14  15
ENDBRANCH  11  14
ENDBRANCH   8  11
ENDBRANCH   7   8
ENDBRANCH   1   7
BRANCH   4  20
HETATM   20  C15 UNL     1     -23.680  14.419 -44.426  1.00  0.00     0.147 A
HETATM   21  N2  UNL     1     -23.620  13.577 -45.453  1.00  0.00    -0.268 N
HETATM   22  N3  UNL     1     -24.841  13.076 -45.610  1.00  0.00    -0.227 N
ATOM     23  H2  UNL     1     -22.797  13.358 -46.014  1.00  0.00     0.190 HD
HETATM   24  N4  UNL     1     -25.650  13.585 -44.708  1.00  0.00    -0.227 N
ATOM     25  H3  UNL     1     -25.109  12.399 -46.323  1.00  0.00     0.210 HD
HETATM   26  N5  UNL     1     -24.949  14.421 -43.964  1.00  0.00    -0.268 N
ATOM     27  H4  UNL     1     -26.642  13.371 -44.601  1.00  0.00     0.210 HD
ATOM     28  H5  UNL     1     -25.303  14.971 -43.180  1.00  0.00     0.190 HD
ENDBRANCH   4  20
TORSDOF 7
ENDMDL