MODEL 4
REMARK VINA RESULT: -7.409911032      0.076      1.042
REMARK  8 active torsions:
REMARK  status: ('A' for Active; 'I' for Inactive)
REMARK    1  A    between atoms: C2_2  and  S1_3
REMARK    2  A    between atoms: S1_3  and  C3_4
REMARK    3  A    between atoms: C3_4  and  C4_5
REMARK    4  A    between atoms: C3_4  and  C13_18
REMARK    5  A    between atoms: C4_5  and  C5_6
REMARK    6  A    between atoms: N1_7  and  C6_9
REMARK    7  A    between atoms: C6_9  and  O1_10
REMARK    8  A    between atoms: C6_9  and  C7_12
ROOT
HETATM    1  C5  UNL     1     -15.899  17.843 -44.392  1.00  0.00     0.059 C
HETATM    2  N1  UNL     1     -16.765  17.372 -43.452  1.00  0.00    -0.373 N
ATOM      3  H1  UNL     1     -16.624  16.396 -43.190  1.00  0.00     0.161 HD
ENDROOT
BRANCH   1   4
HETATM    4  C4  UNL     1     -16.319  18.167 -45.751  1.00  0.00     0.064 C
BRANCH   4   5
HETATM    5  C3  UNL     1     -15.964  19.478 -46.381  1.00  0.00     0.084 C
BRANCH   5   6
HETATM    6  S1  UNL     1     -14.627  19.367 -47.544  1.00  0.00    -0.160 SA
BRANCH   6   7
HETATM    7  C2  UNL     1     -13.708  20.792 -47.970  1.00  0.00     0.070 C
HETATM    8  C1  UNL     1     -14.389  21.777 -48.888  1.00  0.00     0.016 C
ENDBRANCH   6   7
ENDBRANCH   5   6
BRANCH   5   9
HETATM    9  C13 UNL     1     -17.231  20.068 -46.934  1.00  0.00    -0.044 A
HETATM   10  C14 UNL     1     -17.438  21.413 -47.000  1.00  0.00     0.008 A
HETATM   11  C15 UNL     1     -18.626  21.945 -47.531  1.00  0.00     0.001 A
HETATM   12  C16 UNL     1     -19.582  21.073 -47.986  1.00  0.00     0.000 A
HETATM   13  C17 UNL     1     -19.382  19.719 -47.923  1.00  0.00     0.001 A
HETATM   14  C18 UNL     1     -18.201  19.226 -47.394  1.00  0.00     0.008 A
ENDBRANCH   5   9
ENDBRANCH   4   5
ENDBRANCH   1   4
BRANCH   2  15
HETATM   15  C6  UNL     1     -17.808  18.008 -42.794  1.00  0.00     0.251 C
BRANCH  15  16
HETATM   16  O1  UNL     1     -17.955  19.368 -43.085  1.00  0.00    -0.373 OA
ATOM     17  H1  UNL     1     -18.321  19.895 -42.384  1.00  0.00     0.212 HD
ENDBRANCH  15  16
BRANCH  15  18
HETATM   18  C7  UNL     1     -19.104  17.385 -43.301  1.00  0.00    -0.010 A
HETATM   19  C8  UNL     1     -19.927  16.660 -42.468  1.00  0.00     0.011 A
HETATM   20  C9  UNL     1     -21.111  16.104 -42.923  1.00  0.00     0.001 A
HETATM   21  C10 UNL     1     -21.456  16.294 -44.252  1.00  0.00     0.000 A
HETATM   22  C11 UNL     1     -20.660  17.013 -45.116  1.00  0.00     0.001 A
HETATM   23  C12 UNL     1     -19.490  17.543 -44.601  1.00  0.00     0.011 A
ENDBRANCH  15  18
ENDBRANCH   2  15
TORSDOF 8
ENDMDL