MODEL 1
REMARK VINA RESULT: -7.903230563      0.000      0.000
REMARK  8 active torsions:
REMARK  status: ('A' for Active; 'I' for Inactive)
REMARK    1  A    between atoms: C5_7  and  N2_8
REMARK    2  A    between atoms: N2_8  and  C6_10
REMARK    3  A    between atoms: C6_10  and  C7_11
REMARK    4  A    between atoms: C6_10  and  C14_21
REMARK    5  A    between atoms: C7_11  and  N3_12
REMARK    6  A    between atoms: N3_12  and  C8_15
REMARK    7  A    between atoms: C8_15  and  C10_17
REMARK    8  A    between atoms: C10_17  and  C11_18
ROOT
HETATM    1  C6  UNL     1     -16.792  19.035 -46.268  1.00  0.00     0.142 C
ENDROOT
BRANCH   1   2
HETATM    2  N2  UNL     1     -16.927  19.020 -44.851  1.00  0.00    -0.366 N
ATOM      3  H2  UNL     1     -16.194  19.493 -44.324  1.00  0.00     0.161 HD
BRANCH   2   4
HETATM    4  C5  UNL     1     -17.960  18.426 -44.091  1.00  0.00     0.101 A
HETATM    5  N1  UNL     1     -18.260  18.775 -42.843  1.00  0.00    -0.353 N
HETATM    6  C4  UNL     1     -19.233  18.240 -42.099  1.00  0.00     0.090 A
ATOM      7  H1  UNL     1     -17.699  19.513 -42.417  1.00  0.00     0.166 HD
HETATM    8  C3  UNL     1     -20.016  17.245 -42.621  1.00  0.00     0.024 A
HETATM    9  C2  UNL     1     -19.769  16.832 -43.902  1.00  0.00    -0.057 A
HETATM   10  C1  UNL     1     -20.606  15.752 -44.514  1.00  0.00     0.048 C
HETATM   11  C20 UNL     1     -18.758  17.408 -44.636  1.00  0.00     0.054 A
ENDBRANCH   2   4
ENDBRANCH   1   2
BRANCH   1  12
HETATM   12  C7  UNL     1     -15.448  19.335 -46.825  1.00  0.00     0.262 C
BRANCH  12  13
HETATM   13  N3  UNL     1     -15.319  19.212 -48.250  1.00  0.00    -0.069 N
ATOM     14  H32 UNL     1     -15.162  18.258 -48.573  1.00  0.00     0.277 HD
ATOM     15  H31 UNL     1     -16.188  19.363 -48.761  1.00  0.00     0.277 HD
BRANCH  13  16
HETATM   16  C8  UNL     1     -14.225  20.166 -48.610  1.00  0.00     0.182 C
HETATM   17  C9  UNL     1     -13.085  19.849 -47.672  1.00  0.00     0.040 C
BRANCH  16  18
HETATM   18  C10 UNL     1     -14.663  21.576 -48.304  1.00  0.00     0.037 C
BRANCH  18  19
HETATM   19  C11 UNL     1     -14.698  22.491 -49.484  1.00  0.00    -0.013 A
HETATM   20  C12 UNL     1     -15.984  23.199 -49.830  1.00  0.00     0.005 A
HETATM   21  C13 UNL     1     -14.902  23.962 -49.141  1.00  0.00     0.005 A
ENDBRANCH  18  19
ENDBRANCH  16  18
ENDBRANCH  13  16
ENDBRANCH  12  13
ENDBRANCH   1  12
BRANCH   1  22
HETATM   22  C14 UNL     1     -17.733  20.028 -46.861  1.00  0.00    -0.034 A
HETATM   23  C15 UNL     1     -18.831  19.591 -47.563  1.00  0.00     0.009 A
HETATM   24  C16 UNL     1     -19.654  20.554 -48.097  1.00  0.00     0.001 A
HETATM   25  C17 UNL     1     -19.423  21.903 -47.958  1.00  0.00     0.000 A
HETATM   26  C18 UNL     1     -18.321  22.322 -47.255  1.00  0.00     0.001 A
HETATM   27  C19 UNL     1     -17.479  21.365 -46.708  1.00  0.00     0.009 A
ENDBRANCH   1  22
TORSDOF 8
ENDMDL