MODEL 1
REMARK VINA RESULT: -7.409640828      0.000      0.000
REMARK  8 active torsions:
REMARK  status: ('A' for Active; 'I' for Inactive)
REMARK       I    between atoms: C2_5  and  N3_6
REMARK       I    between atoms: C2_5  and  N4_20
REMARK    1  A    between atoms: N3_6  and  C3_8
REMARK    2  A    between atoms: C3_8  and  C4_9
REMARK    3  A    between atoms: C4_9  and  C5_10
REMARK    4  A    between atoms: C5_10  and  C6_11
REMARK    5  A    between atoms: C6_11  and  C7_12
REMARK    6  A    between atoms: C7_12  and  C8_13
REMARK    7  A    between atoms: C8_13  and  C9_14
REMARK    8  A    between atoms: N4_20  and  C15_22
ROOT
HETATM    1  N1  UNL     1     -15.358  29.038 -50.956  1.00  0.00    -0.171 NA
HETATM    2  C1  UNL     1     -15.004  28.061 -50.450  1.00  0.00     0.196 C
HETATM    3  N2  UNL     1     -14.562  26.887 -49.858  1.00  0.00    -0.126 N
ATOM      4  H2  UNL     1     -13.565  26.673 -49.884  1.00  0.00     0.197 HD
HETATM    5  C2  UNL     1     -15.367  26.041 -49.267  1.00  0.00     0.683 C
HETATM    6  N3  UNL     1     -14.771  24.892 -48.710  1.00  0.00    -0.226 N
ATOM      7  H3  UNL     1     -14.442  24.935 -47.746  1.00  0.00     0.177 HD
HETATM    8  N4  UNL     1     -16.756  26.310 -49.214  1.00  0.00    -0.221 N
ATOM      9  H4  UNL     1     -17.119  27.213 -49.520  1.00  0.00     0.178 HD
ENDROOT
BRANCH   6  10
HETATM   10  C3  UNL     1     -14.603  23.649 -49.444  1.00  0.00     0.138 C
BRANCH  10  11
HETATM   11  C4  UNL     1     -15.245  22.547 -48.666  1.00  0.00     0.020 C
BRANCH  11  12
HETATM   12  C5  UNL     1     -14.250  21.560 -48.108  1.00  0.00     0.002 C
BRANCH  12  13
HETATM   13  C6  UNL     1     -14.027  20.383 -48.998  1.00  0.00     0.000 C
BRANCH  13  14
HETATM   14  C7  UNL     1     -14.647  19.166 -48.367  1.00  0.00     0.000 C
BRANCH  14  15
HETATM   15  C8  UNL     1     -14.944  19.346 -46.913  1.00  0.00     0.004 C
BRANCH  15  16
HETATM   16  C9  UNL     1     -16.330  18.885 -46.536  1.00  0.00    -0.014 C
HETATM   17  C10 UNL     1     -17.143  19.954 -45.883  1.00  0.00     0.004 C
HETATM   18  C11 UNL     1     -17.709  20.941 -46.895  1.00  0.00     0.000 C
HETATM   19  C12 UNL     1     -18.801  20.205 -47.664  1.00  0.00     0.000 C
HETATM   20  C13 UNL     1     -18.516  18.740 -47.743  1.00  0.00     0.000 C
HETATM   21  C14 UNL     1     -17.035  18.473 -47.815  1.00  0.00     0.004 C
ENDBRANCH  15  16
ENDBRANCH  14  15
ENDBRANCH  13  14
ENDBRANCH  12  13
ENDBRANCH  11  12
ENDBRANCH  10  11
ENDBRANCH   6  10
BRANCH   8  22
HETATM   22  C15 UNL     1     -17.646  25.301 -48.728  1.00  0.00     0.099 C
HETATM   23  C16 UNL     1     -18.236  24.474 -49.877  1.00  0.00     0.026 C
HETATM   24  C17 UNL     1     -19.256  23.646 -49.124  1.00  0.00     0.002 C
HETATM   25  C18 UNL     1     -19.808  24.589 -48.103  1.00  0.00     0.002 C
HETATM   26  C19 UNL     1     -18.892  25.806 -48.075  1.00  0.00     0.026 C
ENDBRANCH   8  22
TORSDOF 8
ENDMDL