MODEL 5
REMARK VINA RESULT: -7.394033403      5.793     10.223
REMARK  9 active torsions:
REMARK  status: ('A' for Active; 'I' for Inactive)
REMARK    1  A    between atoms: C2_3  and  N2_4
REMARK    2  A    between atoms: C2_3  and  C14_19
REMARK    3  A    between atoms: N2_4  and  C3_6
REMARK    4  A    between atoms: C3_6  and  C4_7
REMARK    5  A    between atoms: C3_6  and  C5_10
REMARK    6  A    between atoms: C4_7  and  O1_8
REMARK    7  A    between atoms: C5_10  and  C6_11
REMARK    8  A    between atoms: C6_11  and  C7_12
REMARK    9  A    between atoms: C7_12  and  C8_13
ROOT
HETATM    1  N1  UNL     1     -19.873  20.475 -48.202  1.00  0.00    -0.190 NA
HETATM    2  C1  UNL     1     -19.063  21.238 -47.861  1.00  0.00     0.118 C
HETATM    3  C2  UNL     1     -18.020  22.211 -47.450  1.00  0.00     0.120 C
ENDROOT
BRANCH   3   4
HETATM    4  N2  UNL     1     -18.370  23.536 -47.578  1.00  0.00    -0.374 N
ATOM      5  H2  UNL     1     -17.827  24.195 -47.020  1.00  0.00     0.160 HD
BRANCH   4   6
HETATM    6  C3  UNL     1     -19.359  24.087 -48.364  1.00  0.00     0.106 C
BRANCH   6   7
HETATM    7  C4  UNL     1     -20.102  25.291 -47.763  1.00  0.00     0.189 C
BRANCH   7   8
HETATM    8  O1  UNL     1     -19.442  25.740 -46.618  1.00  0.00    -0.399 OA
ATOM      9  H1  UNL     1     -19.391  25.042 -45.975  1.00  0.00     0.209 HD
ENDBRANCH   7   8
ENDBRANCH   6   7
BRANCH   6  10
HETATM   10  C5  UNL     1     -19.058  24.380 -49.804  1.00  0.00     0.027 C
BRANCH  10  11
HETATM   11  C6  UNL     1     -18.217  25.617 -50.018  1.00  0.00     0.002 C
BRANCH  11  12
HETATM   12  C7  UNL     1     -16.874  25.273 -50.591  1.00  0.00     0.005 C
BRANCH  12  13
HETATM   13  C8  UNL     1     -15.776  26.167 -49.986  1.00  0.00    -0.014 C
HETATM   14  C9  UNL     1     -14.637  26.132 -50.943  1.00  0.00     0.004 C
HETATM   15  C10 UNL     1     -13.745  27.317 -50.942  1.00  0.00     0.000 C
HETATM   16  C11 UNL     1     -14.613  28.553 -51.170  1.00  0.00     0.000 C
HETATM   17  C12 UNL     1     -15.476  28.667 -49.922  1.00  0.00     0.000 C
HETATM   18  C13 UNL     1     -16.387  27.497 -49.752  1.00  0.00     0.004 C
ENDBRANCH  12  13
ENDBRANCH  11  12
ENDBRANCH  10  11
ENDBRANCH   6  10
ENDBRANCH   4   6
ENDBRANCH   3   4
BRANCH   3  19
HETATM   19  C14 UNL     1     -16.684  21.770 -47.888  1.00  0.00     0.001 A
HETATM   20  C15 UNL     1     -16.223  20.518 -47.567  1.00  0.00     0.014 A
HETATM   21  C16 UNL     1     -14.989  20.047 -47.947  1.00  0.00     0.001 A
HETATM   22  C17 UNL     1     -14.170  20.867 -48.685  1.00  0.00     0.000 A
HETATM   23  C18 UNL     1     -14.590  22.134 -49.031  1.00  0.00     0.001 A
HETATM   24  C19 UNL     1     -15.851  22.576 -48.626  1.00  0.00     0.014 A
ENDBRANCH   3  19
TORSDOF 9
ENDMDL