MODEL 3
REMARK VINA RESULT: -8.652233362      1.235      1.726
REMARK  11 active torsions:
REMARK  status: ('A' for Active; 'I' for Inactive)
REMARK    1  A    between atoms: C5_5  and  O1_6
REMARK    2  A    between atoms: C11_13  and  N1_14
REMARK    3  A    between atoms: N1_14  and  C12_17
REMARK    4  A    between atoms: C12_17  and  C13_18
REMARK    5  A    between atoms: C13_18  and  C14_19
REMARK    6  A    between atoms: C14_19  and  C15_20
REMARK    7  A    between atoms: C15_20  and  C16_21
REMARK    8  A    between atoms: C16_21  and  C17_22
REMARK    9  A    between atoms: C17_22  and  C18_23
REMARK   10  A    between atoms: C18_23  and  C19_24
REMARK   11  A    between atoms: C19_24  and  N2_25
ROOT
HETATM    1  C12 UNL     1     -17.531  17.535 -11.981  1.00  0.00     0.232 C
ENDROOT
BRANCH   1   2
HETATM    2  N1  UNL     1     -17.161  17.919 -10.661  1.00  0.00    -0.070 N
ATOM      3  H12 UNL     1     -16.808  17.118 -10.138  1.00  0.00     0.277 HD
ATOM      4  H11 UNL     1     -17.988  18.135 -10.104  1.00  0.00     0.277 HD
BRANCH   2   5
HETATM    5  C11 UNL     1     -16.236  18.992 -10.620  1.00  0.00     0.194 C
HETATM    6  C2  UNL     1     -16.950  20.273 -10.312  1.00  0.00     0.046 C
HETATM    7  C1  UNL     1     -18.001  20.042  -9.232  1.00  0.00     0.017 C
HETATM    8  C3  UNL     1     -16.009  21.301  -9.818  1.00  0.00    -0.043 A
HETATM    9  C4  UNL     1     -16.514  22.564  -9.506  1.00  0.00     0.044 A
HETATM   10  C8  UNL     1     -14.667  21.122  -9.634  1.00  0.00    -0.051 A
HETATM   11  C5  UNL     1     -15.713  23.589  -9.036  1.00  0.00     0.066 A
HETATM   12  C6  UNL     1     -14.361  23.384  -8.859  1.00  0.00     0.037 A
HETATM   13  C7  UNL     1     -13.845  22.120  -9.169  1.00  0.00     0.010 A
HETATM   14  C9  UNL     1     -14.029  19.784  -9.932  1.00  0.00     0.041 C
HETATM   15  C10 UNL     1     -15.134  18.766  -9.598  1.00  0.00     0.038 C
BRANCH  11  16
HETATM   16  O1  UNL     1     -16.218  24.839  -8.728  1.00  0.00    -0.361 OA
ATOM     17  H1  UNL     1     -16.775  24.990  -7.973  1.00  0.00     0.217 HD
ENDBRANCH  11  16
ENDBRANCH   2   5
ENDBRANCH   1   2
BRANCH   1  18
HETATM   18  C13 UNL     1     -16.405  17.959 -12.938  1.00  0.00     0.027 C
BRANCH  18  19
HETATM   19  C14 UNL     1     -16.559  17.112 -14.154  1.00  0.00     0.002 C
BRANCH  19  20
HETATM   20  C15 UNL     1     -15.451  17.277 -15.176  1.00  0.00     0.000 C
BRANCH  20  21
HETATM   21  C16 UNL     1     -14.329  18.113 -14.667  1.00  0.00     0.000 C
BRANCH  21  22
HETATM   22  C17 UNL     1     -13.014  17.441 -14.914  1.00  0.00     0.002 C
BRANCH  22  23
HETATM   23  C18 UNL     1     -12.673  16.520 -13.769  1.00  0.00     0.030 C
BRANCH  23  24
HETATM   24  C19 UNL     1     -12.600  15.116 -14.326  1.00  0.00     0.273 C
BRANCH  24  25
HETATM   25  N2  UNL     1     -11.274  14.717 -14.684  1.00  0.00     0.093 N
HETATM   26  C20 UNL     1     -10.959  14.828 -16.060  1.00  0.00     0.273 C
HETATM   27  C21 UNL     1      -9.456  14.695 -16.092  1.00  0.00     0.037 C
HETATM   28  C22 UNL     1      -9.024  15.177 -14.754  1.00  0.00     0.021 C
HETATM   29  C23 UNL     1      -7.951  14.302 -14.130  1.00  0.00     0.007 C
HETATM   30  C27 UNL     1     -10.238  15.283 -13.879  1.00  0.00     0.227 C
HETATM   31  C24 UNL     1      -7.648  14.912 -12.771  1.00  0.00     0.001 C
HETATM   32  C25 UNL     1      -8.830  14.702 -11.886  1.00  0.00     0.002 C
HETATM   33  C26 UNL     1     -10.125  14.482 -12.608  1.00  0.00     0.036 C
ENDBRANCH  24  25
ENDBRANCH  23  24
ENDBRANCH  22  23
ENDBRANCH  21  22
ENDBRANCH  20  21
ENDBRANCH  19  20
ENDBRANCH  18  19
ENDBRANCH   1  18
TORSDOF 11
ENDMDL