MODEL 1
REMARK VINA RESULT: -8.163621534      0.000      0.000
REMARK  12 active torsions:
REMARK  status: ('A' for Active; 'I' for Inactive)
REMARK    1  A    between atoms: C2_2  and  C3_3
REMARK    2  A    between atoms: C3_3  and  C4_4
REMARK    3  A    between atoms: C4_4  and  C5_5
REMARK    4  A    between atoms: C5_5  and  O1_6
REMARK    5  A    between atoms: O1_6  and  C6_7
REMARK    6  A    between atoms: C13_16  and  C14_17
REMARK    7  A    between atoms: C14_17  and  C16_19
REMARK    8  A    between atoms: C16_19  and  O2_20
REMARK    9  A    between atoms: C16_19  and  C17_22
REMARK   10  A    between atoms: C17_22  and  C18_23
REMARK   11  A    between atoms: C18_23  and  C19_24
REMARK   12  A    between atoms: C19_24  and  O3_27
ROOT
HETATM    1  C6  UNL     1     -16.769  26.992  -4.575  1.00  0.00     0.113 C
HETATM    2  N1  UNL     1     -17.223  28.072  -5.151  1.00  0.00    -0.374 N
ATOM      3  H1  UNL     1     -16.845  28.988  -4.909  1.00  0.00     0.161 HD
HETATM    4  C7  UNL     1     -18.253  27.943  -6.121  1.00  0.00     0.126 C
HETATM    5  C8  UNL     1     -18.068  26.729  -7.004  1.00  0.00     0.008 C
HETATM    6  C9  UNL     1     -16.884  26.917  -7.877  1.00  0.00     0.007 C
HETATM    7  C10 UNL     1     -16.733  25.680  -8.764  1.00  0.00     0.010 C
HETATM    8  C11 UNL     1     -16.432  24.519  -7.918  1.00  0.00    -0.036 C
HETATM    9  C12 UNL     1     -15.072  24.672  -7.251  1.00  0.00     0.016 C
HETATM   10  C13 UNL     1     -16.433  23.150  -8.532  1.00  0.00     0.000 C
HETATM   11  C22 UNL     1     -17.879  22.909  -8.844  1.00  0.00     0.006 C
HETATM   12  C23 UNL     1     -18.621  23.688  -7.765  1.00  0.00     0.006 C
HETATM   13  C24 UNL     1     -17.521  24.295  -6.880  1.00  0.00    -0.001 C
HETATM   14  C25 UNL     1     -17.992  25.489  -6.154  1.00  0.00     0.003 C
HETATM   15  C26 UNL     1     -17.249  25.651  -4.865  1.00  0.00     0.089 C
ENDROOT
BRANCH  10  16
HETATM   16  C14 UNL     1     -15.471  22.860  -9.613  1.00  0.00     0.015 C
HETATM   17  C15 UNL     1     -15.754  21.656 -10.465  1.00  0.00     0.013 C
BRANCH  16  18
HETATM   18  C16 UNL     1     -14.076  22.820  -9.036  1.00  0.00     0.122 C
BRANCH  18  19
HETATM   19  O2  UNL     1     -13.563  21.537  -8.939  1.00  0.00    -0.395 OA
ATOM     20  H2  UNL     1     -14.122  20.948  -8.447  1.00  0.00     0.210 HD
ENDBRANCH  18  19
BRANCH  18  21
HETATM   21  C17 UNL     1     -13.089  23.712  -9.699  1.00  0.00     0.035 C
BRANCH  21  22
HETATM   22  C18 UNL     1     -11.861  22.833  -9.988  1.00  0.00     0.039 C
BRANCH  22  23
HETATM   23  C19 UNL     1     -10.659  23.673 -10.316  1.00  0.00     0.051 C
HETATM   24  C20 UNL     1      -9.359  22.932  -9.983  1.00  0.00     0.045 C
HETATM   25  C21 UNL     1     -10.697  24.887  -9.410  1.00  0.00     0.045 C
BRANCH  23  26
HETATM   26  O3  UNL     1     -10.649  24.055 -11.659  1.00  0.00    -0.391 OA
ATOM     27  H3  UNL     1      -9.873  24.558 -11.875  1.00  0.00     0.210 HD
ENDBRANCH  23  26
ENDBRANCH  22  23
ENDBRANCH  21  22
ENDBRANCH  18  21
ENDBRANCH  16  18
ENDBRANCH  10  16
BRANCH   1  28
HETATM   28  O1  UNL     1     -15.784  27.232  -3.661  1.00  0.00    -0.339 OA
BRANCH  28  29
HETATM   29  C5  UNL     1     -15.116  26.468  -2.761  1.00  0.00     0.177 C
BRANCH  29  30
HETATM   30  C4  UNL     1     -13.993  25.658  -3.298  1.00  0.00     0.027 C
BRANCH  30  31
HETATM   31  C3  UNL     1     -13.411  24.630  -2.412  1.00  0.00     0.002 C
BRANCH  31  32
HETATM   32  C2  UNL     1     -13.927  24.680  -0.976  1.00  0.00    -0.004 C
HETATM   33  C1  UNL     1     -12.745  24.710  -0.015  1.00  0.00     0.005 C
ENDBRANCH  31  32
ENDBRANCH  30  31
ENDBRANCH  29  30
ENDBRANCH  28  29
ENDBRANCH   1  28
TORSDOF 12
ENDMDL