MODEL 1
REMARK VINA RESULT: -8.580297308      0.000      0.000
REMARK  12 active torsions:
REMARK  status: ('A' for Active; 'I' for Inactive)
REMARK    1  A    between atoms: C2_2  and  C3_3
REMARK    2  A    between atoms: C3_3  and  C5_5
REMARK    3  A    between atoms: C8_9  and  C9_10
REMARK    4  A    between atoms: C9_10  and  C10_11
REMARK    5  A    between atoms: N1_13  and  N2_15
REMARK    6  A    between atoms: N2_15  and  C12_17
REMARK    7  A    between atoms: C12_17  and  N3_19
REMARK    8  A    between atoms: N3_19  and  C13_21
REMARK    9  A    between atoms: C13_21  and  C14_22
REMARK   10  A    between atoms: C14_22  and  C15_23
REMARK   11  A    between atoms: C15_23  and  C16_24
REMARK   12  A    between atoms: C16_24  and  C17_25
ROOT
HETATM    1  N2  UNL     1     -16.396  17.859 -12.787  1.00  0.00    -0.277 N
ATOM      2  H2  UNL     1     -17.355  17.777 -12.451  1.00  0.00     0.189 HD
ENDROOT
BRANCH   1   3
HETATM    3  N1  UNL     1     -15.385  17.959 -11.852  1.00  0.00    -0.307 N
HETATM    4  C10 UNL     1     -15.267  18.935 -10.983  1.00  0.00     0.000 C
HETATM    5  C11 UNL     1     -14.126  18.823 -10.067  1.00  0.00     0.065 C
ATOM      6  H1  UNL     1     -14.680  17.222 -11.837  1.00  0.00     0.186 HD
BRANCH   4   7
HETATM    7  C9  UNL     1     -16.243  19.997 -10.969  1.00  0.00     0.059 C
BRANCH   7   8
HETATM    8  C8  UNL     1     -17.033  20.252  -9.717  1.00  0.00     0.005 C
HETATM    9  C5  UNL     1     -17.804  21.461  -9.636  1.00  0.00     0.004 C
HETATM   10  C6  UNL     1     -19.259  21.274  -9.344  1.00  0.00     0.079 C
HETATM   11  S1  UNL     1     -19.526  19.520  -9.718  1.00  0.00    -0.168 SA
HETATM   12  C7  UNL     1     -17.814  19.011  -9.414  1.00  0.00     0.079 C
BRANCH   9  13
HETATM   13  C3  UNL     1     -17.316  22.438  -8.534  1.00  0.00    -0.014 C
HETATM   14  C4  UNL     1     -16.131  23.237  -8.967  1.00  0.00     0.010 C
BRANCH  13  15
HETATM   15  C2  UNL     1     -18.441  23.268  -7.999  1.00  0.00     0.000 C
HETATM   16  C1  UNL     1     -18.122  24.728  -8.242  1.00  0.00     0.005 C
ENDBRANCH  13  15
ENDBRANCH   9  13
ENDBRANCH   7   8
ENDBRANCH   4   7
ENDBRANCH   1   3
BRANCH   1  17
HETATM   17  C12 UNL     1     -16.175  17.864 -14.194  1.00  0.00     0.186 C
HETATM   18  S2  UNL     1     -17.314  17.178 -15.123  1.00  0.00    -0.040 SA
BRANCH  17  19
HETATM   19  N3  UNL     1     -15.036  18.444 -14.778  1.00  0.00    -0.366 N
ATOM     20  H3  UNL     1     -15.010  19.463 -14.804  1.00  0.00     0.161 HD
BRANCH  19  21
HETATM   21  C13 UNL     1     -13.907  17.766 -15.339  1.00  0.00     0.122 C
BRANCH  21  22
HETATM   22  C14 UNL     1     -13.036  17.213 -14.239  1.00  0.00     0.020 C
BRANCH  22  23
HETATM   23  C15 UNL     1     -13.206  15.706 -14.207  1.00  0.00     0.006 C
BRANCH  23  24
HETATM   24  C16 UNL     1     -12.021  15.102 -13.484  1.00  0.00     0.034 C
BRANCH  24  25
HETATM   25  C17 UNL     1     -10.847  14.911 -14.382  1.00  0.00    -0.084 C
HETATM   26  C18 UNL     1      -9.646  14.881 -13.854  1.00  0.00    -0.024 C
HETATM   27  C19 UNL     1      -8.433  14.696 -14.668  1.00  0.00     0.027 C
HETATM   28  C20 UNL     1      -8.674  15.286 -16.040  1.00  0.00     0.004 C
HETATM   29  C21 UNL     1      -9.855  14.529 -16.627  1.00  0.00     0.005 C
HETATM   30  C22 UNL     1     -11.111  14.761 -15.843  1.00  0.00     0.034 C
ENDBRANCH  24  25
ENDBRANCH  23  24
ENDBRANCH  22  23
ENDBRANCH  21  22
ENDBRANCH  19  21
ENDBRANCH  17  19
ENDBRANCH   1  17
TORSDOF 12
ENDMDL