MODEL 1
REMARK VINA RESULT: -7.662105378      0.000      0.000
REMARK  12 active torsions:
REMARK  status: ('A' for Active; 'I' for Inactive)
REMARK    1  A    between atoms: C2_2  and  C3_3
REMARK    2  A    between atoms: C3_3  and  C4_4
REMARK    3  A    between atoms: C4_4  and  C5_5
REMARK    4  A    between atoms: C5_5  and  C6_6
REMARK    5  A    between atoms: C6_6  and  C7_7
REMARK    6  A    between atoms: C7_7  and  C8_8
REMARK    7  A    between atoms: C8_8  and  C9_9
REMARK    8  A    between atoms: C9_9  and  C10_10
REMARK    9  A    between atoms: C10_10  and  C12_12
REMARK   10  A    between atoms: C16_16  and  C17_17
REMARK   11  A    between atoms: C17_17  and  O1_18
REMARK   12  A    between atoms: C22_24  and  O2_25
ROOT
HETATM    1  C12 UNL     1     -14.140  21.746  -9.810  1.00  0.00     0.126 C
HETATM    2  C13 UNL     1     -15.568  21.768 -10.258  1.00  0.00     0.033 C
HETATM    3  C14 UNL     1     -16.374  22.402  -9.117  1.00  0.00     0.011 C
HETATM    4  C15 UNL     1     -15.908  23.849  -8.900  1.00  0.00     0.031 C
HETATM    5  C16 UNL     1     -14.441  23.832  -8.805  1.00  0.00     0.087 C
HETATM    6  C18 UNL     1     -13.834  24.556  -7.617  1.00  0.00     0.041 C
HETATM    7  C19 UNL     1     -14.784  24.679  -6.453  1.00  0.00     0.008 C
HETATM    8  C20 UNL     1     -15.948  25.461  -6.991  1.00  0.00    -0.003 C
HETATM    9  C21 UNL     1     -16.746  26.164  -5.965  1.00  0.00     0.037 C
HETATM   10  C22 UNL     1     -17.684  27.120  -6.688  1.00  0.00     0.118 C
HETATM   11  C23 UNL     1     -17.687  26.859  -8.180  1.00  0.00     0.032 C
HETATM   12  C24 UNL     1     -17.831  25.405  -8.512  1.00  0.00     0.012 C
HETATM   13  C25 UNL     1     -16.721  24.548  -7.886  1.00  0.00    -0.034 C
HETATM   14  C26 UNL     1     -17.459  23.499  -7.056  1.00  0.00     0.016 C
HETATM   15  O3  UNL     1     -13.867  22.558  -8.749  1.00  0.00    -0.372 OA
ENDROOT
BRANCH   1  16
HETATM   16  C10 UNL     1     -13.678  20.356  -9.412  1.00  0.00     0.011 C
HETATM   17  C11 UNL     1     -14.436  19.265 -10.119  1.00  0.00     0.012 C
BRANCH  16  18
HETATM   18  C9  UNL     1     -12.200  20.173  -9.456  1.00  0.00     0.007 C
BRANCH  18  19
HETATM   19  C8  UNL     1     -11.913  18.690  -9.413  1.00  0.00     0.000 C
BRANCH  19  20
HETATM   20  C7  UNL     1     -10.523  18.376  -8.912  1.00  0.00     0.000 C
BRANCH  20  21
HETATM   21  C6  UNL     1      -9.456  18.967  -9.816  1.00  0.00     0.000 C
BRANCH  21  22
HETATM   22  C5  UNL     1      -8.401  17.912 -10.172  1.00  0.00     0.000 C
BRANCH  22  23
HETATM   23  C4  UNL     1      -9.058  16.784 -10.863  1.00  0.00     0.000 C
BRANCH  23  24
HETATM   24  C3  UNL     1      -8.248  15.595 -11.233  1.00  0.00    -0.000 C
BRANCH  24  25
HETATM   25  C2  UNL     1      -8.930  14.500 -11.975  1.00  0.00    -0.005 C
HETATM   26  C1  UNL     1     -10.072  14.821 -12.844  1.00  0.00     0.005 C
ENDBRANCH  24  25
ENDBRANCH  23  24
ENDBRANCH  22  23
ENDBRANCH  21  22
ENDBRANCH  20  21
ENDBRANCH  19  20
ENDBRANCH  18  19
ENDBRANCH  16  18
ENDBRANCH   1  16
BRANCH   5  27
HETATM   27  C17 UNL     1     -13.766  24.492 -10.023  1.00  0.00     0.202 C
BRANCH  27  28
HETATM   28  O1  UNL     1     -14.233  25.785 -10.210  1.00  0.00    -0.398 OA
ATOM     29  H1  UNL     1     -13.533  26.362 -10.492  1.00  0.00     0.209 HD
ENDBRANCH  27  28
ENDBRANCH   5  27
BRANCH  10  30
HETATM   30  O2  UNL     1     -17.310  28.453  -6.512  1.00  0.00    -0.396 OA
ATOM     31  H2  UNL     1     -17.863  28.898  -5.880  1.00  0.00     0.210 HD
ENDBRANCH  10  30
TORSDOF 12
ENDMDL