MODEL 5
REMARK VINA RESULT: -7.325980078      2.177      4.046
REMARK  12 active torsions:
REMARK  status: ('A' for Active; 'I' for Inactive)
REMARK    1  A    between atoms: C2_2  and  C3_3
REMARK    2  A    between atoms: C3_3  and  C4_4
REMARK    3  A    between atoms: C4_4  and  C5_5
REMARK    4  A    between atoms: C5_5  and  C6_6
REMARK    5  A    between atoms: C6_6  and  C7_7
REMARK    6  A    between atoms: C7_7  and  C8_8
REMARK    7  A    between atoms: C8_8  and  C9_9
REMARK    8  A    between atoms: C9_9  and  C10_10
REMARK    9  A    between atoms: C10_10  and  C11_11
REMARK   10  A    between atoms: C11_11  and  C12_12
REMARK   11  A    between atoms: C21_21  and  O1_22
REMARK   12  A    between atoms: C24_26  and  O2_27
ROOT
HETATM    1  C12 UNL     1     -14.420  23.718  -9.321  1.00  0.00    -0.014 C
HETATM    2  C13 UNL     1     -13.278  24.367  -8.664  1.00  0.00     0.009 C
HETATM    3  C14 UNL     1     -13.782  25.761  -8.326  1.00  0.00    -0.010 C
HETATM    4  C15 UNL     1     -13.514  26.130  -6.902  1.00  0.00     0.005 C
HETATM    5  C16 UNL     1     -14.613  25.917  -5.946  1.00  0.00     0.006 C
HETATM    6  C17 UNL     1     -15.988  26.109  -6.441  1.00  0.00    -0.003 C
HETATM    7  C18 UNL     1     -15.921  26.737  -7.816  1.00  0.00     0.024 C
HETATM    8  C19 UNL     1     -15.209  25.833  -8.743  1.00  0.00    -0.003 C
HETATM    9  C20 UNL     1     -15.675  24.433  -8.798  1.00  0.00     0.010 C
HETATM   10  C21 UNL     1     -17.345  27.013  -8.088  1.00  0.00     0.134 C
HETATM   11  C22 UNL     1     -17.859  27.504  -6.738  1.00  0.00     0.012 C
HETATM   12  C23 UNL     1     -19.107  26.749  -6.386  1.00  0.00     0.021 C
HETATM   13  C24 UNL     1     -18.038  28.998  -6.712  1.00  0.00     0.129 C
HETATM   14  C25 UNL     1     -16.828  29.582  -6.045  1.00  0.00     0.033 C
HETATM   15  C26 UNL     1     -16.007  28.443  -5.507  1.00  0.00     0.008 C
HETATM   16  C27 UNL     1     -16.779  27.188  -5.723  1.00  0.00     0.003 C
ENDROOT
BRANCH   1  17
HETATM   17  C11 UNL     1     -14.566  22.261  -9.340  1.00  0.00     0.005 C
BRANCH  17  18
HETATM   18  C10 UNL     1     -15.402  21.565 -10.317  1.00  0.00     0.000 C
BRANCH  18  19
HETATM   19  C9  UNL     1     -15.505  20.096 -10.333  1.00  0.00     0.000 C
BRANCH  19  20
HETATM   20  C8  UNL     1     -16.186  19.516 -11.559  1.00  0.00     0.000 C
BRANCH  20  21
HETATM   21  C7  UNL     1     -17.226  18.502 -11.140  1.00  0.00     0.000 C
BRANCH  21  22
HETATM   22  C6  UNL     1     -17.492  18.544  -9.658  1.00  0.00     0.000 C
BRANCH  22  23
HETATM   23  C5  UNL     1     -18.932  18.774  -9.333  1.00  0.00     0.000 C
BRANCH  23  24
HETATM   24  C4  UNL     1     -19.133  19.881  -8.333  1.00  0.00     0.000 C
BRANCH  24  25
HETATM   25  C3  UNL     1     -18.833  21.242  -8.933  1.00  0.00    -0.000 C
BRANCH  25  26
HETATM   26  C2  UNL     1     -18.151  22.122  -7.919  1.00  0.00    -0.005 C
HETATM   27  C1  UNL     1     -18.757  23.517  -7.905  1.00  0.00     0.005 C
ENDBRANCH  25  26
ENDBRANCH  24  25
ENDBRANCH  23  24
ENDBRANCH  22  23
ENDBRANCH  21  22
ENDBRANCH  20  21
ENDBRANCH  19  20
ENDBRANCH  18  19
ENDBRANCH  17  18
ENDBRANCH   1  17
BRANCH  10  28
HETATM   28  O1  UNL     1     -17.487  28.058  -9.014  1.00  0.00    -0.394 OA
ATOM     29  H1  UNL     1     -18.389  28.354  -9.059  1.00  0.00     0.210 HD
ENDBRANCH  10  28
BRANCH  13  30
HETATM   30  O2  UNL     1     -19.207  29.300  -5.976  1.00  0.00    -0.395 OA
ATOM     31  H2  UNL     1     -19.912  29.482  -6.586  1.00  0.00     0.210 HD
ENDBRANCH  13  30
TORSDOF 12
ENDMDL