MODEL 4
REMARK VINA RESULT: -7.899839860      3.930      7.351
REMARK  11 active torsions:
REMARK  status: ('A' for Active; 'I' for Inactive)
REMARK    1  A    between atoms: C2_2  and  C4_4
REMARK    2  A    between atoms: C4_4  and  C5_5
REMARK    3  A    between atoms: C5_5  and  C6_6
REMARK    4  A    between atoms: C6_6  and  C7_7
REMARK    5  A    between atoms: C7_7  and  C8_8
REMARK    6  A    between atoms: C7_7  and  C13_15
REMARK    7  A    between atoms: C8_8  and  C9_9
REMARK    8  A    between atoms: C9_9  and  C10_10
REMARK    9  A    between atoms: C10_10  and  C11_11
REMARK   10  A    between atoms: C11_11  and  C12_12
REMARK   11  A    between atoms: C22_24  and  O3_25
ROOT
HETATM    1  C13 UNL     1     -16.818  22.364  -9.676  1.00  0.00     0.126 C
HETATM    2  C14 UNL     1     -17.648  22.320  -8.424  1.00  0.00     0.033 C
HETATM    3  C15 UNL     1     -18.165  23.633  -7.944  1.00  0.00     0.010 C
HETATM    4  C16 UNL     1     -17.452  24.752  -8.559  1.00  0.00     0.019 C
HETATM    5  C17 UNL     1     -16.045  24.391  -8.849  1.00  0.00     0.126 C
HETATM    6  C18 UNL     1     -15.182  24.203  -7.649  1.00  0.00     0.033 C
HETATM    7  C19 UNL     1     -15.630  24.956  -6.434  1.00  0.00     0.014 C
HETATM    8  C20 UNL     1     -16.460  26.167  -6.714  1.00  0.00    -0.014 C
HETATM    9  C21 UNL     1     -15.501  27.345  -6.963  1.00  0.00     0.018 C
HETATM   10  C22 UNL     1     -17.207  26.531  -5.449  1.00  0.00     0.126 C
HETATM   11  C23 UNL     1     -18.520  27.083  -5.886  1.00  0.00     0.033 C
HETATM   12  C24 UNL     1     -18.791  26.421  -7.221  1.00  0.00     0.008 C
HETATM   13  C25 UNL     1     -17.472  26.050  -7.798  1.00  0.00     0.003 C
HETATM   14  O4  UNL     1     -15.860  23.317  -9.674  1.00  0.00    -0.380 OA
ENDROOT
BRANCH   1  15
HETATM   15  C7  UNL     1     -16.176  21.037 -10.000  1.00  0.00     0.015 C
BRANCH  15  16
HETATM   16  C6  UNL     1     -16.899  19.827  -9.516  1.00  0.00     0.007 C
BRANCH  16  17
HETATM   17  C5  UNL     1     -17.721  19.072 -10.493  1.00  0.00     0.001 C
BRANCH  17  18
HETATM   18  C4  UNL     1     -16.957  17.870 -10.991  1.00  0.00     0.004 C
BRANCH  18  19
HETATM   19  C2  UNL     1     -16.544  18.157 -12.423  1.00  0.00    -0.023 C
HETATM   20  C1  UNL     1     -17.320  17.259 -13.350  1.00  0.00     0.009 C
HETATM   21  C3  UNL     1     -15.066  17.874 -12.549  1.00  0.00     0.009 C
ENDBRANCH  18  19
ENDBRANCH  17  18
ENDBRANCH  16  17
ENDBRANCH  15  16
BRANCH  15  22
HETATM   22  C8  UNL     1     -14.781  20.949  -9.379  1.00  0.00     0.007 C
BRANCH  22  23
HETATM   23  C9  UNL     1     -14.042  19.699  -9.708  1.00  0.00     0.001 C
BRANCH  23  24
HETATM   24  C10 UNL     1     -12.568  19.935  -9.426  1.00  0.00     0.010 C
BRANCH  24  25
HETATM   25  C11 UNL     1     -11.813  18.638  -9.725  1.00  0.00     0.113 C
BRANCH  25  26
HETATM   26  C12 UNL     1     -10.550  18.688  -8.953  1.00  0.00     0.172 C
HETATM   27  O1  UNL     1      -9.463  18.983  -9.477  1.00  0.00    -0.648 OA
HETATM   28  O2  UNL     1     -10.558  18.399  -7.598  1.00  0.00    -0.648 OA
ENDBRANCH  25  26
ENDBRANCH  24  25
ENDBRANCH  23  24
ENDBRANCH  22  23
ENDBRANCH  15  22
ENDBRANCH   1  15
BRANCH  10  29
HETATM   29  O3  UNL     1     -17.441  25.416  -4.647  1.00  0.00    -0.395 OA
ATOM     30  H3  UNL     1     -18.329  25.093  -4.740  1.00  0.00     0.210 HD
ENDBRANCH  10  29
TORSDOF 11
ENDMDL