MODEL 3
REMARK VINA RESULT: -7.974115693      1.767      2.864
REMARK  13 active torsions:
REMARK  status: ('A' for Active; 'I' for Inactive)
REMARK    1  A    between atoms: C2_2  and  C3_3
REMARK    2  A    between atoms: C2_2  and  C21_25
REMARK    3  A    between atoms: C3_3  and  C4_4
REMARK    4  A    between atoms: C4_4  and  C5_5
REMARK    5  A    between atoms: C5_5  and  C7_7
REMARK    6  A    between atoms: C11_11  and  C12_12
REMARK    7  A    between atoms: C12_12  and  C13_13
REMARK    8  A    between atoms: C13_13  and  C14_14
REMARK    9  A    between atoms: C14_14  and  O1_17
REMARK   10  A    between atoms: C17_19  and  O2_20
REMARK   11  A    between atoms: C21_25  and  C22_26
REMARK   12  A    between atoms: C22_26  and  C23_27
REMARK   13  A    between atoms: C23_27  and  C26_30
ROOT
HETATM    1  C7  UNL     1     -14.385  17.649 -13.324  1.00  0.00    -0.002 C
HETATM    2  C8  UNL     1     -13.954  17.253 -11.927  1.00  0.00     0.006 C
HETATM    3  C9  UNL     1     -12.520  16.757 -12.043  1.00  0.00     0.006 C
HETATM    4  C10 UNL     1     -12.102  17.141 -13.445  1.00  0.00     0.001 C
HETATM    5  C11 UNL     1     -11.206  16.083 -13.998  1.00  0.00     0.019 C
HETATM    6  C17 UNL     1     -12.105  14.902 -14.173  1.00  0.00     0.123 C
HETATM    7  C18 UNL     1     -13.539  15.450 -14.192  1.00  0.00     0.042 C
HETATM    8  C19 UNL     1     -13.426  16.932 -14.194  1.00  0.00    -0.034 C
HETATM    9  C20 UNL     1     -13.269  17.529 -15.566  1.00  0.00     0.016 C
ENDROOT
BRANCH   1  10
HETATM   10  C5  UNL     1     -15.817  17.286 -13.503  1.00  0.00    -0.014 C
HETATM   11  C6  UNL     1     -16.382  17.551 -14.848  1.00  0.00     0.010 C
BRANCH  10  12
HETATM   12  C4  UNL     1     -16.629  18.004 -12.422  1.00  0.00     0.005 C
BRANCH  12  13
HETATM   13  C3  UNL     1     -16.162  19.396 -12.213  1.00  0.00     0.008 C
BRANCH  13  14
HETATM   14  C2  UNL     1     -16.137  19.824 -10.724  1.00  0.00     0.004 C
HETATM   15  C1  UNL     1     -14.814  20.432 -10.408  1.00  0.00     0.014 C
BRANCH  14  16
HETATM   16  C21 UNL     1     -16.691  18.777  -9.852  1.00  0.00    -0.025 C
BRANCH  16  17
HETATM   17  C22 UNL     1     -18.082  18.724  -9.437  1.00  0.00    -0.015 C
BRANCH  17  18
HETATM   18  C23 UNL     1     -18.842  19.805  -8.819  1.00  0.00     0.023 C
HETATM   19  C24 UNL     1     -19.431  19.512  -7.451  1.00  0.00     0.027 C
HETATM   20  C25 UNL     1     -20.175  19.934  -9.690  1.00  0.00     0.027 C
BRANCH  18  21
HETATM   21  C26 UNL     1     -18.313  21.177  -8.888  1.00  0.00     0.243 C
HETATM   22  O3  UNL     1     -18.914  22.045  -9.513  1.00  0.00    -0.306 OA
ENDBRANCH  18  21
ENDBRANCH  17  18
ENDBRANCH  16  17
ENDBRANCH  14  16
ENDBRANCH  13  14
ENDBRANCH  12  13
ENDBRANCH  10  12
ENDBRANCH   1  10
BRANCH   5  23
HETATM   23  C12 UNL     1     -10.092  15.775 -13.010  1.00  0.00     0.010 C
BRANCH  23  24
HETATM   24  C13 UNL     1     -10.046  14.277 -12.753  1.00  0.00     0.037 C
BRANCH  24  25
HETATM   25  C14 UNL     1      -8.628  13.973 -12.288  1.00  0.00     0.051 C
HETATM   26  C15 UNL     1      -7.612  14.387 -13.319  1.00  0.00     0.045 C
HETATM   27  C16 UNL     1      -8.483  12.521 -11.956  1.00  0.00     0.045 C
BRANCH  25  28
HETATM   28  O1  UNL     1      -8.418  14.720 -11.134  1.00  0.00    -0.391 OA
ATOM     29  H1  UNL     1      -8.574  14.137 -10.400  1.00  0.00     0.210 HD
ENDBRANCH  25  28
ENDBRANCH  24  25
ENDBRANCH  23  24
ENDBRANCH   5  23
BRANCH   6  30
HETATM   30  O2  UNL     1     -11.794  14.286 -15.383  1.00  0.00    -0.395 OA
ATOM     31  H2  UNL     1     -11.290  13.501 -15.201  1.00  0.00     0.210 HD
ENDBRANCH   6  30
TORSDOF 13
ENDMDL