MODEL 1
REMARK VINA RESULT: -7.700270235      0.000      0.000
REMARK  13 active torsions:
REMARK  status: ('A' for Active; 'I' for Inactive)
REMARK    1  A    between atoms: C2_2  and  C3_3
REMARK    2  A    between atoms: C3_3  and  C4_4
REMARK    3  A    between atoms: C7_7  and  C9_9
REMARK    4  A    between atoms: C9_9  and  O1_10
REMARK    5  A    between atoms: C9_9  and  N1_12
REMARK    6  A    between atoms: N1_12  and  C10_14
REMARK    7  A    between atoms: C10_14  and  C11_15
REMARK    8  A    between atoms: C10_14  and  C12_19
REMARK    9  A    between atoms: C11_15  and  N2_16
REMARK   10  A    between atoms: C12_19  and  C13_20
REMARK   11  A    between atoms: C13_20  and  C14_21
REMARK   12  A    between atoms: C14_21  and  C15_22
REMARK   13  A    between atoms: C16_23  and  C17_24
ROOT
HETATM    1  C10 UNL     1     -18.221  22.727  -8.996  1.00  0.00     0.172 C
ENDROOT
BRANCH   1   2
HETATM    2  N1  UNL     1     -18.471  23.622  -7.808  1.00  0.00    -0.358 N
ATOM      3  H1  UNL     1     -18.718  23.166  -6.929  1.00  0.00     0.162 HD
BRANCH   2   4
HETATM    4  C9  UNL     1     -18.397  25.005  -7.800  1.00  0.00     0.121 C
BRANCH   4   5
HETATM    5  C7  UNL     1     -18.251  25.923  -6.651  1.00  0.00     0.029 A
HETATM    6  C3  UNL     1     -16.978  26.246  -5.984  1.00  0.00    -0.025 A
HETATM    7  C6  UNL     1     -17.944  25.235  -5.362  1.00  0.00     0.029 A
HETATM    8  C8  UNL     1     -19.134  27.155  -6.798  1.00  0.00     0.025 C
BRANCH   6   9
HETATM    9  C2  UNL     1     -16.915  27.483  -5.093  1.00  0.00     0.006 C
HETATM   10  C1  UNL     1     -15.839  27.477  -4.077  1.00  0.00     0.006 C
ENDBRANCH   6   9
BRANCH   6  11
HETATM   11  C4  UNL     1     -15.657  25.834  -6.529  1.00  0.00     0.006 C
HETATM   12  C5  UNL     1     -15.196  26.747  -7.643  1.00  0.00     0.006 C
ENDBRANCH   6  11
ENDBRANCH   4   5
BRANCH   4  13
HETATM   13  O1  UNL     1     -18.449  25.612  -8.951  1.00  0.00    -0.349 OA
ATOM     14  H1  UNL     1     -18.002  25.147  -9.648  1.00  0.00     0.219 HD
ENDBRANCH   4  13
ENDBRANCH   2   4
ENDBRANCH   1   2
BRANCH   1  15
HETATM   15  C11 UNL     1     -16.829  22.701  -9.373  1.00  0.00    -0.052 C
BRANCH  15  16
HETATM   16  N2  UNL     1     -15.678  22.731  -9.709  1.00  0.00    -0.368 N
ATOM     17  H22 UNL     1     -16.249  23.338 -10.296  1.00  0.00     0.165 HD
ATOM     18  H21 UNL     1     -14.689  22.725  -9.960  1.00  0.00     0.165 HD
ENDBRANCH  15  16
ENDBRANCH   1  15
BRANCH   1  19
HETATM   19  C12 UNL     1     -18.719  21.412  -8.602  1.00  0.00     0.039 C
BRANCH  19  20
HETATM   20  C13 UNL     1     -19.727  20.572  -9.255  1.00  0.00     0.007 C
BRANCH  20  21
HETATM   21  C14 UNL     1     -19.132  19.437 -10.082  1.00  0.00     0.027 C
BRANCH  21  22
HETATM   22  C15 UNL     1     -17.754  19.056  -9.779  1.00  0.00    -0.029 C
HETATM   23  C16 UNL     1     -16.861  18.149 -10.407  1.00  0.00    -0.016 C
BRANCH  23  24
HETATM   24  C17 UNL     1     -16.252  18.289 -11.735  1.00  0.00     0.012 C
HETATM   25  C18 UNL     1     -15.719  19.697 -11.969  1.00  0.00     0.026 C
HETATM   26  C19 UNL     1     -14.869  17.490 -11.555  1.00  0.00     0.024 C
HETATM   27  C20 UNL     1     -13.983  17.704 -12.726  1.00  0.00    -0.009 C
HETATM   28  C21 UNL     1     -12.740  16.844 -12.464  1.00  0.00     0.011 C
HETATM   29  C22 UNL     1     -14.576  17.327 -14.060  1.00  0.00    -0.040 C
HETATM   30  C23 UNL     1     -14.395  15.840 -14.338  1.00  0.00     0.015 C
HETATM   31  C24 UNL     1     -13.751  18.081 -15.119  1.00  0.00     0.015 C
HETATM   32  C25 UNL     1     -15.985  17.734 -14.184  1.00  0.00     0.062 C
HETATM   33  C26 UNL     1     -16.807  17.655 -12.914  1.00  0.00    -0.007 C
HETATM   34  N3  UNL     1     -17.887  17.001 -13.035  1.00  0.00    -0.405 N
ATOM     35  H32 UNL     1     -18.440  16.947 -12.180  1.00  0.00     0.155 HD
ATOM     36  H31 UNL     1     -18.277  16.555 -13.864  1.00  0.00     0.155 HD
ENDBRANCH  23  24
ENDBRANCH  21  22
ENDBRANCH  20  21
ENDBRANCH  19  20
ENDBRANCH   1  19
TORSDOF 13
ENDMDL