MODEL 3
REMARK VINA RESULT: -7.523568649      2.478      8.180
REMARK  12 active torsions:
REMARK  status: ('A' for Active; 'I' for Inactive)
REMARK    1  A    between atoms: C2_2  and  C3_3
REMARK    2  A    between atoms: C3_3  and  C4_4
REMARK    3  A    between atoms: C4_4  and  C5_5
REMARK    4  A    between atoms: C5_5  and  O1_6
REMARK    5  A    between atoms: O1_6  and  C6_7
REMARK    6  A    between atoms: C9_10  and  C10_11
REMARK    7  A    between atoms: C10_11  and  C12_13
REMARK    8  A    between atoms: C12_13  and  C13_14
REMARK    9  A    between atoms: C13_14  and  C14_15
REMARK   10  A    between atoms: C14_15  and  C15_16
REMARK   11  A    between atoms: C15_16  and  O2_19
REMARK   12  A    between atoms: C24_27  and  O3_29
ROOT
HETATM    1  C6  UNL     1     -14.768  19.039 -10.640  1.00  0.00     0.087 C
HETATM    2  C7  UNL     1     -15.102  20.452 -10.410  1.00  0.00     0.008 C
HETATM    3  C8  UNL     1     -16.197  21.020  -9.922  1.00  0.00    -0.023 C
HETATM    4  C9  UNL     1     -17.410  20.307  -9.470  1.00  0.00     0.012 C
HETATM    5  C18 UNL     1     -17.726  19.235 -10.450  1.00  0.00     0.014 C
HETATM    6  C19 UNL     1     -16.685  18.185 -10.603  1.00  0.00     0.001 C
HETATM    7  C20 UNL     1     -15.575  18.202  -9.623  1.00  0.00     0.048 C
HETATM    8  C21 UNL     1     -15.673  18.383 -11.700  1.00  0.00     0.001 C
HETATM    9  C22 UNL     1     -16.064  19.272 -12.824  1.00  0.00     0.016 C
HETATM   10  C23 UNL     1     -15.100  18.856 -13.942  1.00  0.00     0.038 C
HETATM   11  C24 UNL     1     -14.883  17.374 -13.758  1.00  0.00     0.055 C
HETATM   12  C25 UNL     1     -15.893  16.540 -14.484  1.00  0.00     0.045 C
HETATM   13  C26 UNL     1     -15.065  17.139 -12.271  1.00  0.00     0.050 C
ENDROOT
BRANCH   4  14
HETATM   14  C10 UNL     1     -18.585  21.256  -9.376  1.00  0.00    -0.011 C
HETATM   15  C11 UNL     1     -19.838  20.371  -9.315  1.00  0.00     0.010 C
BRANCH  14  16
HETATM   16  C12 UNL     1     -18.591  22.094  -8.135  1.00  0.00     0.005 C
BRANCH  16  17
HETATM   17  C13 UNL     1     -18.298  23.529  -8.596  1.00  0.00     0.003 C
BRANCH  17  18
HETATM   18  C14 UNL     1     -18.623  24.518  -7.499  1.00  0.00     0.037 C
BRANCH  18  19
HETATM   19  C15 UNL     1     -17.677  25.688  -7.669  1.00  0.00     0.051 C
HETATM   20  C16 UNL     1     -17.316  26.229  -6.284  1.00  0.00     0.045 C
HETATM   21  C17 UNL     1     -16.377  25.224  -8.297  1.00  0.00     0.045 C
BRANCH  19  22
HETATM   22  O2  UNL     1     -18.234  26.704  -8.437  1.00  0.00    -0.391 OA
ATOM     23  H2  UNL     1     -17.726  27.506  -8.391  1.00  0.00     0.210 HD
ENDBRANCH  19  22
ENDBRANCH  18  19
ENDBRANCH  17  18
ENDBRANCH  16  17
ENDBRANCH  14  16
ENDBRANCH   4  14
BRANCH   1  24
HETATM   24  O1  UNL     1     -13.475  18.647 -10.688  1.00  0.00    -0.375 OA
BRANCH  24  25
HETATM   25  C5  UNL     1     -12.734  18.564  -9.565  1.00  0.00     0.169 C
BRANCH  25  26
HETATM   26  C4  UNL     1     -11.533  19.458  -9.442  1.00  0.00     0.026 C
BRANCH  26  27
HETATM   27  C3  UNL     1     -10.419  18.549  -8.869  1.00  0.00     0.002 C
BRANCH  27  28
HETATM   28  C2  UNL     1      -9.222  18.631  -9.777  1.00  0.00    -0.004 C
HETATM   29  C1  UNL     1      -8.998  17.302 -10.456  1.00  0.00     0.005 C
ENDBRANCH  27  28
ENDBRANCH  26  27
ENDBRANCH  25  26
ENDBRANCH  24  25
ENDBRANCH   1  24
BRANCH  11  30
HETATM   30  O3  UNL     1     -13.576  17.084 -14.165  1.00  0.00    -0.390 OA
ATOM     31  H3  UNL     1     -13.540  17.179 -15.109  1.00  0.00     0.210 HD
ENDBRANCH  11  30
TORSDOF 12
ENDMDL