MODEL 5
REMARK VINA RESULT: -6.543152648      3.229      5.916
REMARK  12 active torsions:
REMARK  status: ('A' for Active; 'I' for Inactive)
REMARK    1  A    between atoms: C2_2  and  C3_4
REMARK    2  A    between atoms: C3_4  and  C4_5
REMARK    3  A    between atoms: C4_5  and  C5_6
REMARK    4  A    between atoms: C5_6  and  C6_7
REMARK    5  A    between atoms: C6_7  and  C7_8
REMARK    6  A    between atoms: C7_8  and  C8_9
REMARK    7  A    between atoms: C8_9  and  C9_10
REMARK    8  A    between atoms: C9_10  and  C10_11
REMARK    9  A    between atoms: C15_16  and  C16_17
REMARK   10  A    between atoms: C16_17  and  O2_18
REMARK   11  A    between atoms: C19_22  and  C20_23
REMARK   12  A    between atoms: C26_29  and  O3_30
ROOT
HETATM    1  C10 UNL     1     -15.200  26.093  -7.371  1.00  0.00    -0.006 C
HETATM    2  C11 UNL     1     -14.323  27.255  -6.939  1.00  0.00    -0.003 C
HETATM    3  C12 UNL     1     -13.041  26.912  -6.313  1.00  0.00     0.011 C
HETATM    4  C13 UNL     1     -14.271  28.259  -8.062  1.00  0.00    -0.001 C
HETATM    5  C14 UNL     1     -14.590  29.670  -7.575  1.00  0.00     0.011 C
HETATM    6  C15 UNL     1     -15.333  27.797  -8.982  1.00  0.00     0.011 C
HETATM    7  C17 UNL     1     -14.654  26.935 -10.017  1.00  0.00     0.015 C
HETATM    8  C18 UNL     1     -13.717  25.978  -9.301  1.00  0.00     0.007 C
HETATM    9  C19 UNL     1     -14.468  25.140  -8.246  1.00  0.00     0.001 C
HETATM   10  C26 UNL     1     -16.227  26.912  -8.100  1.00  0.00     0.138 C
ENDROOT
BRANCH   1  11
HETATM   11  C9  UNL     1     -15.699  25.478  -6.105  1.00  0.00     0.013 C
BRANCH  11  12
HETATM   12  C8  UNL     1     -16.899  26.136  -5.468  1.00  0.00     0.001 C
BRANCH  12  13
HETATM   13  C7  UNL     1     -16.541  26.169  -3.966  1.00  0.00     0.000 C
BRANCH  13  14
HETATM   14  C6  UNL     1     -15.754  27.425  -3.608  1.00  0.00     0.000 C
BRANCH  14  15
HETATM   15  C5  UNL     1     -14.443  27.123  -2.999  1.00  0.00     0.000 C
BRANCH  15  16
HETATM   16  C4  UNL     1     -13.993  25.709  -2.930  1.00  0.00     0.007 C
BRANCH  16  17
HETATM   17  C3  UNL     1     -12.715  25.414  -2.269  1.00  0.00     0.077 C
BRANCH  17  18
HETATM   18  C2  UNL     1     -12.686  24.712  -0.998  1.00  0.00     0.123 C
HETATM   19  C1  UNL     1     -14.013  24.352  -0.376  1.00  0.00     0.091 C
HETATM   20  O1  UNL     1     -11.658  24.415  -0.439  1.00  0.00    -0.298 OA
ENDBRANCH  17  18
ENDBRANCH  16  17
ENDBRANCH  15  16
ENDBRANCH  14  15
ENDBRANCH  13  14
ENDBRANCH  12  13
ENDBRANCH  11  12
ENDBRANCH   1  11
BRANCH   9  21
HETATM   21  C20 UNL     1     -15.126  24.103  -9.007  1.00  0.00    -0.010 C
HETATM   22  C21 UNL     1     -14.027  23.359  -9.790  1.00  0.00     0.005 C
HETATM   23  C22 UNL     1     -14.004  21.868  -9.430  1.00  0.00     0.000 C
HETATM   24  C23 UNL     1     -15.265  21.170  -9.774  1.00  0.00     0.000 C
HETATM   25  C24 UNL     1     -16.398  22.143  -9.603  1.00  0.00     0.000 C
HETATM   26  C25 UNL     1     -15.987  23.074  -8.437  1.00  0.00     0.005 C
ENDBRANCH   9  21
BRANCH  10  27
HETATM   27  O3  UNL     1     -17.120  26.282  -8.878  1.00  0.00    -0.394 OA
ATOM     28  H3  UNL     1     -17.875  25.877  -8.469  1.00  0.00     0.210 HD
ENDBRANCH  10  27
BRANCH   6  29
HETATM   29  C16 UNL     1     -16.114  28.842  -9.694  1.00  0.00     0.176 C
BRANCH  29  30
HETATM   30  O2  UNL     1     -17.405  28.888  -9.223  1.00  0.00    -0.400 OA
ATOM     31  H2  UNL     1     -17.989  29.246  -9.881  1.00  0.00     0.209 HD
ENDBRANCH  29  30
ENDBRANCH   6  29
TORSDOF 12
ENDMDL