MODEL 1
REMARK VINA RESULT: -7.140938408      0.000      0.000
REMARK  14 active torsions:
REMARK  status: ('A' for Active; 'I' for Inactive)
REMARK    1  A    between atoms: C2_2  and  O1_5
REMARK    2  A    between atoms: O1_5  and  C5_6
REMARK       I    between atoms: C5_6  and  N1_8
REMARK    3  A    between atoms: N1_8  and  C6_9
REMARK    4  A    between atoms: C6_9  and  N2_11
REMARK    5  A    between atoms: C7_13  and  C8_14
REMARK    6  A    between atoms: C7_13  and  C15_27
REMARK    7  A    between atoms: C8_14  and  C9_15
REMARK    8  A    between atoms: C10_16  and  C11_17
REMARK    9  A    between atoms: C10_16  and  C12_20
REMARK   10  A    between atoms: C11_17  and  O3_18
REMARK   11  A    between atoms: C12_20  and  C13_21
REMARK   12  A    between atoms: C13_21  and  C14_23
REMARK   13  A    between atoms: C15_27  and  C16_28
REMARK   14  A    between atoms: C16_28  and  C17_29
ROOT
HETATM    1  N2  UNL     1       2.409 -11.628  13.237  1.00  0.00    -0.329 N
ATOM      2  H2  UNL     1       3.063 -12.361  12.962  1.00  0.00     0.169 HD
HETATM    3  C7  UNL     1       1.596 -11.061  12.393  1.00  0.00    -0.007 C
ENDROOT
BRANCH   3   4
HETATM    4  C8  UNL     1       0.666 -10.006  12.840  1.00  0.00     0.079 C
BRANCH   4   5
HETATM    5  C9  UNL     1       0.330  -9.067  11.773  1.00  0.00    -0.016 C
HETATM    6  C10 UNL     1       0.927  -7.912  11.518  1.00  0.00    -0.053 C
BRANCH   6   7
HETATM    7  C11 UNL     1       2.050  -7.464  12.370  1.00  0.00     0.198 C
BRANCH   7   8
HETATM    8  O3  UNL     1       3.286  -7.956  11.974  1.00  0.00    -0.397 OA
ATOM      9  H3  UNL     1       4.005  -7.680  12.529  1.00  0.00     0.209 HD
ENDBRANCH   7   8
ENDBRANCH   6   7
BRANCH   6  10
HETATM   10  C12 UNL     1       0.528  -7.211  10.278  1.00  0.00     0.124 C
BRANCH  10  11
HETATM   11  C13 UNL     1       1.186  -7.517   9.035  1.00  0.00     0.236 C
HETATM   12  O4  UNL     1       2.050  -6.683   8.637  1.00  0.00    -0.288 OA
BRANCH  11  13
HETATM   13  C14 UNL     1       0.971  -8.669   8.181  1.00  0.00     0.451 C
HETATM   14  F1  UNL     1      -0.031  -9.515   8.661  1.00  0.00    -0.163 F
HETATM   15  F2  UNL     1       0.682  -8.343   6.875  1.00  0.00    -0.163 F
HETATM   16  F3  UNL     1       2.167  -9.423   8.113  1.00  0.00    -0.163 F
ENDBRANCH  11  13
ENDBRANCH  10  11
ENDBRANCH   6  10
ENDBRANCH   4   5
ENDBRANCH   3   4
BRANCH   3  17
HETATM   17  C15 UNL     1       1.636 -11.395  10.939  1.00  0.00     0.053 C
BRANCH  17  18
HETATM   18  C16 UNL     1       2.160 -12.786  10.662  1.00  0.00     0.011 C
BRANCH  18  19
HETATM   19  C17 UNL     1       1.004 -13.633  10.172  1.00  0.00     0.000 C
HETATM   20  C18 UNL     1       0.067 -13.935  11.311  1.00  0.00     0.079 C
HETATM   21  S2  UNL     1      -1.518 -14.229  10.409  1.00  0.00    -0.163 SA
HETATM   22  C19 UNL     1      -0.830 -14.051   8.720  1.00  0.00     0.051 C
HETATM   23  C20 UNL     1      -1.785 -13.462   7.775  1.00  0.00     0.015 C
HETATM   24  C24 UNL     1       0.234 -13.005   9.081  1.00  0.00     0.004 C
HETATM   25  C21 UNL     1      -1.275 -12.189   7.177  1.00  0.00     0.001 C
HETATM   26  C22 UNL     1       0.172 -12.214   6.755  1.00  0.00     0.000 C
HETATM   27  C23 UNL     1       1.040 -12.896   7.785  1.00  0.00     0.006 C
ENDBRANCH  18  19
ENDBRANCH  17  18
ENDBRANCH   3  17
BRANCH   1  28
HETATM   28  C6  UNL     1       2.308 -11.110  14.664  1.00  0.00     0.255 C
HETATM   29  S1  UNL     1       1.401 -12.224  15.610  1.00  0.00    -0.025 SA
BRANCH  28  30
HETATM   30  N1  UNL     1       2.770 -10.132  15.064  1.00  0.00    -0.316 NA
HETATM   31  C5  UNL     1       3.390  -8.814  15.603  1.00  0.00     0.443 C
HETATM   32  O2  UNL     1       3.057  -8.385  16.666  1.00  0.00    -0.221 OA
BRANCH  31  33
HETATM   33  O1  UNL     1       4.299  -8.227  14.791  1.00  0.00    -0.282 OA
BRANCH  33  34
HETATM   34  C2  UNL     1       5.663  -8.085  15.115  1.00  0.00     0.062 C
HETATM   35  C1  UNL     1       5.962  -6.996  16.111  1.00  0.00     0.046 C
HETATM   36  C3  UNL     1       6.395  -7.698  13.850  1.00  0.00     0.046 C
HETATM   37  C4  UNL     1       6.261  -9.376  15.626  1.00  0.00     0.046 C
ENDBRANCH  33  34
ENDBRANCH  31  33
ENDBRANCH  28  30
ENDBRANCH   1  28
TORSDOF 14
ENDMDL