MODEL 3
REMARK VINA RESULT: -7.847155074      2.837      5.921
REMARK  11 active torsions:
REMARK  status: ('A' for Active; 'I' for Inactive)
REMARK    1  A    between atoms: C2_2  and  C3_3
REMARK    2  A    between atoms: C3_3  and  C4_4
REMARK    3  A    between atoms: C4_4  and  C5_5
REMARK    4  A    between atoms: C6_6  and  C7_7
REMARK    5  A    between atoms: C7_7  and  O2_9
REMARK    6  A    between atoms: O2_9  and  C8_10
REMARK    7  A    between atoms: C13_15  and  C14_16
REMARK    8  A    between atoms: C15_21  and  C16_22
REMARK    9  A    between atoms: C16_22  and  O5_25
REMARK   10  A    between atoms: N2_27  and  C19_28
REMARK   11  A    between atoms: C19_28  and  C20_29
ROOT
HETATM    1  C5  UNL     1       0.808 -10.950  10.597  1.00  0.00     0.050 A
HETATM    2  C6  UNL     1       1.040 -10.919   9.258  1.00  0.00     0.133 A
HETATM    3  N1  UNL     1       1.503  -9.660   9.012  1.00  0.00    -0.336 N
ATOM      4  H1  UNL     1       1.779  -9.299   8.099  1.00  0.00     0.167 HD
HETATM    5  C15 UNL     1       1.537  -8.971  10.162  1.00  0.00     0.123 A
HETATM    6  N2  UNL     1       1.112  -9.740  11.176  1.00  0.00    -0.310 N
ENDROOT
BRANCH   2   7
HETATM    7  C7  UNL     1       0.783 -11.888   8.214  1.00  0.00     0.312 C
HETATM    8  O1  UNL     1       0.792 -13.117   8.275  1.00  0.00    -0.258 OA
BRANCH   7   9
HETATM    9  O2  UNL     1       0.472 -11.414   6.908  1.00  0.00    -0.310 OA
BRANCH   9  10
HETATM   10  C8  UNL     1      -0.785 -10.943   6.543  1.00  0.00     0.146 C
HETATM   11  C9  UNL     1      -0.797  -9.454   6.259  1.00  0.00     0.033 C
HETATM   12  C10 UNL     1      -2.225  -8.997   6.038  1.00  0.00     0.002 C
HETATM   13  C11 UNL     1      -3.182 -10.166   5.961  1.00  0.00     0.001 C
HETATM   14  C12 UNL     1      -2.714 -11.282   5.091  1.00  0.00     0.018 C
HETATM   15  C13 UNL     1      -1.291 -11.702   5.352  1.00  0.00     0.116 C
BRANCH  15  16
HETATM   16  C14 UNL     1      -0.489 -11.484   4.140  1.00  0.00     0.179 C
HETATM   17  O3  UNL     1      -1.013 -10.917   3.153  1.00  0.00    -0.648 OA
HETATM   18  O4  UNL     1       0.839 -11.871   4.015  1.00  0.00    -0.648 OA
ENDBRANCH  15  16
ENDBRANCH   9  10
ENDBRANCH   7   9
ENDBRANCH   2   7
BRANCH   1  19
HETATM   19  C4  UNL     1       0.374 -12.115  11.390  1.00  0.00     0.060 C
BRANCH  19  20
HETATM   20  C3  UNL     1       1.345 -13.235  11.532  1.00  0.00     0.006 C
BRANCH  20  21
HETATM   21  C2  UNL     1       2.774 -12.850  11.751  1.00  0.00    -0.004 C
HETATM   22  C1  UNL     1       3.378 -13.649  12.904  1.00  0.00     0.005 C
ENDBRANCH  20  21
ENDBRANCH  19  20
ENDBRANCH   1  19
BRANCH   6  23
HETATM   23  C19 UNL     1       1.032  -9.433  12.529  1.00  0.00     0.111 C
BRANCH  23  24
HETATM   24  C20 UNL     1       2.075  -9.608  13.490  1.00  0.00     0.003 A
HETATM   25  C21 UNL     1       3.194  -8.748  13.315  1.00  0.00     0.040 A
HETATM   26  C22 UNL     1       4.285  -8.794  14.137  1.00  0.00     0.056 A
HETATM   27 CL1  UNL     1       5.656  -7.735  13.912  1.00  0.00    -0.083 Cl
HETATM   28  C23 UNL     1       4.307  -9.706  15.177  1.00  0.00     0.057 A
HETATM   29 CL2  UNL     1       5.673  -9.831  16.286  1.00  0.00    -0.082 Cl
HETATM   30  C24 UNL     1       3.242 -10.557  15.382  1.00  0.00     0.050 A
HETATM   31  C25 UNL     1       2.129 -10.481  14.511  1.00  0.00     0.047 A
HETATM   32 CL3  UNL     1       0.829 -11.560  14.811  1.00  0.00    -0.083 Cl
ENDBRANCH  23  24
ENDBRANCH   6  23
BRANCH   5  33
HETATM   33  C16 UNL     1       2.009  -7.563  10.189  1.00  0.00     0.109 C
HETATM   34  C17 UNL     1       1.546  -6.894   8.912  1.00  0.00     0.054 C
HETATM   35  C18 UNL     1       3.528  -7.464  10.211  1.00  0.00     0.054 C
BRANCH  33  36
HETATM   36  O5  UNL     1       1.543  -6.831  11.242  1.00  0.00    -0.383 OA
ATOM     37  H5  UNL     1       1.395  -5.913  11.047  1.00  0.00     0.211 HD
ENDBRANCH  33  36
ENDBRANCH   5  33
TORSDOF 11
ENDMDL