MODEL 4
REMARK VINA RESULT: -8.197399847      2.889      6.495
REMARK  8 active torsions:
REMARK  status: ('A' for Active; 'I' for Inactive)
REMARK    1  A    between atoms: C2_2  and  C3_3
REMARK    2  A    between atoms: C3_3  and  C4_4
REMARK    3  A    between atoms: C3_3  and  C20_31
REMARK    4  A    between atoms: C5_8  and  C6_9
REMARK    5  A    between atoms: N2_11  and  C8_12
REMARK    6  A    between atoms: C8_12  and  C9_13
REMARK    7  A    between atoms: C20_31  and  O2_32
REMARK    8  A    between atoms: C20_31  and  C21_34
ROOT
HETATM    1  C4  UNL     1       0.743 -14.623  11.355  1.00  0.00     0.329 C
HETATM    2  N1  UNL     1       1.584 -13.639  10.705  1.00  0.00    -0.038 N
ATOM      3  H11 UNL     1       2.127 -13.999   9.920  1.00  0.00     0.281 HD
ATOM      4  H12 UNL     1       2.386 -13.336  11.258  1.00  0.00     0.281 HD
HETATM    5  C5  UNL     1       0.641 -12.562  10.354  1.00  0.00     0.247 C
HETATM    6  C15 UNL     1      -0.305 -13.128   9.360  1.00  0.00     0.051 C
HETATM    7  C16 UNL     1       0.322 -13.392   8.019  1.00  0.00     0.010 C
HETATM    8  C17 UNL     1       0.025 -14.832   7.728  1.00  0.00     0.003 C
HETATM    9  C18 UNL     1      -1.245 -15.099   8.486  1.00  0.00     0.032 C
HETATM   10  C19 UNL     1      -0.963 -14.398   9.799  1.00  0.00     0.130 C
HETATM   11  O1  UNL     1      -0.174 -15.229  10.551  1.00  0.00    -0.353 OA
ENDROOT
BRANCH   5  12
HETATM   12  C6  UNL     1       1.285 -11.325   9.935  1.00  0.00     0.075 A
HETATM   13  C7  UNL     1       1.141 -10.129  10.633  1.00  0.00     0.140 A
HETATM   14  N2  UNL     1       1.861  -9.200   9.990  1.00  0.00    -0.283 N
HETATM   15  N3  UNL     1       2.413  -9.781   8.966  1.00  0.00    -0.240 N
HETATM   16  N4  UNL     1       2.097 -11.053   8.891  1.00  0.00    -0.287 N
ATOM     17  H3  UNL     1       3.019  -9.304   8.299  1.00  0.00     0.208 HD
ATOM     18  H4  UNL     1       2.408 -11.713   8.178  1.00  0.00     0.188 HD
BRANCH  14  19
HETATM   19  C8  UNL     1       1.958  -7.800  10.429  1.00  0.00     0.188 C
BRANCH  19  20
HETATM   20  C9  UNL     1       3.098  -7.719  11.358  1.00  0.00    -0.037 A
HETATM   21  C10 UNL     1       4.261  -7.119  10.955  1.00  0.00     0.011 A
HETATM   22  C11 UNL     1       5.327  -7.049  11.836  1.00  0.00     0.026 A
HETATM   23  C12 UNL     1       5.230  -7.575  13.111  1.00  0.00     0.055 A
HETATM   24 CL1  UNL     1       6.606  -7.459  14.184  1.00  0.00    -0.083 Cl
HETATM   25  C13 UNL     1       4.063  -8.180  13.523  1.00  0.00     0.056 A
HETATM   26 CL2  UNL     1       3.942  -8.844  15.135  1.00  0.00    -0.083 Cl
HETATM   27  C14 UNL     1       3.001  -8.240  12.619  1.00  0.00     0.034 A
ENDBRANCH  19  20
ENDBRANCH  14  19
ENDBRANCH   5  12
BRANCH   1  28
HETATM   28  C3  UNL     1       1.523 -15.680  12.106  1.00  0.00     0.075 C
BRANCH  28  29
HETATM   29  C2  UNL     1       1.886 -16.802  11.165  1.00  0.00     0.007 C
HETATM   30  C1  UNL     1       1.196 -18.108  11.624  1.00  0.00     0.006 C
ENDBRANCH  28  29
BRANCH  28  31
HETATM   31  C20 UNL     1       2.721 -15.135  12.786  1.00  0.00     0.159 C
BRANCH  31  32
HETATM   32  O2  UNL     1       3.500 -16.200  13.270  1.00  0.00    -0.390 OA
ATOM     33  H2  UNL     1       3.110 -16.533  14.071  1.00  0.00     0.210 HD
ENDBRANCH  31  32
BRANCH  31  34
HETATM   34  C21 UNL     1       2.387 -14.150  13.817  1.00  0.00    -0.029 A
HETATM   35  C22 UNL     1       2.843 -12.829  13.751  1.00  0.00     0.011 A
HETATM   36  C23 UNL     1       2.538 -11.925  14.741  1.00  0.00     0.024 A
HETATM   37  C24 UNL     1       1.778 -12.280  15.831  1.00  0.00     0.034 A
HETATM   38 CL3  UNL     1       1.402 -11.106  17.085  1.00  0.00    -0.084 Cl
HETATM   39  C25 UNL     1       1.322 -13.572  15.912  1.00  0.00     0.024 A
HETATM   40  C26 UNL     1       1.634 -14.464  14.915  1.00  0.00     0.011 A
ENDBRANCH  31  34
ENDBRANCH  28  31
ENDBRANCH   1  28
TORSDOF 8
ENDMDL