MODEL 2
REMARK VINA RESULT: -8.034123962      2.022      3.359
REMARK  12 active torsions:
REMARK  status: ('A' for Active; 'I' for Inactive)
REMARK    1  A    between atoms: C2_2  and  C3_3
REMARK    2  A    between atoms: C3_3  and  C4_4
REMARK    3  A    between atoms: C4_4  and  O1_5
REMARK    4  A    between atoms: O1_5  and  C5_6
REMARK    5  A    between atoms: C5_6  and  C6_8
REMARK    6  A    between atoms: C12_20  and  C13_21
REMARK    7  A    between atoms: C14_22  and  C15_23
REMARK    8  A    between atoms: C16_24  and  C17_25
REMARK    9  A    between atoms: C18_26  and  C19_27
REMARK   10  A    between atoms: C19_27  and  N3_28
REMARK   11  A    between atoms: C21_33  and  C22_34
REMARK   12  A    between atoms: C23_38  and  C24_39
ROOT
HETATM    1  C13 UNL     1       1.117  -9.936  12.335  1.00  0.00    -0.015 C
HETATM    2  C14 UNL     1       0.873 -11.207  12.607  1.00  0.00    -0.004 C
ENDROOT
BRANCH   1   3
HETATM    3  C12 UNL     1       2.274  -9.499  11.494  1.00  0.00     0.071 C
HETATM    4  C6  UNL     1       3.209  -8.556  12.047  1.00  0.00     0.143 C
HETATM    5  C7  UNL     1       3.725  -7.535  11.124  1.00  0.00    -0.001 C
HETATM    6  C8  UNL     1       4.833  -6.630  11.625  1.00  0.00     0.064 C
HETATM    7  N1  UNL     1       3.324  -7.346   9.955  1.00  0.00    -0.348 N
HETATM    8  C9  UNL     1       2.275  -8.145   9.349  1.00  0.00     0.122 A
ATOM      9  H1  UNL     1       3.752  -6.601   9.405  1.00  0.00     0.167 HD
HETATM   10  N2  UNL     1       1.747  -7.966   8.154  1.00  0.00    -0.303 N
HETATM   11  C11 UNL     1       1.754  -9.129  10.131  1.00  0.00     0.041 A
HETATM   12  C10 UNL     1       0.744  -8.748   7.782  1.00  0.00     0.290 A
ATOM     13  H2  UNL     1       2.103  -7.243   7.529  1.00  0.00     0.171 HD
HETATM   14  O3  UNL     1       0.106  -8.726   6.663  1.00  0.00    -0.260 OA
HETATM   15  S1  UNL     1       0.517  -9.768   9.127  1.00  0.00    -0.029 SA
BRANCH   4  16
HETATM   16  C5  UNL     1       2.797  -7.899  13.340  1.00  0.00     0.269 C
HETATM   17  O2  UNL     1       1.865  -7.076  13.360  1.00  0.00    -0.264 OA
BRANCH  16  18
HETATM   18  O1  UNL     1       3.453  -8.203  14.502  1.00  0.00    -0.321 OA
BRANCH  18  19
HETATM   19  C4  UNL     1       2.869  -8.514  15.728  1.00  0.00     0.178 C
BRANCH  19  20
HETATM   20  C3  UNL     1       3.126  -9.926  16.168  1.00  0.00     0.026 C
BRANCH  20  21
HETATM   21  C2  UNL     1       1.840 -10.635  16.503  1.00  0.00    -0.002 C
HETATM   22  C1  UNL     1       1.813 -11.216  17.896  1.00  0.00     0.005 C
ENDBRANCH  20  21
ENDBRANCH  19  20
ENDBRANCH  18  19
ENDBRANCH  16  18
ENDBRANCH   4  16
ENDBRANCH   1   3
BRANCH   2  23
HETATM   23  C15 UNL     1      -0.233 -11.657  13.413  1.00  0.00    -0.004 C
HETATM   24  C16 UNL     1      -0.531 -12.873  13.745  1.00  0.00    -0.021 C
BRANCH  24  25
HETATM   25  C17 UNL     1       0.181 -14.118  13.394  1.00  0.00     0.019 A
HETATM   26  C18 UNL     1      -0.616 -15.365  13.576  1.00  0.00     0.019 A
HETATM   27  C20 UNL     1       0.209 -16.308  14.372  1.00  0.00     0.021 A
HETATM   28  C21 UNL     1       1.510 -15.649  14.755  1.00  0.00     0.099 A
HETATM   29  C23 UNL     1       1.494 -14.302  14.111  1.00  0.00     0.014 A
BRANCH  26  30
HETATM   30  C19 UNL     1      -1.960 -15.127  14.222  1.00  0.00     0.234 C
BRANCH  30  31
HETATM   31  N3  UNL     1      -1.994 -15.584  15.597  1.00  0.00    -0.079 N
ATOM     32  H33 UNL     1      -1.321 -15.077  16.171  1.00  0.00     0.274 HD
ATOM     33  H32 UNL     1      -2.854 -15.294  16.063  1.00  0.00     0.274 HD
ATOM     34  H31 UNL     1      -1.856 -16.592  15.670  1.00  0.00     0.274 HD
ENDBRANCH  30  31
ENDBRANCH  26  30
BRANCH  28  35
HETATM   35  C22 UNL     1       1.544 -15.590  16.282  1.00  0.00     0.391 C
HETATM   36  F1  UNL     1       0.734 -16.556  16.838  1.00  0.00    -0.171 F
HETATM   37  F2  UNL     1       2.837 -15.928  16.731  1.00  0.00    -0.171 F
HETATM   38  F3  UNL     1       1.319 -14.331  16.782  1.00  0.00    -0.171 F
ENDBRANCH  28  35
BRANCH  29  39
HETATM   39  C24 UNL     1       2.705 -13.940  13.328  1.00  0.00    -0.046 C
HETATM   40  C25 UNL     1       2.453 -13.836  11.839  1.00  0.00     0.015 C
HETATM   41  C26 UNL     1       3.828 -14.954  13.445  1.00  0.00     0.015 C
HETATM   42  C27 UNL     1       3.277 -12.632  13.808  1.00  0.00     0.015 C
ENDBRANCH  29  39
ENDBRANCH  24  25
ENDBRANCH   2  23
TORSDOF 12
ENDMDL