MODEL 5
REMARK VINA RESULT: -7.338499424      2.951      6.193
REMARK  10 active torsions:
REMARK  status: ('A' for Active; 'I' for Inactive)
REMARK    1  A    between atoms: C2_2  and  O1_3
REMARK    2  A    between atoms: O1_3  and  C3_4
REMARK    3  A    between atoms: C9_13  and  N3_14
REMARK    4  A    between atoms: N3_14  and  C10_16
REMARK    5  A    between atoms: C12_18  and  O2_19
REMARK    6  A    between atoms: C17_27  and  O3_28
REMARK    7  A    between atoms: C19_30  and  O4_31
REMARK    8  A    between atoms: O4_31  and  C20_32
REMARK    9  A    between atoms: C20_32  and  C21_33
REMARK   10  A    between atoms: C21_33  and  N4_34
ROOT
HETATM    1  C3  UNL     1       2.275  -8.021  11.347  1.00  0.00     0.107 A
HETATM    2  C4  UNL     1       2.083  -8.323  10.034  1.00  0.00     0.070 A
HETATM    3  C5  UNL     1       1.667  -9.583   9.624  1.00  0.00     0.050 A
HETATM    4  N1  UNL     1       1.466  -9.801   8.305  1.00  0.00    -0.363 N
ATOM      5  H1  UNL     1       1.648  -9.052   7.638  1.00  0.00     0.165 HD
HETATM    6  C6  UNL     1       1.031 -10.982   7.864  1.00  0.00     0.113 A
HETATM    7  C7  UNL     1       0.780 -12.004   8.770  1.00  0.00     0.087 A
HETATM    8  C8  UNL     1       0.298 -13.274   8.230  1.00  0.00     0.103 C
HETATM    9  N2  UNL     1      -0.082 -14.257   7.770  1.00  0.00    -0.191 NA
HETATM   10  C9  UNL     1       0.981 -11.797  10.115  1.00  0.00     0.070 A
HETATM   11  C16 UNL     1       1.448 -10.538  10.580  1.00  0.00     0.055 A
HETATM   12  C17 UNL     1       1.631 -10.281  11.926  1.00  0.00     0.119 A
HETATM   13  C19 UNL     1       2.050  -9.005  12.315  1.00  0.00     0.136 A
ENDROOT
BRANCH  10  14
HETATM   14  N3  UNL     1       0.718 -12.656  10.960  1.00  0.00    -0.353 N
ATOM     15  H3  UNL     1      -0.092 -12.349  11.499  1.00  0.00     0.166 HD
BRANCH  14  16
HETATM   16  C10 UNL     1       1.126 -13.877  11.434  1.00  0.00     0.057 A
HETATM   17  C11 UNL     1       2.470 -14.107  11.767  1.00  0.00     0.069 A
HETATM   18  C12 UNL     1       2.886 -15.333  12.201  1.00  0.00     0.089 A
HETATM   19  C13 UNL     1       2.024 -16.404  12.337  1.00  0.00     0.068 A
HETATM   20 CL1  UNL     1       2.563 -17.971  12.895  1.00  0.00    -0.081 Cl
HETATM   21  C14 UNL     1       0.701 -16.198  12.015  1.00  0.00     0.052 A
HETATM   22  C15 UNL     1       0.273 -14.975  11.580  1.00  0.00     0.062 A
HETATM   23 CL2  UNL     1      -1.429 -14.804  11.209  1.00  0.00    -0.082 Cl
BRANCH  18  24
HETATM   24  O2  UNL     1       4.238 -15.533  12.527  1.00  0.00    -0.359 OA
ATOM     25  H2  UNL     1       4.791 -14.786  12.718  1.00  0.00     0.217 HD
ENDBRANCH  18  24
ENDBRANCH  14  16
ENDBRANCH  10  14
BRANCH  12  26
HETATM   26  O3  UNL     1       1.417 -11.230  12.885  1.00  0.00    -0.352 OA
HETATM   27  C18 UNL     1       0.369 -11.363  13.801  1.00  0.00     0.210 C
ENDBRANCH  12  26
BRANCH  13  28
HETATM   28  O4  UNL     1       2.253  -8.643  13.638  1.00  0.00    -0.344 OA
BRANCH  28  29
HETATM   29  C20 UNL     1       3.423  -8.712  14.382  1.00  0.00     0.206 C
BRANCH  29  30
HETATM   30  C21 UNL     1       3.525  -9.899  15.248  1.00  0.00     0.299 C
BRANCH  30  31
HETATM   31  N4  UNL     1       3.035  -9.623  16.615  1.00  0.00     0.090 N
HETATM   32  C22 UNL     1       1.751 -10.258  16.715  1.00  0.00     0.272 C
HETATM   33  C23 UNL     1       1.874 -11.589  17.440  1.00  0.00     0.030 C
HETATM   34  C24 UNL     1       2.225 -11.241  18.889  1.00  0.00     0.003 C
HETATM   35  C25 UNL     1       3.507 -10.449  18.885  1.00  0.00     0.030 C
HETATM   36  C26 UNL     1       4.023 -10.151  17.514  1.00  0.00     0.272 C
ENDBRANCH  30  31
ENDBRANCH  29  30
ENDBRANCH  28  29
ENDBRANCH  13  28
BRANCH   1  37
HETATM   37  O1  UNL     1       2.686  -6.740  11.661  1.00  0.00    -0.348 OA
BRANCH  37  38
HETATM   38  C2  UNL     1       3.873  -6.209  11.161  1.00  0.00     0.171 C
HETATM   39  C1  UNL     1       5.098  -6.941  11.602  1.00  0.00     0.034 C
ENDBRANCH  37  38
ENDBRANCH   1  37
TORSDOF 10
ENDMDL