MODEL 3
REMARK VINA RESULT: -8.658806940      1.307      1.708
REMARK  9 active torsions:
REMARK  status: ('A' for Active; 'I' for Inactive)
REMARK    1  A    between atoms: C5_9  and  C6_10
REMARK    2  A    between atoms: C6_10  and  C7_11
REMARK    3  A    between atoms: C8_16  and  N4_17
REMARK    4  A    between atoms: N4_17  and  C9_19
REMARK    5  A    between atoms: C15_25  and  N5_26
REMARK    6  A    between atoms: N5_26  and  C16_28
REMARK    7  A    between atoms: C16_28  and  C17_29
REMARK    8  A    between atoms: C20_35  and  O1_36
REMARK    9  A    between atoms: O1_36  and  C21_37
ROOT
HETATM    1  C7  UNL     1       1.616 -11.282  10.740  1.00  0.00     0.056 A
HETATM    2  N2  UNL     1       1.479 -12.269   9.843  1.00  0.00    -0.301 N
ATOM      3  H2  UNL     1       1.688 -13.221  10.145  1.00  0.00     0.186 HD
HETATM    4  N3  UNL     1       1.097 -12.092   8.613  1.00  0.00    -0.285 N
ATOM      5  H3  UNL     1       1.011 -12.882   7.975  1.00  0.00     0.188 HD
HETATM    6  C8  UNL     1       0.814 -10.825   8.194  1.00  0.00     0.118 A
HETATM    7  C14 UNL     1       0.930  -9.761   9.052  1.00  0.00     0.080 A
HETATM    8  C15 UNL     1       1.343  -9.986  10.365  1.00  0.00     0.056 A
ENDROOT
BRANCH   8   9
HETATM    9  N5  UNL     1       1.472  -8.905  11.278  1.00  0.00    -0.384 N
ATOM     10  H5  UNL     1       0.812  -8.836  12.052  1.00  0.00     0.160 HD
BRANCH   9  11
HETATM   11  C16 UNL     1       2.504  -7.899  11.151  1.00  0.00     0.160 C
BRANCH  11  12
HETATM   12  C17 UNL     1       3.404  -7.964  12.331  1.00  0.00    -0.022 A
HETATM   13  C18 UNL     1       4.712  -7.524  12.219  1.00  0.00     0.098 A
HETATM   14  N6  UNL     1       5.550  -7.567  13.261  1.00  0.00    -0.354 N
HETATM   15  C19 UNL     1       5.144  -8.047  14.472  1.00  0.00     0.137 A
ATOM     16  H6  UNL     1       6.508  -7.236  13.149  1.00  0.00     0.166 HD
HETATM   17 CL3  UNL     1       6.328  -8.059  15.778  1.00  0.00    -0.061 Cl
HETATM   18  C20 UNL     1       3.854  -8.499  14.647  1.00  0.00     0.108 A
HETATM   19  C26 UNL     1       3.007  -8.447  13.563  1.00  0.00     0.050 A
BRANCH  18  20
HETATM   20  O1  UNL     1       3.489  -8.971  15.876  1.00  0.00    -0.343 OA
BRANCH  20  21
HETATM   21  C21 UNL     1       3.144 -10.261  16.248  1.00  0.00     0.129 C
HETATM   22  C22 UNL     1       1.789 -10.692  15.705  1.00  0.00     0.032 C
HETATM   23  C23 UNL     1       1.561 -11.974  16.483  1.00  0.00     0.002 C
HETATM   24  C24 UNL     1       1.869 -11.484  17.902  1.00  0.00     0.002 C
HETATM   25  C25 UNL     1       2.947 -10.436  17.731  1.00  0.00     0.032 C
ENDBRANCH  20  21
ENDBRANCH  18  20
ENDBRANCH  11  12
ENDBRANCH   9  11
ENDBRANCH   8   9
BRANCH   1  26
HETATM   26  C6  UNL     1       2.057 -11.548  12.134  1.00  0.00     0.103 C
BRANCH  26  27
HETATM   27  C5  UNL     1       1.319 -12.732  12.654  1.00  0.00    -0.006 A
HETATM   28  C1  UNL     1      -0.002 -12.666  13.042  1.00  0.00     0.057 A
HETATM   29 CL1  UNL     1      -0.836 -11.135  12.916  1.00  0.00    -0.082 Cl
HETATM   30  C2  UNL     1      -0.663 -13.768  13.517  1.00  0.00     0.112 A
HETATM   31  N1  UNL     1      -0.031 -14.971  13.622  1.00  0.00    -0.372 N
HETATM   32  C3  UNL     1       1.266 -15.076  13.253  1.00  0.00     0.112 A
ATOM     33  H1  UNL     1      -0.532 -15.786  13.977  1.00  0.00     0.164 HD
HETATM   34  C4  UNL     1       1.933 -13.969  12.774  1.00  0.00     0.057 A
HETATM   35 CL2  UNL     1       3.627 -14.053  12.277  1.00  0.00    -0.082 Cl
ENDBRANCH  26  27
ENDBRANCH   1  26
BRANCH   6  36
HETATM   36  N4  UNL     1       0.441 -10.681   6.983  1.00  0.00    -0.371 N
ATOM     37  H4  UNL     1       1.087 -10.945   6.239  1.00  0.00     0.161 HD
BRANCH  36  38
HETATM   38  C9  UNL     1      -0.836 -10.168   6.625  1.00  0.00     0.083 C
HETATM   39  C10 UNL     1      -1.824 -11.284   6.295  1.00  0.00     0.025 C
HETATM   40  C11 UNL     1      -2.939 -10.526   5.621  1.00  0.00     0.002 C
HETATM   41  C12 UNL     1      -2.243  -9.443   4.832  1.00  0.00     0.002 C
HETATM   42  C13 UNL     1      -0.806  -9.421   5.310  1.00  0.00     0.025 C
ENDBRANCH  36  38
ENDBRANCH   6  36
TORSDOF 9
ENDMDL