MODEL 3
REMARK VINA RESULT: -8.608475073      3.704      7.671
REMARK  9 active torsions:
REMARK  status: ('A' for Active; 'I' for Inactive)
REMARK    1  A    between atoms: C1_2  and  C2_3
REMARK    2  A    between atoms: C1_2  and  O3_14
REMARK    3  A    between atoms: C2_3  and  N1_4
REMARK       I    between atoms: N1_4  and  C3_6
REMARK    4  A    between atoms: C3_6  and  C4_8
REMARK    5  A    between atoms: O3_14  and  C10_15
REMARK    6  A    between atoms: C10_15  and  C11_16
REMARK    7  A    between atoms: C14_19  and  C15_20
REMARK    8  A    between atoms: C16_24  and  C17_25
REMARK       I    between atoms: C17_25  and  N3_27
REMARK    9  A    between atoms: N3_27  and  C18_29
ROOT
HETATM    1  C11 UNL     1       0.497 -10.519   7.582  1.00  0.00     0.078 A
HETATM    2  C12 UNL     1       0.243  -9.213   7.220  1.00  0.00     0.038 A
HETATM    3  C13 UNL     1       0.768  -8.395   8.197  1.00  0.00     0.043 A
HETATM    4  C14 UNL     1       1.333  -9.265   9.135  1.00  0.00     0.113 A
HETATM    5  O6  UNL     1       1.136 -10.467   8.709  1.00  0.00    -0.310 OA
ENDROOT
BRANCH   4   6
HETATM    6  C15 UNL     1       2.020  -8.858  10.371  1.00  0.00     0.156 A
HETATM    7  O4  UNL     1       3.085  -8.139  10.501  1.00  0.00    -0.233 OA
HETATM    8  N2  UNL     1       3.404  -7.983  11.755  1.00  0.00    -0.253 N
HETATM    9  C16 UNL     1       2.504  -8.635  12.541  1.00  0.00     0.147 A
ATOM     10  H2  UNL     1       4.206  -7.452  12.096  1.00  0.00     0.195 HD
HETATM   11  C24 UNL     1       1.618  -9.194  11.646  1.00  0.00     0.106 A
HETATM   12 CL2  UNL     1       0.225 -10.167  12.130  1.00  0.00    -0.078 Cl
BRANCH   9  13
HETATM   13  C17 UNL     1       2.503  -8.708  14.019  1.00  0.00     0.276 C
HETATM   14  O5  UNL     1       2.342  -7.645  14.609  1.00  0.00    -0.266 OA
HETATM   15  N3  UNL     1       2.681  -9.950  14.621  1.00  0.00    -0.320 N
ATOM     16  H3  UNL     1       2.803 -10.739  13.987  1.00  0.00     0.169 HD
BRANCH  15  17
HETATM   17  C18 UNL     1       2.713 -10.253  15.994  1.00  0.00     0.057 A
HETATM   18  C19 UNL     1       1.669 -10.827  16.675  1.00  0.00     0.034 A
HETATM   19  C20 UNL     1       1.755 -11.112  18.049  1.00  0.00     0.044 A
HETATM   20  C21 UNL     1       2.894 -10.823  18.758  1.00  0.00     0.118 A
HETATM   21  F1  UNL     1       2.965 -11.105  20.088  1.00  0.00    -0.206 F
HETATM   22  C22 UNL     1       3.940 -10.249  18.075  1.00  0.00     0.068 A
HETATM   23  C23 UNL     1       3.872  -9.965  16.735  1.00  0.00     0.063 A
HETATM   24 CL1  UNL     1       5.227  -9.229  15.888  1.00  0.00    -0.082 Cl
ENDBRANCH  15  17
ENDBRANCH   9  13
ENDBRANCH   4   6
BRANCH   1  25
HETATM   25  C10 UNL     1       0.109 -11.733   6.821  1.00  0.00     0.243 C
BRANCH  25  26
HETATM   26  O3  UNL     1       0.713 -12.873   7.391  1.00  0.00    -0.314 OA
BRANCH  26  27
HETATM   27  C1  UNL     1      -0.026 -13.746   8.190  1.00  0.00     0.277 C
HETATM   28  O1  UNL     1      -0.478 -14.760   7.612  1.00  0.00    -0.263 OA
BRANCH  27  29
HETATM   29  C2  UNL     1      -0.257 -13.478   9.632  1.00  0.00     0.233 C
BRANCH  29  30
HETATM   30  N1  UNL     1       0.938 -13.197  10.366  1.00  0.00    -0.351 N
HETATM   31  C3  UNL     1       1.574 -14.200  11.135  1.00  0.00     0.222 C
HETATM   32  O2  UNL     1       1.103 -15.376  11.200  1.00  0.00    -0.273 OA
ATOM     33  H1  UNL     1       1.338 -12.259  10.335  1.00  0.00     0.163 HD
BRANCH  31  34
HETATM   34  C4  UNL     1       2.819 -13.879  11.884  1.00  0.00     0.078 C
HETATM   35  C5  UNL     1       2.466 -12.901  12.990  1.00  0.00     0.014 C
HETATM   36  C6  UNL     1       1.753 -13.605  14.145  1.00  0.00     0.001 C
HETATM   37  C7  UNL     1       2.528 -14.767  14.672  1.00  0.00     0.000 C
HETATM   38  C8  UNL     1       3.750 -15.107  13.859  1.00  0.00     0.001 C
HETATM   39  C9  UNL     1       3.437 -15.141  12.381  1.00  0.00     0.014 C
ENDBRANCH  31  34
ENDBRANCH  29  30
ENDBRANCH  27  29
ENDBRANCH  26  27
ENDBRANCH  25  26
ENDBRANCH   1  25
TORSDOF 9
ENDMDL