MODEL 1
REMARK VINA RESULT: -7.606865625      0.000      0.000
REMARK  13 active torsions:
REMARK  status: ('A' for Active; 'I' for Inactive)
REMARK    1  A    between atoms: C2_2  and  C3_3
REMARK    2  A    between atoms: C3_3  and  N1_4
REMARK    3  A    between atoms: N1_4  and  C4_5
REMARK    4  A    between atoms: N1_4  and  C7_8
REMARK    5  A    between atoms: C4_5  and  C5_6
REMARK    6  A    between atoms: C7_8  and  O1_9
REMARK    7  A    between atoms: C7_8  and  C8_11
REMARK    8  A    between atoms: C11_14  and  N2_15
REMARK    9  A    between atoms: C14_24  and  C15_25
REMARK   10  A    between atoms: C16_26  and  C17_27
REMARK   11  A    between atoms: C17_27  and  O2_28
REMARK   12  A    between atoms: C17_27  and  C18_30
REMARK   13  A    between atoms: C17_27  and  C25_37
ROOT
HETATM    1  C8  UNL     1       2.750  -8.705  14.278  1.00  0.00     0.058 A
HETATM    2  C9  UNL     1       2.801  -7.910  13.187  1.00  0.00     0.041 A
HETATM    3  C10 UNL     1       2.292  -8.357  12.019  1.00  0.00     0.043 A
HETATM    4  C11 UNL     1       2.250  -7.686  10.777  1.00  0.00     0.115 A
HETATM    5  N3  UNL     1       1.714  -8.237   9.679  1.00  0.00    -0.318 N
HETATM    6  C12 UNL     1       1.192  -9.470   9.730  1.00  0.00     0.116 A
HETATM    7  N4  UNL     1       1.205 -10.151  10.880  1.00  0.00    -0.335 N
ATOM      8  H4  UNL     1       0.805 -11.088  10.913  1.00  0.00     0.168 HD
HETATM    9  C13 UNL     1       1.748  -9.607  12.016  1.00  0.00     0.090 A
HETATM   10  S1  UNL     1       1.956 -10.122  13.622  1.00  0.00    -0.067 SA
HETATM   11  C14 UNL     1       0.654  -9.847   8.368  1.00  0.00    -0.012 C
HETATM   12  C26 UNL     1       0.342  -8.514   7.828  1.00  0.00     0.062 C
HETATM   13  C27 UNL     1       1.575  -7.732   8.323  1.00  0.00     0.137 C
ENDROOT
BRANCH  11  14
HETATM   14  C15 UNL     1       0.576 -11.048   7.903  1.00  0.00     0.010 C
HETATM   15  C16 UNL     1       0.331 -11.765   6.698  1.00  0.00     0.021 C
BRANCH  15  16
HETATM   16  C17 UNL     1      -0.198 -11.313   5.433  1.00  0.00     0.177 C
BRANCH  16  17
HETATM   17  O2  UNL     1       0.604 -10.364   4.794  1.00  0.00    -0.377 OA
ATOM     18  H2  UNL     1       0.242  -9.486   4.806  1.00  0.00     0.211 HD
ENDBRANCH  16  17
BRANCH  16  19
HETATM   19  C18 UNL     1      -0.017 -12.511   4.409  1.00  0.00     0.033 C
HETATM   20  C19 UNL     1       0.686 -12.173   3.178  1.00  0.00     0.008 C
HETATM   21  C20 UNL     1       0.004 -12.823   1.977  1.00  0.00     0.000 C
HETATM   22  C21 UNL     1       0.116 -14.290   1.904  1.00  0.00     0.000 C
HETATM   23  C22 UNL     1       0.797 -14.984   3.028  1.00  0.00     0.000 C
HETATM   24  C23 UNL     1       0.010 -14.926   4.323  1.00  0.00     0.000 C
HETATM   25  C24 UNL     1       0.553 -13.701   5.084  1.00  0.00     0.008 C
ENDBRANCH  16  19
BRANCH  16  26
HETATM   26  C25 UNL     1      -1.616 -10.918   5.421  1.00  0.00     0.422 C
HETATM   27  F1  UNL     1      -1.775  -9.513   5.443  1.00  0.00    -0.167 F
HETATM   28  F2  UNL     1      -2.310 -11.415   4.309  1.00  0.00    -0.167 F
HETATM   29  F3  UNL     1      -2.306 -11.367   6.501  1.00  0.00    -0.167 F
ENDBRANCH  16  26
ENDBRANCH  15  16
ENDBRANCH  11  14
BRANCH   4  30
HETATM   30  N2  UNL     1       2.729  -6.491  10.628  1.00  0.00    -0.385 N
ATOM     31  H22 UNL     1       3.711  -6.375  10.878  1.00  0.00     0.157 HD
ATOM     32  H21 UNL     1       2.157  -5.721  10.281  1.00  0.00     0.157 HD
ENDBRANCH   4  30
BRANCH   1  33
HETATM   33  C7  UNL     1       3.186  -8.566  15.652  1.00  0.00     0.155 C
BRANCH  33  34
HETATM   34  N1  UNL     1       4.095  -9.347  16.330  1.00  0.00    -0.361 N
BRANCH  34  35
HETATM   35  C3  UNL     1       5.465  -9.407  15.714  1.00  0.00     0.124 C
BRANCH  35  36
HETATM   36  C2  UNL     1       6.022  -8.019  15.704  1.00  0.00     0.015 C
HETATM   37  C1  UNL     1       6.390  -7.596  14.322  1.00  0.00     0.006 C
ENDBRANCH  35  36
ENDBRANCH  34  35
BRANCH  34  38
HETATM   38  C4  UNL     1       3.965 -10.107  17.526  1.00  0.00     0.124 C
BRANCH  38  39
HETATM   39  C5  UNL     1       2.577 -10.744  17.621  1.00  0.00     0.015 C
HETATM   40  C6  UNL     1       2.293 -11.185  19.041  1.00  0.00     0.006 C
ENDBRANCH  38  39
ENDBRANCH  34  38
ENDBRANCH  33  34
BRANCH  33  41
HETATM   41  O1  UNL     1       2.629  -7.571  16.283  1.00  0.00    -0.345 OA
ATOM     42  H1  UNL     1       2.667  -6.706  15.892  1.00  0.00     0.219 HD
ENDBRANCH  33  41
ENDBRANCH   1  33
TORSDOF 13
ENDMDL