MODEL 1
REMARK VINA RESULT: -8.850399345      0.000      0.000
REMARK  8 active torsions:
REMARK  status: ('A' for Active; 'I' for Inactive)
REMARK    1  A    between atoms: C2_2  and  C3_3
REMARK    2  A    between atoms: C6_10  and  C7_11
REMARK    3  A    between atoms: C8_12  and  O1_13
REMARK    4  A    between atoms: N4_26  and  C17_27
REMARK    5  A    between atoms: C17_27  and  N5_28
REMARK    6  A    between atoms: C23_35  and  O2_36
REMARK    7  A    between atoms: O2_36  and  C24_37
REMARK    8  A    between atoms: C24_37  and  C25_38
ROOT
HETATM    1  C3  UNL     1       1.045  -8.362   9.054  1.00  0.00     0.051 A
HETATM    2  N1  UNL     1       1.351  -9.098  10.115  1.00  0.00    -0.351 N
ATOM      3  H1  UNL     1       1.625  -8.614  10.970  1.00  0.00     0.166 HD
HETATM    4  C4  UNL     1       1.322 -10.481  10.135  1.00  0.00     0.119 A
HETATM    5  C5  UNL     1       1.727 -11.068  11.392  1.00  0.00     0.140 A
HETATM    6  N2  UNL     1       2.113 -10.174  12.410  1.00  0.00    -0.338 N
ATOM      7  H2  UNL     1       2.120  -9.159  12.306  1.00  0.00     0.167 HD
HETATM    8  C6  UNL     1       2.455 -10.787  13.483  1.00  0.00     0.072 A
HETATM    9  C15 UNL     1       2.318 -12.112  13.248  1.00  0.00     0.039 A
HETATM   10  C16 UNL     1       2.587 -13.228  14.181  1.00  0.00     0.071 C
HETATM   11  N4  UNL     1       1.862 -12.242  11.940  1.00  0.00    -0.316 N
HETATM   12  C22 UNL     1       0.959 -11.057   8.992  1.00  0.00     0.183 A
HETATM   13  F1  UNL     1       0.908 -12.375   8.798  1.00  0.00    -0.200 F
HETATM   14  C23 UNL     1       0.615 -10.324   7.807  1.00  0.00     0.150 A
HETATM   15  C28 UNL     1       0.669  -8.961   7.873  1.00  0.00     0.175 A
HETATM   16  F2  UNL     1       0.371  -8.152   6.828  1.00  0.00    -0.201 F
ENDROOT
BRANCH  11  17
HETATM   17  C17 UNL     1       1.522 -13.537  11.408  1.00  0.00     0.251 C
BRANCH  17  18
HETATM   18  N5  UNL     1       0.265 -14.027  11.832  1.00  0.00    -0.397 N
HETATM   19  C18 UNL     1      -0.911 -13.693  11.166  1.00  0.00     0.118 C
HETATM   20  C19 UNL     1      -1.943 -14.770  11.507  1.00  0.00     0.021 C
HETATM   21  C20 UNL     1      -1.112 -15.988  11.870  1.00  0.00     0.021 C
HETATM   22  C21 UNL     1       0.220 -15.397  12.197  1.00  0.00     0.118 C
ENDBRANCH  17  18
ENDBRANCH  11  17
BRANCH   8  23
HETATM   23  C7  UNL     1       2.907 -10.111  14.709  1.00  0.00     0.056 A
HETATM   24  C8  UNL     1       2.415 -10.264  15.975  1.00  0.00     0.154 A
HETATM   25  N3  UNL     1       3.118  -9.467  16.766  1.00  0.00    -0.336 N
HETATM   26  C9  UNL     1       4.057  -8.793  16.075  1.00  0.00     0.047 A
ATOM     27  H3  UNL     1       2.968  -9.376  17.771  1.00  0.00     0.168 HD
HETATM   28  C10 UNL     1       5.024  -7.861  16.424  1.00  0.00     0.054 A
HETATM   29  C14 UNL     1       3.936  -9.191  14.764  1.00  0.00     0.007 A
HETATM   30  C11 UNL     1       5.845  -7.358  15.441  1.00  0.00     0.036 A
HETATM   31 CL1  UNL     1       7.071  -6.182  15.861  1.00  0.00    -0.084 Cl
HETATM   32  C12 UNL     1       5.719  -7.760  14.131  1.00  0.00     0.025 A
HETATM   33  C13 UNL     1       4.773  -8.672  13.780  1.00  0.00     0.016 A
BRANCH  24  34
HETATM   34  O1  UNL     1       1.356 -11.121  16.328  1.00  0.00    -0.345 OA
ATOM     35  H1  UNL     1       0.860 -11.649  15.714  1.00  0.00     0.219 HD
ENDBRANCH  24  34
ENDBRANCH   8  23
BRANCH   1  36
HETATM   36  C2  UNL     1       1.092  -6.884   9.123  1.00  0.00     0.056 C
HETATM   37  C1  UNL     1       2.245  -6.342   9.905  1.00  0.00     0.011 C
ENDBRANCH   1  36
BRANCH  14  38
HETATM   38  O2  UNL     1       0.248 -10.958   6.659  1.00  0.00    -0.345 OA
BRANCH  38  39
HETATM   39  C24 UNL     1      -1.026 -11.448   6.350  1.00  0.00     0.180 C
BRANCH  39  40
HETATM   40  C25 UNL     1      -1.702 -10.454   5.436  1.00  0.00     0.010 A
HETATM   41  C26 UNL     1      -2.551  -9.391   5.982  1.00  0.00     0.007 A
HETATM   42  C27 UNL     1      -3.218 -10.581   5.335  1.00  0.00     0.007 A
ENDBRANCH  39  40
ENDBRANCH  38  39
ENDBRANCH  14  38
TORSDOF 8
ENDMDL