MODEL 3
REMARK VINA RESULT: -8.796000479      2.010      3.274
REMARK  8 active torsions:
REMARK  status: ('A' for Active; 'I' for Inactive)
REMARK    1  A    between atoms: C5_7  and  N2_8
REMARK    2  A    between atoms: N2_8  and  C6_10
REMARK    3  A    between atoms: C12_18  and  C13_19
REMARK    4  A    between atoms: C13_19  and  N3_20
REMARK    5  A    between atoms: N4_29  and  C21_30
REMARK    6  A    between atoms: C21_30  and  O1_31
REMARK    7  A    between atoms: O1_31  and  C22_32
REMARK    8  A    between atoms: C22_32  and  C23_33
ROOT
HETATM    1  C1  UNL     1       1.149 -15.355  11.148  1.00  0.00     0.089 C
HETATM    2  C2  UNL     1       1.258 -13.866  11.364  1.00  0.00     0.086 A
HETATM    3  N1  UNL     1       1.911 -13.360  12.447  1.00  0.00    -0.344 N
ATOM      4  H1  UNL     1       2.379 -13.903  13.172  1.00  0.00     0.167 HD
HETATM    5  C3  UNL     1       1.829 -12.014  12.392  1.00  0.00     0.063 A
HETATM    6  C4  UNL     1       2.299 -10.994  13.208  1.00  0.00     0.062 A
HETATM    7  C5  UNL     1       2.082  -9.681  12.935  1.00  0.00     0.043 A
HETATM    8  C12 UNL     1       1.353  -9.370  11.779  1.00  0.00    -0.012 A
HETATM    9  C19 UNL     1       0.889 -10.383  10.971  1.00  0.00     0.043 A
HETATM   10  C20 UNL     1       1.117 -11.713  11.261  1.00  0.00     0.069 A
HETATM   11  N4  UNL     1       0.763 -12.871  10.623  1.00  0.00    -0.290 N
ENDROOT
BRANCH  11  12
HETATM   12  C21 UNL     1       0.026 -12.936   9.389  1.00  0.00     0.235 C
BRANCH  12  13
HETATM   13  O1  UNL     1       0.630 -12.376   8.292  1.00  0.00    -0.346 OA
BRANCH  13  14
HETATM   14  C22 UNL     1      -0.154 -12.409   7.188  1.00  0.00     0.181 C
BRANCH  14  15
HETATM   15  C23 UNL     1      -0.688 -11.047   6.784  1.00  0.00     0.017 C
HETATM   16  C24 UNL     1      -2.115 -11.232   6.326  1.00  0.00     0.034 C
HETATM   17  C25 UNL     1      -2.758  -9.875   6.032  1.00  0.00     0.232 C
HETATM   18  N5  UNL     1      -1.737  -8.873   5.876  1.00  0.00    -0.075 N
HETATM   19  C26 UNL     1      -0.669  -9.315   5.014  1.00  0.00     0.237 C
ATOM     20  H52 UNL     1      -2.132  -7.991   5.552  1.00  0.00     0.277 HD
ATOM     21  H51 UNL     1      -1.378  -8.567   6.781  1.00  0.00     0.277 HD
HETATM   22  C27 UNL     1       0.094 -10.493   5.605  1.00  0.00     0.013 C
HETATM   23  C28 UNL     1       0.296 -11.490   4.511  1.00  0.00     0.012 C
ENDBRANCH  14  15
ENDBRANCH  13  14
ENDBRANCH  12  13
ENDBRANCH  11  12
BRANCH   8  24
HETATM   24  C13 UNL     1       1.134  -7.947  11.489  1.00  0.00     0.158 C
BRANCH  24  25
HETATM   25  N3  UNL     1       2.025  -7.310  10.600  1.00  0.00    -0.406 N
HETATM   26  C14 UNL     1       3.252  -7.963  10.303  1.00  0.00     0.117 C
HETATM   27  C15 UNL     1       3.332  -8.475   8.881  1.00  0.00     0.022 C
HETATM   28  C16 UNL     1       1.995  -8.983   8.404  1.00  0.00     0.040 C
HETATM   29  C17 UNL     1       1.031  -7.824   8.416  1.00  0.00     0.187 C
HETATM   30  F1  UNL     1      -0.262  -8.264   8.630  1.00  0.00    -0.248 F
HETATM   31  C18 UNL     1       1.429  -6.764   9.423  1.00  0.00     0.154 C
ENDBRANCH  24  25
ENDBRANCH   8  24
BRANCH   7  32
HETATM   32  N2  UNL     1       2.559  -8.633  13.753  1.00  0.00    -0.353 N
ATOM     33  H2  UNL     1       2.052  -7.748  13.767  1.00  0.00     0.166 HD
BRANCH  32  34
HETATM   34  C6  UNL     1       3.723  -8.772  14.558  1.00  0.00     0.076 A
HETATM   35  C7  UNL     1       3.661  -9.398  15.783  1.00  0.00     0.062 A
HETATM   36 CL1  UNL     1       2.131 -10.043  16.384  1.00  0.00    -0.082 Cl
HETATM   37  C8  UNL     1       4.817  -9.515  16.539  1.00  0.00     0.026 A
HETATM   38  C9  UNL     1       6.030  -9.028  16.111  1.00  0.00     0.003 A
HETATM   39  C10 UNL     1       6.101  -8.402  14.889  1.00  0.00     0.026 A
HETATM   40  C11 UNL     1       4.961  -8.282  14.133  1.00  0.00     0.062 A
HETATM   41 CL2  UNL     1       5.028  -7.479  12.557  1.00  0.00    -0.082 Cl
ENDBRANCH  32  34
ENDBRANCH   7  32
TORSDOF 8
ENDMDL