MODEL 2
REMARK VINA RESULT: -7.134944195      2.310      6.822
REMARK  3 active torsions:
REMARK  status: ('A' for Active; 'I' for Inactive)
REMARK       I    between atoms: N1_2  and  C2_3
REMARK    1  A    between atoms: N1_2  and  C20_27
REMARK    2  A    between atoms: C2_3  and  C3_5
REMARK       I    between atoms: N2_9  and  C7_10
REMARK       I    between atoms: C7_10  and  N3_12
REMARK    3  A    between atoms: N3_12  and  C8_14
ROOT
HETATM    1  C3  UNL     1      -8.866  48.831  -1.733  1.00  0.00     0.181 C
HETATM    2  C4  UNL     1      -9.432  48.153  -0.525  1.00  0.00     0.037 C
HETATM    3  C5  UNL     1      -9.765  46.745  -1.003  1.00  0.00     0.022 C
HETATM    4  C6  UNL     1      -9.771  46.816  -2.504  1.00  0.00     0.129 C
HETATM    5  N2  UNL     1      -9.442  48.156  -2.890  1.00  0.00    -0.321 N
HETATM    6  C7  UNL     1      -9.641  48.726  -4.182  1.00  0.00     0.319 C
HETATM    7  O2  UNL     1     -10.152  48.018  -5.078  1.00  0.00    -0.247 OA
HETATM    8  N3  UNL     1      -9.282  50.061  -4.492  1.00  0.00    -0.335 N
ATOM      9  H3  UNL     1      -8.864  50.652  -3.774  1.00  0.00     0.164 HD
ENDROOT
BRANCH   8  10
HETATM   10  C8  UNL     1      -9.503  50.595  -5.822  1.00  0.00     0.130 C
HETATM   11  C9  UNL     1     -10.478  51.730  -5.682  1.00  0.00     0.012 C
HETATM   12  C10 UNL     1     -11.168  52.115  -6.934  1.00  0.00     0.011 C
HETATM   13  C19 UNL     1      -9.839  52.954  -5.046  1.00  0.00     0.011 C
HETATM   14  C11 UNL     1     -10.401  52.912  -7.912  1.00  0.00    -0.014 C
HETATM   15  C12 UNL     1      -9.781  52.150  -9.033  1.00  0.00     0.005 C
HETATM   16  C18 UNL     1      -9.365  53.836  -7.334  1.00  0.00     0.009 C
HETATM   17  C13 UNL     1      -9.314  50.769  -8.729  1.00  0.00     0.004 C
HETATM   18  C14 UNL     1      -8.090  50.655  -7.903  1.00  0.00     0.045 C
HETATM   19  C15 UNL     1      -8.195  50.958  -6.455  1.00  0.00     0.124 C
HETATM   20  F1  UNL     1      -7.231  50.142  -5.823  1.00  0.00    -0.241 F
HETATM   21  C16 UNL     1      -7.725  52.353  -6.210  1.00  0.00     0.050 C
HETATM   22  C17 UNL     1      -8.773  53.387  -6.052  1.00  0.00    -0.011 C
ENDBRANCH   8  10
BRANCH   1  23
HETATM   23  C2  UNL     1      -7.378  48.784  -1.785  1.00  0.00     0.242 C
HETATM   24  N1  UNL     1      -6.565  49.898  -2.079  1.00  0.00    -0.350 N
HETATM   25  C1  UNL     1      -5.127  49.744  -2.080  1.00  0.00     0.153 C
HETATM   26  O1  UNL     1      -6.800  47.671  -1.551  1.00  0.00    -0.271 OA
BRANCH  24  27
HETATM   27  C20 UNL     1      -7.158  51.157  -2.388  1.00  0.00     0.086 C
HETATM   28  C21 UNL     1      -7.309  52.130  -1.211  1.00  0.00     0.025 C
HETATM   29  C22 UNL     1      -7.060  53.243  -2.241  1.00  0.00     0.004 C
HETATM   30  C23 UNL     1      -6.201  52.206  -2.980  1.00  0.00     0.025 C
ENDBRANCH  24  27
ENDBRANCH   1  23
TORSDOF 3
ENDMDL