MODEL 5
REMARK VINA RESULT: -6.538713923      1.200      1.346
REMARK  3 active torsions:
REMARK  status: ('A' for Active; 'I' for Inactive)
REMARK    1  A    between atoms: C11_11  and  N1_12
REMARK    2  A    between atoms: N1_12  and  C12_14
REMARK    3  A    between atoms: N2_28  and  C24_29
ROOT
HETATM    1  C1  UNL     1      -3.148  52.036  -9.163  1.00  0.00     0.013 C
HETATM    2  C2  UNL     1      -4.267  51.007  -9.095  1.00  0.00     0.014 C
HETATM    3  C3  UNL     1      -4.244  50.317  -7.733  1.00  0.00     0.095 C
HETATM    4  C4  UNL     1      -5.359  50.856  -7.073  1.00  0.00     0.013 C
HETATM    5  C5  UNL     1      -5.479  52.375  -6.969  1.00  0.00     0.007 C
HETATM    6  C6  UNL     1      -6.709  52.787  -6.192  1.00  0.00     0.009 C
HETATM    7  C7  UNL     1      -7.804  51.839  -6.513  1.00  0.00     0.030 C
HETATM    8  C8  UNL     1      -7.585  51.392  -7.970  1.00  0.00    -0.002 C
HETATM    9  C9  UNL     1      -8.957  50.839  -8.321  1.00  0.00     0.015 C
HETATM   10  C10 UNL     1      -9.917  51.297  -7.280  1.00  0.00     0.049 C
HETATM   11  C11 UNL     1     -11.261  51.680  -7.766  1.00  0.00     0.091 C
HETATM   12  C13 UNL     1     -11.770  52.835  -6.934  1.00  0.00     0.026 C
HETATM   13  C14 UNL     1     -11.315  52.757  -5.495  1.00  0.00     0.009 C
HETATM   14  C15 UNL     1      -9.823  52.775  -5.344  1.00  0.00     0.022 C
HETATM   15  C16 UNL     1      -9.462  51.826  -4.226  1.00  0.00     0.013 C
HETATM   16  C17 UNL     1      -9.166  52.455  -6.631  1.00  0.00     0.116 C
HETATM   17  F1  UNL     1      -9.070  53.541  -7.467  1.00  0.00    -0.242 F
HETATM   18  C18 UNL     1      -6.546  50.284  -7.878  1.00  0.00    -0.004 C
HETATM   19  C19 UNL     1      -6.364  49.661  -9.148  1.00  0.00     0.006 C
HETATM   20  C20 UNL     1      -5.168  48.958  -9.680  1.00  0.00     0.011 C
HETATM   21  C21 UNL     1      -3.921  49.746  -9.846  1.00  0.00    -0.023 C
HETATM   22  C22 UNL     1      -3.513  49.995 -11.260  1.00  0.00     0.017 C
HETATM   23  C23 UNL     1      -2.712  49.371  -8.969  1.00  0.00     0.135 C
HETATM   24  N2  UNL     1      -2.906  50.148  -7.728  1.00  0.00    -0.353 N
ENDROOT
BRANCH  11  25
HETATM   25  N1  UNL     1     -11.321  52.026  -9.160  1.00  0.00    -0.363 N
ATOM     26  H1  UNL     1     -10.473  51.926  -9.718  1.00  0.00     0.162 HD
BRANCH  25  27
HETATM   27  C12 UNL     1     -12.485  52.496  -9.800  1.00  0.00     0.348 C
HETATM   28  O1  UNL     1     -13.236  51.700 -10.405  1.00  0.00    -0.284 OA
ENDBRANCH  25  27
ENDBRANCH  11  25
BRANCH  24  29
HETATM   29  C24 UNL     1      -1.867  50.528  -6.881  1.00  0.00     0.351 C
HETATM   30  O2  UNL     1      -2.053  51.252  -5.847  1.00  0.00    -0.284 OA
ENDBRANCH  24  29
TORSDOF 3
ENDMDL