MODEL 5
REMARK VINA RESULT: -7.165990495      3.677      4.704
REMARK  3 active torsions:
REMARK  status: ('A' for Active; 'I' for Inactive)
REMARK    1  A    between atoms: C2_2  and  C3_3
REMARK       I    between atoms: C3_3  and  N1_5
REMARK    2  A    between atoms: C8_10  and  N2_11
REMARK       I    between atoms: N2_11  and  C9_13
REMARK    3  A    between atoms: C9_13  and  C10_15
ROOT
HETATM    1  C3  UNL     1      -7.109  53.864  -3.527  1.00  0.00     0.234 C
HETATM    2  O1  UNL     1      -7.397  55.128  -3.511  1.00  0.00    -0.272 OA
HETATM    3  N1  UNL     1      -7.547  53.190  -4.661  1.00  0.00    -0.287 N
HETATM    4  C4  UNL     1      -8.275  53.973  -5.683  1.00  0.00     0.135 C
HETATM    5  C5  UNL     1      -8.357  53.248  -6.982  1.00  0.00     0.032 C
HETATM    6  C6  UNL     1      -8.975  51.873  -6.897  1.00  0.00    -0.010 C
HETATM    7  C7  UNL     1      -8.655  51.164  -8.200  1.00  0.00     0.018 C
HETATM    8  C8  UNL     1     -10.448  51.893  -6.620  1.00  0.00     0.093 C
HETATM    9  C13 UNL     1     -10.681  50.633  -5.772  1.00  0.00     0.027 C
HETATM   10  C14 UNL     1      -9.514  50.668  -4.849  1.00  0.00     0.017 C
HETATM   11  C15 UNL     1      -8.374  51.052  -5.779  1.00  0.00     0.088 C
HETATM   12  C16 UNL     1      -7.394  51.825  -4.982  1.00  0.00     0.231 C
HETATM   13  O3  UNL     1      -6.383  51.222  -4.580  1.00  0.00    -0.273 OA
ENDROOT
BRANCH   1  14
HETATM   14  C2  UNL     1      -6.382  53.402  -2.353  1.00  0.00     0.038 C
HETATM   15  C1  UNL     1      -4.984  52.988  -2.853  1.00  0.00     0.025 C
HETATM   16  C17 UNL     1      -6.251  54.338  -1.213  1.00  0.00     0.020 C
HETATM   17  C18 UNL     1      -6.656  53.621   0.085  1.00  0.00     0.021 C
HETATM   18  C19 UNL     1      -8.100  53.226   0.054  1.00  0.00     0.082 C
HETATM   19 CL1  UNL     1      -8.505  52.492   1.608  1.00  0.00    -0.125 Cl
HETATM   20  C20 UNL     1      -8.268  52.256  -1.093  1.00  0.00     0.021 C
HETATM   21  C21 UNL     1      -7.014  52.099  -1.866  1.00  0.00     0.020 C
ENDBRANCH   1  14
BRANCH   8  22
HETATM   22  N2  UNL     1     -11.262  51.711  -7.801  1.00  0.00    -0.355 N
HETATM   23  C9  UNL     1     -12.545  52.318  -7.826  1.00  0.00     0.222 C
HETATM   24  O2  UNL     1     -12.966  52.996  -6.851  1.00  0.00    -0.273 OA
ATOM     25  H2  UNL     1     -10.924  51.163  -8.593  1.00  0.00     0.162 HD
BRANCH  23  26
HETATM   26  C10 UNL     1     -13.465  52.195  -8.990  1.00  0.00     0.078 A
HETATM   27  C11 UNL     1     -12.994  51.527 -10.236  1.00  0.00     0.015 A
HETATM   28  C12 UNL     1     -13.077  53.001 -10.246  1.00  0.00     0.015 A
ENDBRANCH  23  26
ENDBRANCH   8  22
TORSDOF 3
ENDMDL