MODEL 5
REMARK VINA RESULT: -5.967012481      1.674      1.968
REMARK  3 active torsions:
REMARK  status: ('A' for Active; 'I' for Inactive)
REMARK    1  A    between atoms: C2_2  and  C3_3
REMARK    2  A    between atoms: C3_3  and  C6_6
REMARK    3  A    between atoms: C11_12  and  C13_14
REMARK       I    between atoms: C13_14  and  N1_16
ROOT
HETATM    1  C6  UNL     1      -8.822  51.872  -6.634  1.00  0.00    -0.017 C
HETATM    2  C7  UNL     1      -9.126  52.875  -7.730  1.00  0.00     0.018 C
HETATM    3  C8  UNL     1      -8.051  52.768  -5.606  1.00  0.00     0.012 C
HETATM    4  C9  UNL     1      -6.651  52.848  -6.096  1.00  0.00     0.018 C
HETATM    5  C10 UNL     1      -6.569  51.854  -7.179  1.00  0.00     0.076 C
HETATM    6 BR1  UNL     1      -4.923  50.879  -7.265  1.00  0.00    -0.090 Br
HETATM    7  C11 UNL     1      -7.779  50.903  -6.971  1.00  0.00     0.059 C
HETATM    8  C12 UNL     1      -7.817  50.270  -8.346  1.00  0.00     0.027 C
ENDROOT
BRANCH   7   9
HETATM    9  C13 UNL     1      -7.344  49.980  -5.929  1.00  0.00     0.231 C
HETATM   10  O1  UNL     1      -7.189  50.502  -4.766  1.00  0.00    -0.272 OA
HETATM   11  N1  UNL     1      -7.059  48.594  -5.972  1.00  0.00    -0.332 N
HETATM   12  C14 UNL     1      -7.162  47.801  -7.210  1.00  0.00     0.147 C
HETATM   13  C17 UNL     1      -6.638  47.799  -4.840  1.00  0.00     0.109 C
HETATM   14  C15 UNL     1      -7.034  46.328  -7.035  1.00  0.00     0.142 C
HETATM   15  N2  UNL     1      -7.624  45.787  -5.855  1.00  0.00    -0.357 N
HETATM   16  C16 UNL     1      -7.510  46.575  -4.681  1.00  0.00     0.245 C
ATOM     17  H2  UNL     1      -8.101  44.886  -5.856  1.00  0.00     0.162 HD
HETATM   18  O2  UNL     1      -8.090  46.254  -3.638  1.00  0.00    -0.271 OA
HETATM   19  C18 UNL     1      -5.197  47.376  -5.133  1.00  0.00     0.049 C
HETATM   20  C19 UNL     1      -6.625  48.423  -3.504  1.00  0.00     0.049 C
ENDBRANCH   7   9
BRANCH   1  21
HETATM   21  C3  UNL     1     -10.121  51.498  -6.052  1.00  0.00    -0.022 C
HETATM   22  C4  UNL     1     -10.252  52.288  -4.731  1.00  0.00     0.020 C
HETATM   23  C5  UNL     1     -10.364  50.088  -5.659  1.00  0.00     0.020 C
BRANCH  21  24
HETATM   24  C2  UNL     1     -11.274  51.915  -6.883  1.00  0.00    -0.027 C
HETATM   25  C1  UNL     1     -12.478  52.246  -6.404  1.00  0.00     0.007 C
ENDBRANCH  21  24
ENDBRANCH   1  21
TORSDOF 3
ENDMDL