MODEL 2
REMARK VINA RESULT: -7.219267149      1.230      1.357
REMARK  3 active torsions:
REMARK  status: ('A' for Active; 'I' for Inactive)
REMARK       I    between atoms: C1_2  and  N1_3
REMARK    1  A    between atoms: C1_2  and  C6_9
REMARK    2  A    between atoms: N1_3  and  C2_5
REMARK    3  A    between atoms: N2_13  and  C9_14
ROOT
HETATM    1  C6  UNL     1      -8.979  49.126  -5.482  1.00  0.00     0.102 C
HETATM    2  C7  UNL     1      -9.996  49.701  -4.494  1.00  0.00     0.100 C
HETATM    3  C8  UNL     1      -9.159  50.800  -3.972  1.00  0.00     0.226 C
HETATM    4  O2  UNL     1      -9.653  51.706  -3.252  1.00  0.00    -0.273 OA
HETATM    5  N2  UNL     1      -7.749  50.914  -4.245  1.00  0.00    -0.346 N
HETATM    6  C12 UNL     1      -6.923  49.720  -4.595  1.00  0.00     0.137 C
HETATM    7  C13 UNL     1      -7.919  48.653  -4.583  1.00  0.00    -0.004 C
HETATM    8  C14 UNL     1      -7.723  47.285  -5.115  1.00  0.00     0.039 C
HETATM    9  C15 UNL     1      -9.067  46.598  -5.023  1.00  0.00    -0.029 C
HETATM   10  C16 UNL     1     -10.281  47.188  -4.540  1.00  0.00    -0.025 C
HETATM   11  C17 UNL     1     -10.291  48.490  -3.709  1.00  0.00     0.026 C
HETATM   12  C18 UNL     1      -9.430  48.146  -2.584  1.00  0.00    -0.001 C
HETATM   13  C19 UNL     1      -9.629  48.729  -1.238  1.00  0.00     0.007 C
HETATM   14  C20 UNL     1      -8.281  48.521  -0.536  1.00  0.00     0.020 C
HETATM   15  C21 UNL     1      -7.498  47.369  -1.029  1.00  0.00     0.082 C
HETATM   16 CL1  UNL     1      -5.921  47.408  -0.179  1.00  0.00    -0.125 Cl
HETATM   17  C22 UNL     1      -7.197  47.359  -2.536  1.00  0.00     0.026 C
HETATM   18  C23 UNL     1      -8.083  48.456  -3.109  1.00  0.00     0.003 C
ENDROOT
BRANCH   1  19
HETATM   19  C1  UNL     1      -8.661  50.059  -6.569  1.00  0.00     0.223 C
HETATM   20  O1  UNL     1      -7.567  50.064  -7.151  1.00  0.00    -0.273 OA
HETATM   21  N1  UNL     1      -9.615  51.012  -7.015  1.00  0.00    -0.356 N
ATOM     22  H1  UNL     1     -10.530  51.044  -6.565  1.00  0.00     0.162 HD
BRANCH  21  23
HETATM   23  C2  UNL     1      -9.322  51.956  -8.106  1.00  0.00     0.084 C
HETATM   24  C3  UNL     1     -10.320  51.956  -9.217  1.00  0.00     0.025 C
HETATM   25  C4  UNL     1     -10.856  53.285  -8.723  1.00  0.00     0.004 C
HETATM   26  C5  UNL     1      -9.751  53.349  -7.700  1.00  0.00     0.025 C
ENDBRANCH  21  23
ENDBRANCH   1  19
BRANCH   5  27
HETATM   27  C9  UNL     1      -7.012  52.158  -4.198  1.00  0.00     0.087 A
HETATM   28  C10 UNL     1      -7.132  53.076  -5.380  1.00  0.00     0.027 A
HETATM   29  C11 UNL     1      -5.840  52.426  -5.028  1.00  0.00     0.027 A
ENDBRANCH   5  27
TORSDOF 3
ENDMDL