MODEL 3
REMARK VINA RESULT: -6.678867995      4.372      6.575
REMARK  3 active torsions:
REMARK  status: ('A' for Active; 'I' for Inactive)
REMARK    1  A    between atoms: C2_2  and  N1_4
REMARK       I    between atoms: N1_4  and  C4_5
REMARK    2  A    between atoms: N1_4  and  C17_24
REMARK       I    between atoms: N3_7  and  C5_9
REMARK    3  A    between atoms: C5_9  and  C6_11
ROOT
HETATM    1  C6  UNL     1      -8.486  52.556  -5.397  1.00  0.00     0.045 C
HETATM    2  C7  UNL     1      -9.633  52.034  -4.570  1.00  0.00     0.024 C
HETATM    3  C8  UNL     1     -10.519  51.130  -5.417  1.00  0.00    -0.010 C
HETATM    4  C9  UNL     1     -11.017  51.937  -6.568  1.00  0.00     0.026 C
HETATM    5  C10 UNL     1      -9.851  52.360  -7.432  1.00  0.00     0.021 C
HETATM    6 BR1  UNL     1     -10.499  53.258  -9.011  1.00  0.00    -0.085 Br
HETATM    7  C11 UNL     1      -9.068  51.148  -7.879  1.00  0.00     0.045 C
HETATM    8  C12 UNL     1      -8.501  50.464  -6.651  1.00  0.00     0.052 C
HETATM    9  C13 UNL     1      -7.718  49.307  -7.122  1.00  0.00     0.069 C
HETATM   10  N4  UNL     1      -7.117  48.384  -7.484  1.00  0.00    -0.196 NA
HETATM   11  C14 UNL     1      -9.659  49.961  -5.840  1.00  0.00     0.029 C
HETATM   12  C15 UNL     1      -7.623  51.430  -5.912  1.00  0.00     0.044 C
HETATM   13  C16 UNL     1      -8.998  53.296  -6.609  1.00  0.00     0.040 C
ENDROOT
BRANCH   1  14
HETATM   14  C5  UNL     1      -7.703  53.499  -4.539  1.00  0.00     0.233 C
HETATM   15  N3  UNL     1      -6.581  53.155  -3.827  1.00  0.00    -0.300 N
HETATM   16  C4  UNL     1      -5.524  53.695  -3.457  1.00  0.00     0.193 C
ATOM     17  H3  UNL     1      -6.628  52.186  -3.514  1.00  0.00     0.171 HD
HETATM   18  N1  UNL     1      -5.033  55.013  -3.659  1.00  0.00    -0.347 N
HETATM   19  N2  UNL     1      -4.636  52.831  -2.687  1.00  0.00    -0.063 NA
HETATM   20  O1  UNL     1      -8.127  54.679  -4.485  1.00  0.00    -0.272 OA
BRANCH  18  21
HETATM   21  C2  UNL     1      -4.186  55.221  -4.807  1.00  0.00     0.079 C
HETATM   22  C1  UNL     1      -2.712  55.348  -4.452  1.00  0.00     0.032 C
HETATM   23  C3  UNL     1      -4.315  54.172  -5.877  1.00  0.00     0.032 C
ENDBRANCH  18  21
BRANCH  18  24
HETATM   24  C17 UNL     1      -5.314  56.097  -2.773  1.00  0.00     0.079 C
HETATM   25  C18 UNL     1      -5.768  57.370  -3.391  1.00  0.00     0.032 C
HETATM   26  C19 UNL     1      -6.317  55.719  -1.693  1.00  0.00     0.032 C
ENDBRANCH  18  24
ENDBRANCH   1  14
TORSDOF 3
ENDMDL