MODEL 5
REMARK VINA RESULT: -6.094005114      5.029      9.125
REMARK  3 active torsions:
REMARK  status: ('A' for Active; 'I' for Inactive)
REMARK    1  A    between atoms: C11_11  and  N1_12
REMARK    2  A    between atoms: N1_12  and  S1_14
REMARK    3  A    between atoms: C13_18  and  C14_19
ROOT
HETATM    1  C1  UNL     1      -3.941  61.541  -5.533  1.00  0.00     0.043 C
HETATM    2  C2  UNL     1      -4.179  60.652  -4.377  1.00  0.00    -0.083 C
HETATM    3  C3  UNL     1      -5.138  60.820  -3.474  1.00  0.00    -0.024 C
HETATM    4  C4  UNL     1      -5.021  59.683  -2.472  1.00  0.00     0.033 C
HETATM    5  C5  UNL     1      -3.576  59.451  -2.548  1.00  0.00     0.002 C
HETATM    6  C6  UNL     1      -3.372  59.439  -4.053  1.00  0.00     0.018 C
HETATM    7  C7  UNL     1      -3.801  58.201  -4.729  1.00  0.00     0.010 C
HETATM    8  C8  UNL     1      -4.068  56.997  -3.916  1.00  0.00     0.012 C
HETATM    9  C9  UNL     1      -3.592  56.936  -2.534  1.00  0.00    -0.018 C
HETATM   10  C10 UNL     1      -2.460  55.886  -2.448  1.00  0.00     0.018 C
HETATM   11  C11 UNL     1      -4.641  56.356  -1.558  1.00  0.00     0.106 C
HETATM   12  C13 UNL     1      -4.087  56.277  -0.182  1.00  0.00     0.020 C
HETATM   13  C15 UNL     1      -3.732  57.659   0.341  1.00  0.00     0.012 C
HETATM   14  C16 UNL     1      -2.692  58.213  -0.554  1.00  0.00    -0.013 C
HETATM   15  C17 UNL     1      -2.372  59.663  -0.164  1.00  0.00     0.010 C
HETATM   16  C18 UNL     1      -2.975  58.204  -2.016  1.00  0.00     0.004 C
ENDROOT
BRANCH  11  17
HETATM   17  N1  UNL     1      -5.034  55.058  -2.023  1.00  0.00    -0.314 N
ATOM     18  H1  UNL     1      -4.375  54.282  -2.093  1.00  0.00     0.172 HD
BRANCH  17  19
HETATM   19  S1  UNL     1      -6.674  54.899  -2.450  1.00  0.00     0.223 S
HETATM   20  C12 UNL     1      -6.946  54.073  -3.999  1.00  0.00     0.185 C
HETATM   21  O1  UNL     1      -7.284  56.286  -2.596  1.00  0.00    -0.206 OA
HETATM   22  O2  UNL     1      -7.479  54.114  -1.434  1.00  0.00    -0.206 OA
ENDBRANCH  17  19
ENDBRANCH  11  17
BRANCH  12  23
HETATM   23  C14 UNL     1      -5.103  55.694   0.760  1.00  0.00     0.091 C
HETATM   24 BR1  UNL     1      -6.573  56.988   0.888  1.00  0.00    -0.096 Br
ENDBRANCH  12  23
TORSDOF 3
ENDMDL