MODEL 1
REMARK VINA RESULT: -7.254718644      0.000      0.000
REMARK  3 active torsions:
REMARK  status: ('A' for Active; 'I' for Inactive)
REMARK    1  A    between atoms: C2_2  and  N1_3
REMARK       I    between atoms: N1_3  and  C4_5
REMARK    2  A    between atoms: C4_5  and  C5_7
REMARK    3  A    between atoms: C10_12  and  C11_13
REMARK       I    between atoms: C11_13  and  N2_15
ROOT
HETATM    1  C5  UNL     1      -9.839  50.214  -4.484  1.00  0.00     0.097 C
HETATM    2  C6  UNL     1     -10.623  50.420  -5.793  1.00  0.00     0.030 C
HETATM    3  C7  UNL     1     -10.567  51.881  -6.069  1.00  0.00    -0.007 C
HETATM    4  C8  UNL     1     -11.878  52.575  -5.711  1.00  0.00     0.016 C
HETATM    5  C9  UNL     1     -12.662  52.696  -7.015  1.00  0.00     0.016 C
HETATM    6  C10 UNL     1     -11.848  51.892  -8.002  1.00  0.00     0.087 C
HETATM    7  C13 UNL     1     -10.445  52.225  -7.537  1.00  0.00    -0.020 C
HETATM    8  C14 UNL     1      -9.401  51.429  -8.241  1.00  0.00     0.017 C
HETATM    9  C15 UNL     1     -10.121  53.689  -7.606  1.00  0.00     0.014 C
HETATM   10  C16 UNL     1      -8.717  53.865  -7.067  1.00  0.00     0.028 C
HETATM   11  C17 UNL     1      -8.583  53.268  -5.711  1.00  0.00    -0.022 C
HETATM   12  C18 UNL     1      -9.434  52.359  -5.261  1.00  0.00    -0.059 C
HETATM   13  C19 UNL     1      -9.566  51.584  -3.968  1.00  0.00     0.100 C
HETATM   14 BR1  UNL     1      -8.084  51.768  -2.804  1.00  0.00    -0.086 Br
ENDROOT
BRANCH   1  15
HETATM   15  C4  UNL     1      -8.613  49.447  -4.741  1.00  0.00     0.225 C
HETATM   16  N1  UNL     1      -8.191  48.391  -3.899  1.00  0.00    -0.356 N
HETATM   17  C3  UNL     1      -6.952  47.667  -4.256  1.00  0.00     0.152 C
HETATM   18  O1  UNL     1      -7.921  49.746  -5.752  1.00  0.00    -0.273 OA
BRANCH  16  19
HETATM   19  C2  UNL     1      -8.868  47.956  -2.713  1.00  0.00     0.120 C
HETATM   20  C1  UNL     1     -10.033  47.054  -3.109  1.00  0.00     0.026 C
ENDBRANCH  16  19
ENDBRANCH   1  15
BRANCH   6  21
HETATM   21  C11 UNL     1     -12.114  52.185  -9.403  1.00  0.00     0.222 C
HETATM   22  O2  UNL     1     -12.941  53.074  -9.707  1.00  0.00    -0.273 OA
HETATM   23  N2  UNL     1     -11.462  51.492 -10.453  1.00  0.00    -0.365 N
HETATM   24  C12 UNL     1     -11.714  51.770 -11.852  1.00  0.00     0.149 C
ATOM     25  H2  UNL     1     -10.787  50.766 -10.213  1.00  0.00     0.161 HD
ENDBRANCH   6  21
TORSDOF 3
ENDMDL