MODEL 4
REMARK VINA RESULT: -5.368679831      3.989      5.722
REMARK  4 active torsions:
REMARK  status: ('A' for Active; 'I' for Inactive)
REMARK    1  A    between atoms: C2_2  and  C4_4
REMARK    2  A    between atoms: C5_5  and  N1_6
REMARK    3  A    between atoms: C10_16  and  N4_17
REMARK    4  A    between atoms: C11_24  and  N7_25
ROOT
HETATM    1  N1  UNL     1      12.290  14.706  68.149  1.00  0.00    -0.327 N
ATOM      2  H1  UNL     1      11.759  14.841  67.289  1.00  0.00     0.169 HD
HETATM    3  C6  UNL     1      13.078  13.729  68.098  1.00  0.00     0.125 A
HETATM    4  N2  UNL     1      13.868  13.296  69.075  1.00  0.00    -0.338 N
ATOM      5  H2  UNL     1      13.673  13.561  70.040  1.00  0.00     0.168 HD
HETATM    6  C7  UNL     1      14.914  12.518  68.801  1.00  0.00     0.183 A
HETATM    7  N3  UNL     1      15.206  12.142  67.530  1.00  0.00    -0.338 N
ATOM      8  H3  UNL     1      16.015  11.545  67.354  1.00  0.00     0.168 HD
HETATM    9  C8  UNL     1      14.441  12.550  66.501  1.00  0.00     0.125 A
HETATM   10  C9  UNL     1      13.389  13.328  66.784  1.00  0.00     0.096 A
HETATM   11  C10 UNL     1      13.035  13.448  65.386  1.00  0.00     0.118 A
HETATM   12  N5  UNL     1      14.221  12.582  65.084  1.00  0.00    -0.327 N
ATOM     13  H5  UNL     1      14.667  12.194  64.253  1.00  0.00     0.169 HD
ENDROOT
BRANCH   1  14
HETATM   14  C5  UNL     1      11.990  15.643  69.134  1.00  0.00     0.134 A
HETATM   15  C4  UNL     1      12.725  16.759  69.417  1.00  0.00     0.058 A
HETATM   16  C14 UNL     1      12.419  17.453  70.553  1.00  0.00     0.270 A
HETATM   17  N8  UNL     1      11.410  17.011  71.358  1.00  0.00    -0.155 N
HETATM   18  O1  UNL     1      13.007  18.474  70.901  1.00  0.00    -0.267 OA
HETATM   19  C11 UNL     1      10.674  15.900  71.089  1.00  0.00     0.684 A
ATOM     20  H8  UNL     1      11.198  17.540  72.205  1.00  0.00     0.187 HD
HETATM   21  N6  UNL     1      10.966  15.228  69.980  1.00  0.00    -0.176 N
ATOM     22  H6  UNL     1      10.429  14.392  69.744  1.00  0.00     0.186 HD
BRANCH  15  23
HETATM   23  C2  UNL     1      13.692  17.270  68.443  1.00  0.00     0.020 C
HETATM   24  C1  UNL     1      15.101  17.141  69.034  1.00  0.00     0.015 C
HETATM   25  C3  UNL     1      13.467  18.795  68.273  1.00  0.00     0.015 C
ENDBRANCH  15  23
BRANCH  19  26
HETATM   26  N7  UNL     1       9.660  15.428  71.961  1.00  0.00    -0.226 N
HETATM   27  C12 UNL     1       9.469  13.990  72.161  1.00  0.00     0.168 C
HETATM   28  C13 UNL     1       8.849  16.420  72.624  1.00  0.00     0.168 C
ENDBRANCH  19  26
ENDBRANCH   1  14
BRANCH  11  29
HETATM   29  N4  UNL     1      12.113  13.789  64.627  1.00  0.00    -0.385 N
ATOM     30  H42 UNL     1      11.309  13.241  64.318  1.00  0.00     0.157 HD
ATOM     31  H41 UNL     1      11.646  14.606  64.234  1.00  0.00     0.157 HD
ENDBRANCH  11  29
TORSDOF 4
ENDMDL