MODEL 4
REMARK VINA RESULT: -5.368791111      8.000     10.667
REMARK  6 active torsions:
REMARK  status: ('A' for Active; 'I' for Inactive)
REMARK    1  A    between atoms: C2_2  and  C8_13
REMARK    2  A    between atoms: N1_3  and  N2_5
REMARK       I    between atoms: N2_5  and  C3_6
REMARK    3  A    between atoms: C3_6  and  O2_8
REMARK    4  A    between atoms: O2_8  and  C4_9
REMARK    5  A    between atoms: C10_22  and  N6_23
REMARK    6  A    between atoms: N6_23  and  C11_25
ROOT
HETATM    1  C8  UNL     1      13.201  17.463  68.641  1.00  0.00     0.161 A
HETATM    2  N3  UNL     1      12.528  16.919  69.669  1.00  0.00    -0.174 N
ATOM      3  H3  UNL     1      12.392  17.480  70.510  1.00  0.00     0.186 HD
HETATM    4  C9  UNL     1      12.021  15.663  69.645  1.00  0.00     0.692 A
HETATM    5  N4  UNL     1      11.405  15.101  70.609  1.00  0.00    -0.234 N
ATOM      6  H41 UNL     1      11.024  14.156  70.591  1.00  0.00     0.174 HD
ATOM      7  H42 UNL     1      11.265  15.663  71.449  1.00  0.00     0.174 HD
HETATM    8  N5  UNL     1      12.208  14.907  68.512  1.00  0.00    -0.023 N
ATOM      9  H5  UNL     1      11.844  13.956  68.452  1.00  0.00     0.203 HD
HETATM   10  C10 UNL     1      12.877  15.444  67.495  1.00  0.00     0.694 A
HETATM   11  N7  UNL     1      13.363  16.697  67.562  1.00  0.00    -0.174 N
ATOM     12  H7  UNL     1      13.871  17.072  66.761  1.00  0.00     0.186 HD
ENDROOT
BRANCH   1  13
HETATM   13  C2  UNL     1      13.682  18.867  68.678  1.00  0.00     0.080 C
HETATM   14  C1  UNL     1      14.658  19.201  69.740  1.00  0.00     0.075 C
HETATM   15  N1  UNL     1      13.283  19.656  67.823  1.00  0.00    -0.231 N
ATOM     16  H1  UNL     1      12.625  19.130  67.247  1.00  0.00     0.202 HD
BRANCH  15  17
HETATM   17  N2  UNL     1      13.314  20.814  67.333  1.00  0.00    -0.258 NA
HETATM   18  C3  UNL     1      13.348  22.066  66.803  1.00  0.00     0.459 C
HETATM   19  O1  UNL     1      14.306  22.681  66.205  1.00  0.00    -0.219 OA
BRANCH  18  20
HETATM   20  O2  UNL     1      12.204  22.892  66.870  1.00  0.00    -0.281 OA
BRANCH  20  21
HETATM   21  C4  UNL     1      11.694  23.449  68.028  1.00  0.00     0.062 C
HETATM   22  C5  UNL     1      10.576  22.707  68.695  1.00  0.00     0.046 C
HETATM   23  C6  UNL     1      11.098  24.809  67.626  1.00  0.00     0.046 C
HETATM   24  C7  UNL     1      12.781  23.752  69.053  1.00  0.00     0.046 C
ENDBRANCH  20  21
ENDBRANCH  18  20
ENDBRANCH  15  17
ENDBRANCH   1  13
BRANCH  10  25
HETATM   25  N6  UNL     1      13.076  14.736  66.431  1.00  0.00    -0.221 N
ATOM     26  H6  UNL     1      12.330  14.127  66.096  1.00  0.00     0.178 HD
BRANCH  25  27
HETATM   27  C11 UNL     1      14.327  14.780  65.701  1.00  0.00     0.099 C
HETATM   28  C12 UNL     1      15.158  13.531  65.849  1.00  0.00     0.026 C
HETATM   29  C13 UNL     1      14.578  13.020  64.556  1.00  0.00     0.004 C
HETATM   30  C14 UNL     1      14.086  14.404  64.254  1.00  0.00     0.026 C
ENDBRANCH  25  27
ENDBRANCH  10  25
TORSDOF 6
ENDMDL