MODEL 4
REMARK VINA RESULT: -5.861121177      5.359      7.452
REMARK  6 active torsions:
REMARK  status: ('A' for Active; 'I' for Inactive)
REMARK    1  A    between atoms: C2_2  and  N1_4
REMARK    2  A    between atoms: C4_8  and  C5_9
REMARK       I    between atoms: C5_9  and  N4_11
REMARK    3  A    between atoms: N4_11  and  N5_13
REMARK    4  A    between atoms: N5_13  and  C6_15
REMARK    5  A    between atoms: C6_15  and  N6_17
REMARK    6  A    between atoms: N6_17  and  C7_19
ROOT
HETATM    1  C5  UNL     1      12.444  11.762  67.680  1.00  0.00     0.291 C
HETATM    2  O1  UNL     1      12.557  12.557  68.675  1.00  0.00    -0.264 OA
HETATM    3  N4  UNL     1      12.220  12.250  66.371  1.00  0.00    -0.262 N
ATOM      4  H4  UNL     1      12.131  11.610  65.582  1.00  0.00     0.190 HD
ENDROOT
BRANCH   3   5
HETATM    5  N5  UNL     1      12.127  13.609  66.192  1.00  0.00    -0.274 N
ATOM      6  H5  UNL     1      11.248  14.086  66.395  1.00  0.00     0.189 HD
BRANCH   5   7
HETATM    7  C6  UNL     1      13.237  14.355  65.729  1.00  0.00     0.186 C
HETATM    8  S1  UNL     1      14.049  15.267  66.827  1.00  0.00    -0.040 SA
BRANCH   7   9
HETATM    9  N6  UNL     1      13.610  14.325  64.359  1.00  0.00    -0.361 N
ATOM     10  H6  UNL     1      13.069  14.870  63.687  1.00  0.00     0.162 HD
BRANCH   9  11
HETATM   11  C7  UNL     1      14.720  13.554  63.891  1.00  0.00     0.083 C
HETATM   12  C8  UNL     1      15.139  12.591  65.017  1.00  0.00     0.025 C
HETATM   13  C9  UNL     1      16.605  12.295  64.825  1.00  0.00     0.002 C
HETATM   14  C10 UNL     1      17.372  13.509  65.361  1.00  0.00     0.000 C
HETATM   15  C11 UNL     1      16.759  14.762  64.751  1.00  0.00     0.002 C
HETATM   16  C12 UNL     1      15.939  14.380  63.529  1.00  0.00     0.025 C
ENDBRANCH   9  11
ENDBRANCH   7   9
ENDBRANCH   5   7
ENDBRANCH   3   5
BRANCH   1  17
HETATM   17  C4  UNL     1      12.550  10.331  67.918  1.00  0.00     0.158 A
HETATM   18  N3  UNL     1      11.601   9.389  67.873  1.00  0.00    -0.276 N
HETATM   19  N2  UNL     1      12.127   8.189  68.158  1.00  0.00    -0.018 NA
ATOM     20  H3  UNL     1      10.619   9.559  67.654  1.00  0.00     0.184 HD
HETATM   21  N1  UNL     1      13.439   8.333  68.395  1.00  0.00    -0.257 N
HETATM   22  C13 UNL     1      13.708   9.641  68.251  1.00  0.00     0.165 A
HETATM   23  N7  UNL     1      14.980  10.248  68.408  1.00  0.00    -0.079 NA
BRANCH  21  24
HETATM   24  C2  UNL     1      14.394   7.275  68.743  1.00  0.00     0.099 C
HETATM   25  C1  UNL     1      13.657   6.254  69.598  1.00  0.00     0.033 C
HETATM   26  C3  UNL     1      14.867   6.559  67.490  1.00  0.00     0.033 C
ENDBRANCH  21  24
ENDBRANCH   1  17
TORSDOF 6
ENDMDL