MODEL 1
REMARK VINA RESULT: -5.505332028      0.000      0.000
REMARK  6 active torsions:
REMARK  status: ('A' for Active; 'I' for Inactive)
REMARK    1  A    between atoms: C3_3  and  C5_5
REMARK       I    between atoms: C5_5  and  N1_7
REMARK    2  A    between atoms: N1_7  and  N2_9
REMARK    3  A    between atoms: N2_9  and  C6_11
REMARK    4  A    between atoms: C7_13  and  C8_14
REMARK    5  A    between atoms: C8_14  and  O2_15
REMARK    6  A    between atoms: C8_14  and  N3_17
REMARK       I    between atoms: N3_17  and  C9_19
ROOT
HETATM    1  C6  UNL     1      12.930  11.766  69.006  1.00  0.00     0.112 A
HETATM    2  S1  UNL     1      12.909  11.993  67.310  1.00  0.00    -0.063 SA
HETATM    3  C7  UNL     1      12.899  13.673  66.809  1.00  0.00     0.080 A
HETATM    4  C10 UNL     1      12.909  14.509  67.874  1.00  0.00     0.027 A
HETATM    5  C11 UNL     1      12.902  15.999  67.611  1.00  0.00     0.070 C
HETATM    6  N6  UNL     1      12.926  14.142  69.160  1.00  0.00    -0.360 N
ATOM      7  H6  UNL     1      12.932  14.918  69.821  1.00  0.00     0.165 HD
HETATM    8  C12 UNL     1      12.935  12.940  69.721  1.00  0.00     0.041 A
HETATM    9  C13 UNL     1      12.952  12.874  71.238  1.00  0.00     0.071 C
ENDROOT
BRANCH   1  10
HETATM   10  N2  UNL     1      12.939  10.635  69.548  1.00  0.00    -0.289 N
ATOM     11  H2  UNL     1      13.731  10.576  70.188  1.00  0.00     0.188 HD
BRANCH  10  12
HETATM   12  N1  UNL     1      12.273   9.494  69.573  1.00  0.00    -0.265 N
HETATM   13  C5  UNL     1      11.116   9.181  70.363  1.00  0.00     0.265 C
HETATM   14  O1  UNL     1      10.717  10.125  71.103  1.00  0.00    -0.266 OA
ATOM     15  H1  UNL     1      12.619   8.753  68.963  1.00  0.00     0.190 HD
BRANCH  13  16
HETATM   16  C3  UNL     1      10.426   7.924  70.357  1.00  0.00     0.003 C
HETATM   17  C2  UNL     1       9.867   7.388  69.289  1.00  0.00    -0.019 C
HETATM   18  C1  UNL     1       9.167   6.086  69.343  1.00  0.00     0.036 C
HETATM   19  C4  UNL     1      10.321   7.158  71.637  1.00  0.00     0.054 C
ENDBRANCH  13  16
ENDBRANCH  10  12
ENDBRANCH   1  10
BRANCH   3  20
HETATM   20  C8  UNL     1      12.881  14.012  65.410  1.00  0.00     0.161 C
BRANCH  20  21
HETATM   21  O2  UNL     1      11.775  13.559  64.838  1.00  0.00    -0.345 OA
ATOM     22  H2  UNL     1      11.389  12.867  65.362  1.00  0.00     0.219 HD
ENDBRANCH  20  21
BRANCH  20  23
HETATM   23  N3  UNL     1      13.735  14.686  64.552  1.00  0.00    -0.310 N
HETATM   24  C9  UNL     1      14.789  13.978  63.871  1.00  0.00     0.187 C
HETATM   25  N4  UNL     1      15.575  14.619  63.077  1.00  0.00    -0.373 N
HETATM   26  N5  UNL     1      14.952  12.604  64.075  1.00  0.00    -0.064 NA
ATOM     27  H42 UNL     1      15.456  15.621  62.928  1.00  0.00     0.158 HD
ATOM     28  H41 UNL     1      16.320  14.118  62.595  1.00  0.00     0.158 HD
ATOM     29  H3  UNL     1      13.616  15.688  64.402  1.00  0.00     0.170 HD
ENDBRANCH  20  23
ENDBRANCH   3  20
TORSDOF 6
ENDMDL