MODEL 1
REMARK VINA RESULT: -5.366356155      0.000      0.000
REMARK  3 active torsions:
REMARK  status: ('A' for Active; 'I' for Inactive)
REMARK    1  A    between atoms: O1_2  and  N1_3
REMARK    2  A    between atoms: C5_10  and  C6_11
REMARK       I    between atoms: C6_11  and  N3_13
REMARK    3  A    between atoms: N3_13  and  C7_15
ROOT
HETATM    1  N1  UNL     1      13.325  17.004  68.962  1.00  0.00    -0.250 N
ATOM      2  H1  UNL     1      13.834  17.853  68.717  1.00  0.00     0.196 HD
HETATM    3  C2  UNL     1      13.770  15.948  68.391  1.00  0.00     0.149 A
HETATM    4  N2  UNL     1      14.844  16.108  67.552  1.00  0.00    -0.324 N
ATOM      5  H2  UNL     1      15.240  17.038  67.413  1.00  0.00     0.169 HD
HETATM    6  C3  UNL     1      15.371  15.072  66.921  1.00  0.00     0.130 A
HETATM    7  C4  UNL     1      14.842  13.814  67.105  1.00  0.00     0.090 A
HETATM    8  C5  UNL     1      13.730  13.601  67.961  1.00  0.00     0.086 A
HETATM    9  C10 UNL     1      13.195  14.715  68.612  1.00  0.00     0.108 A
HETATM   10  C11 UNL     1      12.052  14.625  69.458  1.00  0.00     0.104 C
HETATM   11  N4  UNL     1      11.098  14.592  70.148  1.00  0.00    -0.191 NA
HETATM   12  N5  UNL     1      15.465  12.695  66.489  1.00  0.00    -0.376 N
ATOM     13  H5  UNL     1      15.558  11.798  66.965  1.00  0.00     0.160 HD
HETATM   14  C12 UNL     1      15.965  12.907  65.140  1.00  0.00     0.039 C
HETATM   15  C13 UNL     1      16.744  11.678  64.732  1.00  0.00     0.039 C
HETATM   16  C14 UNL     1      14.788  13.120  64.227  1.00  0.00     0.039 C
HETATM   17  C15 UNL     1      16.839  14.128  65.091  1.00  0.00     0.151 C
HETATM   18  N6  UNL     1      16.485  15.157  66.025  1.00  0.00    -0.372 N
ATOM     19  H6  UNL     1      17.060  15.999  66.053  1.00  0.00     0.161 HD
ENDROOT
BRANCH   8  20
HETATM   20  C6  UNL     1      13.140  12.299  68.040  1.00  0.00     0.256 C
HETATM   21  O2  UNL     1      12.264  12.016  67.135  1.00  0.00    -0.268 OA
HETATM   22  N3  UNL     1      13.283  11.211  68.880  1.00  0.00    -0.353 N
ATOM     23  H3  UNL     1      13.950  11.260  69.650  1.00  0.00     0.163 HD
BRANCH  22  24
HETATM   24  C7  UNL     1      12.476   9.956  68.683  1.00  0.00     0.076 C
HETATM   25  C8  UNL     1      11.760   9.591  69.940  1.00  0.00     0.032 C
HETATM   26  C9  UNL     1      13.334   8.832  68.246  1.00  0.00     0.032 C
ENDBRANCH  22  24
ENDBRANCH   8  20
BRANCH   1  27
HETATM   27  O1  UNL     1      12.327  17.201  69.811  1.00  0.00    -0.284 OA
HETATM   28  C1  UNL     1      12.340  18.089  70.919  1.00  0.00     0.237 C
ENDBRANCH   1  27
TORSDOF 3
ENDMDL