MODEL 5
REMARK VINA RESULT: -4.985860399      4.185      6.651
REMARK  3 active torsions:
REMARK  status: ('A' for Active; 'I' for Inactive)
REMARK    1  A    between atoms: C2_2  and  N1_3
REMARK    2  A    between atoms: C2_2  and  C12_22
REMARK       I    between atoms: N1_3  and  C3_5
REMARK       I    between atoms: C3_5  and  N2_7
REMARK       I    between atoms: N2_7  and  C4_9
REMARK       I    between atoms: C4_9  and  N3_11
REMARK    3  A    between atoms: N3_11  and  C5_13
ROOT
HETATM    1  N1  UNL     1      13.309   8.575  68.966  1.00  0.00    -0.333 N
ATOM      2  H1  UNL     1      13.659   8.907  68.066  1.00  0.00     0.165 HD
HETATM    3  C3  UNL     1      12.893   9.426  69.911  1.00  0.00     0.324 C
HETATM    4  O1  UNL     1      12.416   9.138  71.014  1.00  0.00    -0.247 OA
HETATM    5  N2  UNL     1      12.947  11.092  69.720  1.00  0.00    -0.261 N
ATOM      6  H2  UNL     1      12.618  11.835  70.337  1.00  0.00     0.175 HD
HETATM    7  C4  UNL     1      13.555  11.168  68.513  1.00  0.00     0.324 C
HETATM    8  O2  UNL     1      14.314  10.410  67.919  1.00  0.00    -0.247 OA
HETATM    9  N3  UNL     1      13.278  12.390  67.705  1.00  0.00    -0.337 N
ATOM     10  H3  UNL     1      12.645  13.105  68.063  1.00  0.00     0.164 HD
ENDROOT
BRANCH   1  11
HETATM   11  C2  UNL     1      13.237   7.083  69.295  1.00  0.00     0.134 C
HETATM   12  C1  UNL     1      14.356   6.433  68.609  1.00  0.00     0.039 C
BRANCH  11  13
HETATM   13  C12 UNL     1      11.879   6.631  68.771  1.00  0.00     0.056 A
HETATM   14  C13 UNL     1      10.880   6.259  69.633  1.00  0.00     0.098 A
HETATM   15  S1  UNL     1       9.631   5.841  68.537  1.00  0.00    -0.009 SA
HETATM   16  N5  UNL     1      10.445   6.162  67.104  1.00  0.00    -0.270 N
HETATM   17  N6  UNL     1      11.620   6.569  67.500  1.00  0.00    -0.296 N
ATOM     18  H5  UNL     1      10.102   6.062  66.148  1.00  0.00     0.195 HD
ATOM     19  H6  UNL     1      12.329   6.835  66.817  1.00  0.00     0.187 HD
ENDBRANCH  11  13
ENDBRANCH   1  11
BRANCH   9  20
HETATM   20  C5  UNL     1      13.896  12.562  66.440  1.00  0.00     0.104 C
HETATM   21  C6  UNL     1      13.023  13.411  65.502  1.00  0.00     0.139 C
HETATM   22  N4  UNL     1      13.612  13.329  64.207  1.00  0.00    -0.418 N
HETATM   23  C7  UNL     1      14.892  12.704  64.138  1.00  0.00     0.122 C
ATOM     24  H4  UNL     1      13.145  13.696  63.378  1.00  0.00     0.153 HD
HETATM   25  C8  UNL     1      15.887  13.169  65.188  1.00  0.00    -0.030 C
HETATM   26  C9  UNL     1      16.456  14.521  64.771  1.00  0.00     0.016 C
HETATM   27  C10 UNL     1      16.993  12.151  65.314  1.00  0.00     0.016 C
HETATM   28  C11 UNL     1      15.197  13.322  66.531  1.00  0.00     0.037 C
ENDBRANCH   9  20
TORSDOF 3
ENDMDL