MODEL 1
REMARK VINA RESULT: -5.812068385      0.000      0.000
REMARK  5 active torsions:
REMARK  status: ('A' for Active; 'I' for Inactive)
REMARK    1  A    between atoms: C3_5  and  C4_6
REMARK    2  A    between atoms: C6_11  and  N3_12
REMARK    3  A    between atoms: N3_12  and  N4_14
REMARK       I    between atoms: N4_14  and  C7_16
REMARK       I    between atoms: C7_16  and  N5_18
REMARK    4  A    between atoms: N5_18  and  C8_20
REMARK    5  A    between atoms: C8_20  and  C10_22
ROOT
HETATM    1  C1  UNL     1      10.514  15.298  71.159  1.00  0.00     0.089 C
HETATM    2  C2  UNL     1      11.402  15.489  69.948  1.00  0.00     0.079 A
HETATM    3  N1  UNL     1      12.176  16.587  69.857  1.00  0.00    -0.341 N
ATOM      4  H1  UNL     1      12.191  17.306  70.580  1.00  0.00     0.167 HD
HETATM    5  C3  UNL     1      12.937  16.666  68.730  1.00  0.00     0.120 A
HETATM    6  C5  UNL     1      12.884  15.651  67.762  1.00  0.00     0.084 A
HETATM    7  S1  UNL     1      13.643  15.358  66.255  1.00  0.00    -0.046 SA
HETATM    8  C6  UNL     1      12.900  13.866  65.889  1.00  0.00     0.166 A
HETATM    9  N6  UNL     1      12.105  13.662  66.937  1.00  0.00    -0.320 N
ATOM     10  H6  UNL     1      11.524  12.826  66.993  1.00  0.00     0.169 HD
HETATM   11  C13 UNL     1      12.083  14.550  67.891  1.00  0.00     0.128 A
HETATM   12  N7  UNL     1      11.341  14.529  69.049  1.00  0.00    -0.331 N
ATOM     13  H7  UNL     1      10.718  13.739  69.217  1.00  0.00     0.168 HD
ENDROOT
BRANCH   8  14
HETATM   14  N3  UNL     1      13.030  13.063  64.854  1.00  0.00    -0.276 N
ATOM     15  H3  UNL     1      12.236  12.537  64.489  1.00  0.00     0.189 HD
BRANCH  14  16
HETATM   16  N4  UNL     1      14.283  12.961  64.279  1.00  0.00    -0.250 N
HETATM   17  C7  UNL     1      15.399  12.395  64.954  1.00  0.00     0.335 C
HETATM   18  O2  UNL     1      15.216  11.980  66.126  1.00  0.00    -0.246 OA
HETATM   19  N5  UNL     1      16.697  12.270  64.393  1.00  0.00    -0.337 N
ATOM     20  H5  UNL     1      16.858  12.603  63.442  1.00  0.00     0.164 HD
ATOM     21  H4  UNL     1      14.413  13.307  63.328  1.00  0.00     0.192 HD
BRANCH  19  22
HETATM   22  C8  UNL     1      17.799  11.684  65.128  1.00  0.00     0.085 C
HETATM   23  C9  UNL     1      18.622  12.699  65.871  1.00  0.00     0.032 C
BRANCH  22  24
HETATM   24  C10 UNL     1      18.623  10.757  64.260  1.00  0.00    -0.000 C
HETATM   25  C11 UNL     1      18.339   9.340  64.755  1.00  0.00     0.011 C
HETATM   26  C12 UNL     1      20.094  10.976  64.359  1.00  0.00     0.011 C
ENDBRANCH  22  24
ENDBRANCH  19  22
ENDBRANCH  14  16
ENDBRANCH   8  14
BRANCH   5  27
HETATM   27  C4  UNL     1      13.818  17.777  68.477  1.00  0.00     0.282 C
HETATM   28  N2  UNL     1      15.195  17.684  68.754  1.00  0.00    -0.056 NA
HETATM   29  O1  UNL     1      13.369  18.851  68.002  1.00  0.00    -0.269 OA
ENDBRANCH   5  27
TORSDOF 5
ENDMDL