MODEL 2
REMARK VINA RESULT: -4.891418971      0.773      1.349
REMARK  6 active torsions:
REMARK  status: ('A' for Active; 'I' for Inactive)
REMARK    1  A    between atoms: N1_2  and  C2_4
REMARK    2  A    between atoms: C2_4  and  N2_6
REMARK    3  A    between atoms: C2_4  and  C4_10
REMARK       I    between atoms: C4_10  and  N3_12
REMARK    4  A    between atoms: N3_12  and  C5_14
REMARK    5  A    between atoms: C8_18  and  C9_19
REMARK    6  A    between atoms: C9_19  and  O3_21
ROOT
HETATM    1  C5  UNL     1      14.218  15.448  68.016  1.00  0.00     0.094 A
HETATM    2  S1  UNL     1      14.517  17.095  68.477  1.00  0.00    -0.069 SA
HETATM    3  C6  UNL     1      13.253  17.302  69.588  1.00  0.00     0.036 A
HETATM    4  C7  UNL     1      12.618  16.088  69.586  1.00  0.00    -0.020 A
HETATM    5  C8  UNL     1      13.117  15.130  68.774  1.00  0.00     0.081 A
HETATM    6  C11 UNL     1      11.449  16.055  70.541  1.00  0.00     0.041 C
HETATM    7  C12 UNL     1      11.843  16.710  71.862  1.00  0.00     0.011 C
HETATM    8  C13 UNL     1      12.097  18.189  71.728  1.00  0.00     0.058 C
HETATM    9  C14 UNL     1      12.793  18.437  70.436  1.00  0.00     0.020 C
HETATM   10  N4  UNL     1      13.043  19.599  69.978  1.00  0.00    -0.401 N
ATOM     11  H41 UNL     1      12.728  20.376  70.559  1.00  0.00     0.156 HD
ATOM     12  H42 UNL     1      13.520  19.769  69.092  1.00  0.00     0.156 HD
ENDROOT
BRANCH   1  13
HETATM   13  N3  UNL     1      14.992  14.699  67.078  1.00  0.00    -0.317 N
HETATM   14  C4  UNL     1      14.594  14.767  65.701  1.00  0.00     0.278 C
HETATM   15  O1  UNL     1      13.633  15.458  65.386  1.00  0.00    -0.268 OA
ATOM     16  H3  UNL     1      15.792  14.141  67.374  1.00  0.00     0.169 HD
BRANCH  14  17
HETATM   17  C2  UNL     1      15.365  13.998  64.677  1.00  0.00     0.268 C
HETATM   18  C3  UNL     1      15.563  12.574  65.213  1.00  0.00     0.081 C
BRANCH  17  19
HETATM   19  N1  UNL     1      14.705  13.978  63.407  1.00  0.00    -0.388 N
HETATM   20  C1  UNL     1      15.271  14.839  62.402  1.00  0.00     0.142 C
ATOM     21  H1  UNL     1      13.888  13.393  63.226  1.00  0.00     0.155 HD
ENDBRANCH  17  19
BRANCH  17  22
HETATM   22  N2  UNL     1      16.663  14.599  64.539  1.00  0.00    -0.044 N
ATOM     23  H23 UNL     1      16.766  15.431  65.121  1.00  0.00     0.277 HD
ATOM     24  H22 UNL     1      17.397  14.031  64.964  1.00  0.00     0.277 HD
ATOM     25  H21 UNL     1      16.849  14.793  63.556  1.00  0.00     0.277 HD
ENDBRANCH  17  22
ENDBRANCH  14  17
ENDBRANCH   1  13
BRANCH   5  26
HETATM   26  C9  UNL     1      12.560  13.742  68.670  1.00  0.00     0.296 C
HETATM   27  O2  UNL     1      12.545  12.949  69.623  1.00  0.00    -0.259 OA
BRANCH  26  28
HETATM   28  O3  UNL     1      12.023  13.246  67.484  1.00  0.00    -0.322 OA
HETATM   29  C10 UNL     1      12.439  12.005  66.948  1.00  0.00     0.213 C
ENDBRANCH  26  28
ENDBRANCH   5  26
TORSDOF 6
ENDMDL