MODEL 5
REMARK VINA RESULT: -4.766342818      0.858      3.713
REMARK  5 active torsions:
REMARK  status: ('A' for Active; 'I' for Inactive)
REMARK    1  A    between atoms: C2_2  and  O1_3
REMARK    2  A    between atoms: O1_3  and  C3_4
REMARK    3  A    between atoms: C3_4  and  C4_6
REMARK    4  A    between atoms: C7_11  and  N2_12
REMARK    5  A    between atoms: N2_12  and  C8_14
ROOT
HETATM    1  C4  UNL     1      18.401  15.744  66.853  1.00  0.00     0.184 A
HETATM    2  N1  UNL     1      17.082  16.034  67.001  1.00  0.00    -0.333 N
ATOM      3  H1  UNL     1      16.689  16.852  67.469  1.00  0.00     0.168 HD
HETATM    4  C5  UNL     1      16.393  15.044  66.416  1.00  0.00     0.096 A
HETATM    5  C6  UNL     1      15.098  14.633  66.157  1.00  0.00     0.084 A
HETATM    6  C7  UNL     1      13.859  15.156  66.442  1.00  0.00     0.133 A
HETATM    7  N3  UNL     1      12.786  14.453  66.017  1.00  0.00    -0.176 N
ATOM      8  H3  UNL     1      11.849  14.805  66.207  1.00  0.00     0.186 HD
HETATM    9  C11 UNL     1      12.935  13.292  65.345  1.00  0.00     0.679 A
HETATM   10  N4  UNL     1      11.880  12.658  64.961  1.00  0.00    -0.234 N
ATOM     11  H41 UNL     1      11.992  11.780  64.453  1.00  0.00     0.174 HD
ATOM     12  H42 UNL     1      10.965  13.055  65.177  1.00  0.00     0.174 HD
HETATM   13  N5  UNL     1      14.127  12.775  65.064  1.00  0.00    -0.176 N
ATOM     14  H5  UNL     1      14.211  11.895  64.555  1.00  0.00     0.186 HD
HETATM   15  C12 UNL     1      15.218  13.443  65.468  1.00  0.00     0.141 A
HETATM   16  N6  UNL     1      16.515  13.148  65.318  1.00  0.00    -0.321 N
HETATM   17  C13 UNL     1      17.066  11.981  64.649  1.00  0.00     0.159 C
HETATM   18  C14 UNL     1      17.274  14.104  65.884  1.00  0.00     0.139 A
HETATM   19  N7  UNL     1      18.489  14.583  66.182  1.00  0.00    -0.321 N
ATOM     20  H7  UNL     1      19.366  14.127  65.931  1.00  0.00     0.169 HD
ENDROOT
BRANCH   1  21
HETATM   21  C3  UNL     1      19.537  16.537  67.331  1.00  0.00     0.327 C
HETATM   22  O2  UNL     1      19.951  16.345  68.501  1.00  0.00    -0.256 OA
BRANCH  21  23
HETATM   23  O1  UNL     1      20.172  17.481  66.571  1.00  0.00    -0.316 OA
BRANCH  23  24
HETATM   24  C2  UNL     1      19.554  18.532  65.877  1.00  0.00     0.175 C
HETATM   25  C1  UNL     1      18.823  19.489  66.760  1.00  0.00     0.034 C
ENDBRANCH  23  24
ENDBRANCH  21  23
ENDBRANCH   1  21
BRANCH   6  26
HETATM   26  N2  UNL     1      13.741  16.264  67.082  1.00  0.00    -0.371 N
ATOM     27  H2  UNL     1      14.171  17.102  66.692  1.00  0.00     0.161 HD
BRANCH  26  28
HETATM   28  C8  UNL     1      13.021  16.373  68.334  1.00  0.00     0.075 C
HETATM   29  C9  UNL     1      13.565  15.383  69.321  1.00  0.00     0.031 C
HETATM   30  C10 UNL     1      13.280  17.763  68.873  1.00  0.00     0.031 C
ENDBRANCH  26  28
ENDBRANCH   6  26
TORSDOF 5
ENDMDL