MODEL 3
REMARK VINA RESULT: -5.045359774      1.046      1.263
REMARK  7 active torsions:
REMARK  status: ('A' for Active; 'I' for Inactive)
REMARK    1  A    between atoms: C3_6  and  N3_7
REMARK    2  A    between atoms: C4_12  and  C5_13
REMARK    3  A    between atoms: C6_14  and  C7_15
REMARK    4  A    between atoms: C7_15  and  O1_18
REMARK    5  A    between atoms: C10_20  and  O2_21
REMARK    6  A    between atoms: O2_21  and  C11_22
REMARK    7  A    between atoms: C15_26  and  C16_27
ROOT
HETATM    1  C1  UNL     1      13.358  17.005  67.980  1.00  0.00     0.071 C
HETATM    2  C2  UNL     1      13.940  15.911  67.184  1.00  0.00     0.041 A
HETATM    3  N1  UNL     1      13.357  15.060  66.361  1.00  0.00    -0.283 N
ATOM      4  H1  UNL     1      12.360  15.042  66.147  1.00  0.00     0.188 HD
HETATM    5  N2  UNL     1      14.271  14.220  65.845  1.00  0.00    -0.083 N
HETATM    6  C3  UNL     1      14.103  13.187  65.002  1.00  0.00     0.698 A
HETATM    7  N4  UNL     1      15.124  12.431  64.620  1.00  0.00    -0.179 N
ATOM      8  H4  UNL     1      14.985  11.646  63.983  1.00  0.00     0.185 HD
HETATM    9  C4  UNL     1      16.372  12.734  65.106  1.00  0.00     0.138 A
HETATM   10  C10 UNL     1      16.575  13.780  65.961  1.00  0.00     0.135 A
HETATM   11  C14 UNL     1      15.500  14.539  66.350  1.00  0.00     0.128 A
HETATM   12  C15 UNL     1      15.318  15.593  67.199  1.00  0.00     0.085 A
ENDROOT
BRANCH   9  13
HETATM   13  C5  UNL     1      17.457  11.892  64.701  1.00  0.00    -0.042 C
HETATM   14  C6  UNL     1      18.401  11.184  64.392  1.00  0.00    -0.062 C
BRANCH  14  15
HETATM   15  C7  UNL     1      19.525  10.312  64.029  1.00  0.00     0.114 C
HETATM   16  C8  UNL     1      19.418   8.957  64.684  1.00  0.00     0.060 C
HETATM   17  C9  UNL     1      20.785  11.000  64.451  1.00  0.00     0.060 C
BRANCH  15  18
HETATM   18  O1  UNL     1      19.566  10.094  62.648  1.00  0.00    -0.378 OA
ATOM     19  H1  UNL     1      19.834   9.204  62.451  1.00  0.00     0.211 HD
ENDBRANCH  15  18
ENDBRANCH  14  15
ENDBRANCH   9  13
BRANCH  10  20
HETATM   20  O2  UNL     1      17.853  14.009  66.374  1.00  0.00    -0.341 OA
BRANCH  20  21
HETATM   21  C11 UNL     1      18.406  13.547  67.591  1.00  0.00     0.121 C
HETATM   22  C12 UNL     1      19.822  13.084  67.370  1.00  0.00     0.040 C
HETATM   23  C13 UNL     1      17.631  12.553  68.384  1.00  0.00     0.040 C
ENDBRANCH  20  21
ENDBRANCH  10  20
BRANCH   6  24
HETATM   24  N3  UNL     1      12.916  12.951  64.574  1.00  0.00    -0.233 N
ATOM     25  H32 UNL     1      12.211  13.688  64.561  1.00  0.00     0.174 HD
ATOM     26  H31 UNL     1      12.707  12.007  64.249  1.00  0.00     0.174 HD
ENDBRANCH   6  24
BRANCH  12  27
HETATM   27  C16 UNL     1      16.270  16.261  68.036  1.00  0.00     0.269 C
HETATM   28  N5  UNL     1      16.364  15.939  69.434  1.00  0.00    -0.057 NA
HETATM   29  O3  UNL     1      17.046  17.124  67.631  1.00  0.00    -0.271 OA
ENDBRANCH  12  27
TORSDOF 7
ENDMDL