MODEL 5
REMARK VINA RESULT: -8.732852753      1.483      1.698
REMARK  9 active torsions:
REMARK  status: ('A' for Active; 'I' for Inactive)
REMARK    1  A    between atoms: N1_1  and  C1_4
REMARK    2  A    between atoms: C3_8  and  C4_9
REMARK    3  A    between atoms: C4_9  and  N3_10
REMARK    4  A    between atoms: N4_13  and  C7_14
REMARK    5  A    between atoms: C7_14  and  O1_15
REMARK    6  A    between atoms: N5_19  and  C10_20
REMARK    7  A    between atoms: C10_20  and  O2_21
REMARK    8  A    between atoms: O2_21  and  C11_22
REMARK    9  A    between atoms: C11_22  and  C12_23
ROOT
HETATM    1  C1  UNL     1      47.211   8.695  56.057  1.00  0.00     0.679 A
HETATM    2  N2  UNL     1      46.344   9.314  55.217  1.00  0.00    -0.201 N
ATOM      3  H2  UNL     1      45.596   9.906  55.579  1.00  0.00     0.183 HD
HETATM    4  C2  UNL     1      46.498   9.127  53.889  1.00  0.00     0.116 A
HETATM    5  C3  UNL     1      47.492   8.336  53.366  1.00  0.00    -0.008 A
HETATM    6  C9  UNL     1      48.349   7.726  54.255  1.00  0.00     0.121 A
HETATM    7  N5  UNL     1      48.199   7.913  55.594  1.00  0.00    -0.171 N
ENDROOT
BRANCH   7   8
HETATM    8  C10 UNL     1      49.101   7.268  56.504  1.00  0.00     0.316 C
BRANCH   8   9
HETATM    9  O2  UNL     1      48.512   6.900  57.693  1.00  0.00    -0.367 OA
BRANCH   9  10
HETATM   10  C11 UNL     1      49.308   6.033  58.387  1.00  0.00     0.208 C
BRANCH  10  11
HETATM   11  C12 UNL     1      49.191   4.616  58.040  1.00  0.00    -0.033 A
HETATM   12  C13 UNL     1      48.167   3.828  58.572  1.00  0.00     0.009 A
HETATM   13  C14 UNL     1      48.049   2.492  58.258  1.00  0.00     0.002 A
HETATM   14  C15 UNL     1      48.931   1.881  57.410  1.00  0.00     0.019 A
HETATM   15  C16 UNL     1      49.955   2.632  56.866  1.00  0.00     0.011 A
HETATM   16 BR1  UNL     1      51.174   1.774  55.691  1.00  0.00    -0.051 Br
HETATM   17  C17 UNL     1      50.059   3.958  57.188  1.00  0.00     0.028 A
ENDBRANCH  10  11
ENDBRANCH   9  10
ENDBRANCH   8   9
ENDBRANCH   7   8
BRANCH   1  18
HETATM   18  N1  UNL     1      47.110   8.840  57.329  1.00  0.00    -0.234 N
ATOM     19  H12 UNL     1      46.338   8.368  57.801  1.00  0.00     0.174 HD
ATOM     20  H11 UNL     1      47.782   9.408  57.844  1.00  0.00     0.174 HD
ENDBRANCH   1  18
BRANCH   5  21
HETATM   21  C4  UNL     1      47.598   8.176  51.897  1.00  0.00     0.170 C
BRANCH  21  22
HETATM   22  N3  UNL     1      46.356   7.675  51.324  1.00  0.00    -0.347 N
HETATM   23  C5  UNL     1      46.233   6.752  50.327  1.00  0.00     0.109 A
HETATM   24  C6  UNL     1      44.910   6.535  50.057  1.00  0.00     0.111 A
HETATM   25  N4  UNL     1      44.213   7.318  50.882  1.00  0.00    -0.330 N
HETATM   26  C8  UNL     1      45.092   8.005  51.645  1.00  0.00     0.187 A
BRANCH  25  27
HETATM   27  C7  UNL     1      42.768   7.425  50.959  1.00  0.00     0.295 C
BRANCH  27  28
HETATM   28  O1  UNL     1      42.414   7.274  52.300  1.00  0.00    -0.382 OA
ATOM     29  H1  UNL     1      41.827   6.529  52.353  1.00  0.00     0.211 HD
ENDBRANCH  27  28
ENDBRANCH  25  27
ENDBRANCH  21  22
ENDBRANCH   5  21
TORSDOF 9
ENDMDL