MODEL 1
REMARK VINA RESULT: -9.536020907      0.000      0.000
REMARK  8 active torsions:
REMARK  status: ('A' for Active; 'I' for Inactive)
REMARK    1  A    between atoms: N1_2  and  C2_3
REMARK    2  A    between atoms: C2_3  and  C3_4
REMARK    3  A    between atoms: C9_10  and  C10_11
REMARK    4  A    between atoms: C10_11  and  O1_12
REMARK    5  A    between atoms: C10_11  and  C11_14
REMARK    6  A    between atoms: C11_14  and  N2_15
REMARK    7  A    between atoms: C14_18  and  C15_20
REMARK    8  A    between atoms: N3_23  and  O2_24
ROOT
HETATM    1  N2  UNL     1      48.584   8.223  56.335  1.00  0.00    -0.331 N
HETATM    2  C12 UNL     1      48.806   7.182  55.353  1.00  0.00     0.133 C
HETATM    3  C13 UNL     1      48.451   7.682  53.987  1.00  0.00     0.092 C
HETATM    4  C14 UNL     1      47.254   8.563  53.900  1.00  0.00     0.209 C
HETATM    5  F1  UNL     1      47.739   9.868  53.635  1.00  0.00    -0.213 F
HETATM    6  N4  UNL     1      46.532   8.683  55.125  1.00  0.00    -0.303 N
ATOM      7  H4  UNL     1      45.513   8.661  55.149  1.00  0.00     0.167 HD
HETATM    8  C20 UNL     1      47.302   8.836  56.315  1.00  0.00     0.321 C
HETATM    9  O3  UNL     1      46.887   9.479  57.308  1.00  0.00    -0.247 OA
ENDROOT
BRANCH   1  10
HETATM   10  C11 UNL     1      49.613   8.641  57.306  1.00  0.00     0.164 C
BRANCH  10  11
HETATM   11  C10 UNL     1      50.233   7.499  58.055  1.00  0.00     0.174 C
BRANCH  11  12
HETATM   12  C9  UNL     1      49.336   6.273  57.947  1.00  0.00     0.091 C
HETATM   13  N1  UNL     1      49.757   5.100  58.504  1.00  0.00    -0.391 N
HETATM   14  C1  UNL     1      49.867   4.887  59.892  1.00  0.00     0.149 C
BRANCH  13  15
HETATM   15  C2  UNL     1      49.333   3.880  57.807  1.00  0.00     0.160 C
BRANCH  15  16
HETATM   16  C3  UNL     1      48.630   2.911  58.634  1.00  0.00    -0.040 A
HETATM   17  C4  UNL     1      47.251   2.904  58.665  1.00  0.00     0.009 A
HETATM   18  C5  UNL     1      46.549   2.002  59.418  1.00  0.00     0.001 A
HETATM   19  C6  UNL     1      47.212   1.075  60.169  1.00  0.00     0.000 A
HETATM   20  C7  UNL     1      48.584   1.074  60.145  1.00  0.00     0.001 A
HETATM   21  C8  UNL     1      49.296   1.963  59.402  1.00  0.00     0.009 A
ENDBRANCH  15  16
ENDBRANCH  13  15
ENDBRANCH  11  12
BRANCH  11  22
HETATM   22  O1  UNL     1      51.456   7.145  57.375  1.00  0.00    -0.389 OA
ATOM     23  H1  UNL     1      52.120   7.726  57.727  1.00  0.00     0.210 HD
ENDBRANCH  11  22
ENDBRANCH  10  11
ENDBRANCH   1  10
BRANCH   4  24
HETATM   24  C15 UNL     1      46.426   8.234  52.725  1.00  0.00     0.004 A
HETATM   25  C16 UNL     1      47.017   7.536  51.694  1.00  0.00     0.032 A
HETATM   26  C17 UNL     1      46.358   7.192  50.549  1.00  0.00     0.123 A
HETATM   27  N3  UNL     1      45.078   7.540  50.403  1.00  0.00    -0.247 N
HETATM   28  C18 UNL     1      44.472   8.223  51.393  1.00  0.00     0.123 A
HETATM   29  C19 UNL     1      45.100   8.588  52.557  1.00  0.00     0.032 A
BRANCH  27  30
HETATM   30  O2  UNL     1      44.403   7.202  49.249  1.00  0.00    -0.284 OA
ATOM     31  H2  UNL     1      44.170   7.877  48.623  1.00  0.00     0.245 HD
ENDBRANCH  27  30
ENDBRANCH   4  24
TORSDOF 8
ENDMDL