MODEL 3
REMARK VINA RESULT: -7.473216326      0.936      1.591
REMARK  9 active torsions:
REMARK  status: ('A' for Active; 'I' for Inactive)
REMARK    1  A    between atoms: C1_2  and  C2_4
REMARK    2  A    between atoms: C2_4  and  N2_5
REMARK    3  A    between atoms: N2_5  and  C3_7
REMARK    4  A    between atoms: C4_10  and  N4_11
REMARK    5  A    between atoms: N4_11  and  C5_13
REMARK    6  A    between atoms: C5_13  and  C6_14
REMARK    7  A    between atoms: C6_14  and  C7_15
REMARK    8  A    between atoms: C7_15  and  C8_16
REMARK    9  A    between atoms: C8_16  and  N5_17
ROOT
HETATM    1  C3  UNL     1      47.343   8.447  54.420  1.00  0.00     0.136 A
HETATM    2  N3  UNL     1      48.534   7.867  54.394  1.00  0.00    -0.176 N
ATOM      3  H3  UNL     1      49.059   7.736  55.259  1.00  0.00     0.186 HD
HETATM    4  C4  UNL     1      49.054   7.448  53.217  1.00  0.00     0.679 A
HETATM    5  N6  UNL     1      48.370   7.618  52.074  1.00  0.00    -0.201 N
ATOM      6  H6  UNL     1      48.780   7.295  51.198  1.00  0.00     0.183 HD
HETATM    7  C14 UNL     1      47.152   8.204  52.051  1.00  0.00     0.129 A
HETATM    8  C15 UNL     1      46.627   8.628  53.247  1.00  0.00     0.071 A
HETATM    9 BR1  UNL     1      44.914   9.457  53.247  1.00  0.00    -0.046 Br
ENDROOT
BRANCH   4  10
HETATM   10  N4  UNL     1      50.200   6.888  53.172  1.00  0.00    -0.226 N
ATOM     11  H4  UNL     1      50.332   6.203  52.429  1.00  0.00     0.177 HD
BRANCH  10  12
HETATM   12  C5  UNL     1      51.323   7.100  54.035  1.00  0.00     0.138 C
BRANCH  12  13
HETATM   13  C6  UNL     1      51.782   5.840  54.717  1.00  0.00     0.022 C
BRANCH  13  14
HETATM   14  C7  UNL     1      50.973   5.490  55.927  1.00  0.00     0.032 C
BRANCH  14  15
HETATM   15  C8  UNL     1      51.050   4.027  56.272  1.00  0.00     0.272 C
BRANCH  15  16
HETATM   16  N5  UNL     1      50.047   3.660  57.216  1.00  0.00     0.088 N
HETATM   17  C9  UNL     1      48.877   4.485  56.975  1.00  0.00     0.272 C
HETATM   18  C10 UNL     1      48.109   4.583  58.260  1.00  0.00     0.030 C
HETATM   19  C11 UNL     1      48.078   3.234  58.902  1.00  0.00     0.003 C
HETATM   20  C12 UNL     1      48.386   2.104  57.954  1.00  0.00     0.030 C
HETATM   21  C13 UNL     1      49.684   2.282  57.220  1.00  0.00     0.272 C
ENDBRANCH  15  16
ENDBRANCH  14  15
ENDBRANCH  13  14
ENDBRANCH  12  13
ENDBRANCH  10  12
ENDBRANCH   4  10
BRANCH   1  22
HETATM   22  N2  UNL     1      46.781   8.873  55.505  1.00  0.00    -0.366 N
ATOM     23  H2  UNL     1      45.976   9.492  55.413  1.00  0.00     0.161 HD
BRANCH  22  24
HETATM   24  C2  UNL     1      47.217   8.531  56.827  1.00  0.00     0.220 C
BRANCH  24  25
HETATM   25  C1  UNL     1      48.005   9.663  57.365  1.00  0.00     0.248 C
HETATM   26  N1  UNL     1      49.244   9.387  58.013  1.00  0.00    -0.061 NA
HETATM   27  O1  UNL     1      47.591  10.837  57.252  1.00  0.00    -0.275 OA
ENDBRANCH  24  25
ENDBRANCH  22  24
ENDBRANCH   1  22
TORSDOF 9
ENDMDL