MODEL 1
REMARK VINA RESULT: -7.725835538      0.000      0.000
REMARK  8 active torsions:
REMARK  status: ('A' for Active; 'I' for Inactive)
REMARK    1  A    between atoms: C1_2  and  C2_4
REMARK    2  A    between atoms: C2_4  and  C3_5
REMARK    3  A    between atoms: C3_5  and  N2_6
REMARK    4  A    between atoms: N2_6  and  C4_7
REMARK    5  A    between atoms: N2_6  and  C7_11
REMARK    6  A    between atoms: C4_7  and  C5_8
REMARK    7  A    between atoms: C7_11  and  C8_12
REMARK       I    between atoms: C8_12  and  N3_14
REMARK    8  A    between atoms: N3_14  and  C9_16
ROOT
HETATM    1  C5  UNL     1      47.496   7.902  52.910  1.00  0.00    -0.075 C
HETATM    2  C6  UNL     1      46.534   8.061  52.193  1.00  0.00    -0.022 C
HETATM    3 BR1  UNL     1      45.039   8.275  51.088  1.00  0.00     0.010 Br
ENDROOT
BRANCH   1   4
HETATM    4  C4  UNL     1      48.676   7.679  53.780  1.00  0.00     0.213 C
BRANCH   4   5
HETATM    5  N2  UNL     1      48.234   7.593  55.127  1.00  0.00    -0.394 N
BRANCH   5   6
HETATM    6  C3  UNL     1      47.472   8.692  55.607  1.00  0.00     0.127 C
BRANCH   6   7
HETATM    7  C2  UNL     1      47.347   8.762  57.112  1.00  0.00     0.119 C
BRANCH   7   8
HETATM    8  C1  UNL     1      47.978   9.996  57.640  1.00  0.00     0.232 C
HETATM    9  N1  UNL     1      49.042  10.001  58.558  1.00  0.00    -0.062 NA
HETATM   10  O1  UNL     1      47.536  11.101  57.245  1.00  0.00    -0.277 OA
ENDBRANCH   7   8
ENDBRANCH   6   7
ENDBRANCH   5   6
BRANCH   5  11
HETATM   11  C7  UNL     1      49.174   7.159  56.094  1.00  0.00     0.220 C
BRANCH  11  12
HETATM   12  C8  UNL     1      48.928   5.792  56.636  1.00  0.00     0.237 C
HETATM   13  O2  UNL     1      48.525   4.850  55.917  1.00  0.00    -0.272 OA
HETATM   14  N3  UNL     1      49.155   5.527  58.011  1.00  0.00    -0.327 N
ATOM     15  H3  UNL     1      49.488   6.300  58.587  1.00  0.00     0.165 HD
BRANCH  14  16
HETATM   16  C9  UNL     1      48.954   4.263  58.657  1.00  0.00     0.201 C
HETATM   17  C10 UNL     1      47.514   3.814  58.704  1.00  0.00     0.066 C
HETATM   18  C11 UNL     1      47.467   2.439  59.324  1.00  0.00    -0.008 C
HETATM   19  C12 UNL     1      48.025   2.464  60.717  1.00  0.00     0.009 C
HETATM   20  C16 UNL     1      48.247   1.485  58.442  1.00  0.00     0.037 C
HETATM   21  C13 UNL     1      49.458   2.925  60.666  1.00  0.00    -0.008 C
HETATM   22  C14 UNL     1      50.227   1.939  59.832  1.00  0.00     0.037 C
HETATM   23  C17 UNL     1      49.472   4.324  60.077  1.00  0.00     0.066 C
HETATM   24  C15 UNL     1      49.670   1.969  58.429  1.00  0.00     0.189 C
HETATM   25  N4  UNL     1      49.775   3.294  57.917  1.00  0.00    -0.044 N
ATOM     26  H42 UNL     1      49.557   3.317  56.921  1.00  0.00     0.280 HD
ATOM     27  H41 UNL     1      50.749   3.594  57.882  1.00  0.00     0.280 HD
ENDBRANCH  14  16
ENDBRANCH  11  12
ENDBRANCH   5  11
ENDBRANCH   4   5
ENDBRANCH   1   4
TORSDOF 8
ENDMDL