MODEL 3
REMARK VINA RESULT: -5.916701732      1.400      1.745
REMARK  9 active torsions:
REMARK  status: ('A' for Active; 'I' for Inactive)
REMARK    1  A    between atoms: N1_2  and  C3_4
REMARK    2  A    between atoms: N1_2  and  C5_10
REMARK    3  A    between atoms: C3_4  and  C4_5
REMARK    4  A    between atoms: C4_5  and  O1_6
REMARK    5  A    between atoms: O1_6  and  N2_7
REMARK    6  A    between atoms: C5_10  and  C6_11
REMARK    7  A    between atoms: C9_14  and  C10_15
REMARK    8  A    between atoms: C10_15  and  N3_16
REMARK    9  A    between atoms: N3_16  and  N4_18
REMARK       I    between atoms: N4_18  and  C11_20
ROOT
HETATM    1  C6  UNL     1      49.614   5.275  57.846  1.00  0.00    -0.031 A
HETATM    2  C7  UNL     1      48.642   6.072  57.315  1.00  0.00     0.010 A
HETATM    3  C8  UNL     1      48.806   6.785  56.115  1.00  0.00     0.015 A
HETATM    4  C9  UNL     1      50.033   6.667  55.457  1.00  0.00    -0.002 A
HETATM    5  C12 UNL     1      51.069   5.841  56.015  1.00  0.00     0.023 A
HETATM    6 BR1  UNL     1      52.706   5.694  55.152  1.00  0.00    -0.050 Br
HETATM    7  C13 UNL     1      50.792   5.200  57.149  1.00  0.00     0.028 A
ENDROOT
BRANCH   1   8
HETATM    8  C5  UNL     1      49.272   4.428  59.039  1.00  0.00     0.275 C
BRANCH   8   9
HETATM    9  N1  UNL     1      48.853   3.062  58.731  1.00  0.00    -0.069 N
HETATM   10  C1  UNL     1      49.130   2.701  57.377  1.00  0.00     0.272 C
HETATM   11  C2  UNL     1      49.709   2.175  59.566  1.00  0.00     0.272 C
BRANCH   9  12
HETATM   12  C3  UNL     1      47.489   3.019  58.999  1.00  0.00     0.265 C
BRANCH  12  13
HETATM   13  C4  UNL     1      46.966   1.882  59.930  1.00  0.00     0.228 C
BRANCH  13  14
HETATM   14  O1  UNL     1      46.489   0.978  58.894  1.00  0.00    -0.286 OA
BRANCH  14  15
HETATM   15  N2  UNL     1      45.643   0.072  59.407  1.00  0.00    -0.311 N
ATOM     16  H22 UNL     1      45.900  -0.599  60.130  1.00  0.00     0.184 HD
ATOM     17  H21 UNL     1      44.722   0.153  58.975  1.00  0.00     0.184 HD
ENDBRANCH  14  15
ENDBRANCH  13  14
ENDBRANCH  12  13
ENDBRANCH   9  12
ENDBRANCH   8   9
ENDBRANCH   1   8
BRANCH   4  18
HETATM   18  C10 UNL     1      50.295   7.392  54.309  1.00  0.00     0.120 C
BRANCH  18  19
HETATM   19  N3  UNL     1      50.059   7.175  53.010  1.00  0.00    -0.309 N
ATOM     20  H3  UNL     1      50.827   6.920  52.388  1.00  0.00     0.186 HD
BRANCH  19  21
HETATM   21  N4  UNL     1      48.779   7.297  52.512  1.00  0.00    -0.274 N
HETATM   22  C11 UNL     1      47.903   8.084  52.734  1.00  0.00     0.200 C
HETATM   23  N5  UNL     1      46.769   7.365  51.539  1.00  0.00    -0.062 NA
HETATM   24  N6  UNL     1      47.108   9.016  53.119  1.00  0.00    -0.372 N
ATOM     25  H62 UNL     1      47.751   9.425  53.798  1.00  0.00     0.158 HD
ATOM     26  H61 UNL     1      46.362   9.686  53.308  1.00  0.00     0.158 HD
ATOM     27  H4  UNL     1      48.532   6.584  51.826  1.00  0.00     0.189 HD
ENDBRANCH  19  21
ENDBRANCH  18  19
ENDBRANCH   4  18
TORSDOF 9
ENDMDL