MODEL 1
REMARK VINA RESULT: -8.948877615      0.000      0.000
REMARK  10 active torsions:
REMARK  status: ('A' for Active; 'I' for Inactive)
REMARK    1  A    between atoms: C1_2  and  C2_4
REMARK    2  A    between atoms: C2_4  and  N1_5
REMARK    3  A    between atoms: C3_6  and  O3_7
REMARK    4  A    between atoms: C4_11  and  N3_12
REMARK    5  A    between atoms: N3_12  and  C5_14
REMARK    6  A    between atoms: C5_14  and  C6_15
REMARK    7  A    between atoms: C6_15  and  C7_16
REMARK    8  A    between atoms: C13_24  and  N5_25
REMARK    9  A    between atoms: N5_25  and  C14_26
REMARK   10  A    between atoms: C14_26  and  C15_27
ROOT
HETATM    1  N1  UNL     1      48.483   7.697  56.420  1.00  0.00    -0.262 N
HETATM    2  C3  UNL     1      49.381   6.995  57.146  1.00  0.00     0.241 A
HETATM    3  N2  UNL     1      50.318   6.262  56.533  1.00  0.00    -0.155 N
ATOM      4  H2  UNL     1      50.984   5.740  57.103  1.00  0.00     0.188 HD
HETATM    5  C4  UNL     1      50.414   6.188  55.195  1.00  0.00     0.684 A
HETATM    6  N4  UNL     1      49.521   6.887  54.494  1.00  0.00    -0.148 N
ATOM      7  H4  UNL     1      49.571   6.849  53.476  1.00  0.00     0.188 HD
HETATM    8  C13 UNL     1      48.542   7.651  55.066  1.00  0.00     0.279 A
ENDROOT
BRANCH   5   9
HETATM    9  N3  UNL     1      51.341   5.478  54.595  1.00  0.00    -0.226 N
ATOM     10  H3  UNL     1      51.516   5.560  53.594  1.00  0.00     0.177 HD
BRANCH   9  11
HETATM   11  C5  UNL     1      52.099   4.574  55.427  1.00  0.00     0.142 C
BRANCH  11  12
HETATM   12  C6  UNL     1      51.538   3.169  55.133  1.00  0.00     0.058 C
BRANCH  12  13
HETATM   13  C7  UNL     1      50.805   2.762  56.340  1.00  0.00    -0.057 A
HETATM   14  C8  UNL     1      51.475   2.721  57.557  1.00  0.00     0.007 A
HETATM   15  C9  UNL     1      50.763   2.339  58.669  1.00  0.00     0.001 A
HETATM   16  C10 UNL     1      49.407   2.001  58.587  1.00  0.00     0.000 A
HETATM   17  C11 UNL     1      48.741   2.042  57.378  1.00  0.00     0.001 A
HETATM   18  C12 UNL     1      49.489   2.431  56.273  1.00  0.00     0.007 A
ENDBRANCH  12  13
ENDBRANCH  11  12
ENDBRANCH   9  11
ENDBRANCH   5   9
BRANCH   2  19
HETATM   19  O3  UNL     1      49.301   7.056  58.552  1.00  0.00    -0.332 OA
ATOM     20  H3  UNL     1      49.923   6.551  59.063  1.00  0.00     0.221 HD
ENDBRANCH   2  19
BRANCH   8  21
HETATM   21  N5  UNL     1      47.779   8.239  54.366  1.00  0.00    -0.382 NA
BRANCH  21  22
HETATM   22  C14 UNL     1      47.073   9.107  53.629  1.00  0.00     0.198 C
BRANCH  22  23
HETATM   23  C15 UNL     1      46.404   8.408  52.479  1.00  0.00    -0.004 A
HETATM   24  C16 UNL     1      47.114   7.717  51.537  1.00  0.00     0.014 A
HETATM   25  C17 UNL     1      46.485   7.069  50.480  1.00  0.00     0.004 A
HETATM   26  C18 UNL     1      45.118   7.118  50.370  1.00  0.00     0.042 A
HETATM   27  C19 UNL     1      44.392   7.803  51.302  1.00  0.00     0.117 A
HETATM   28  F1  UNL     1      43.050   7.884  51.244  1.00  0.00    -0.206 F
HETATM   29  C20 UNL     1      45.038   8.445  52.353  1.00  0.00     0.056 A
ENDBRANCH  22  23
ENDBRANCH  21  22
ENDBRANCH   8  21
BRANCH   1  30
HETATM   30  C2  UNL     1      47.486   8.470  57.153  1.00  0.00     0.250 C
BRANCH  30  31
HETATM   31  C1  UNL     1      47.949   9.805  57.545  1.00  0.00     0.192 C
HETATM   32  O1  UNL     1      47.636  10.820  56.905  1.00  0.00    -0.647 OA
HETATM   33  O2  UNL     1      48.768   9.942  58.668  1.00  0.00    -0.647 OA
ENDBRANCH  30  31
ENDBRANCH   1  30
TORSDOF 10
ENDMDL