MODEL 1
REMARK VINA RESULT: -9.218525089      0.000      0.000
REMARK  7 active torsions:
REMARK  status: ('A' for Active; 'I' for Inactive)
REMARK    1  A    between atoms: C1_2  and  C2_4
REMARK    2  A    between atoms: C2_4  and  N2_5
REMARK    3  A    between atoms: N2_5  and  C3_6
REMARK       I    between atoms: N2_5  and  C10_14
REMARK    4  A    between atoms: C3_6  and  C4_7
REMARK    5  A    between atoms: C10_14  and  C11_16
REMARK    6  A    between atoms: C11_16  and  C12_17
REMARK    7  A    between atoms: C12_17  and  C13_18
ROOT
HETATM    1  C11 UNL     1      48.065   6.283  57.039  1.00  0.00     0.149 C
ENDROOT
BRANCH   1   2
HETATM    2  C10 UNL     1      48.258   7.012  55.768  1.00  0.00     0.223 C
HETATM    3  N2  UNL     1      47.776   8.332  55.558  1.00  0.00    -0.340 N
HETATM    4  O2  UNL     1      48.882   6.416  54.842  1.00  0.00    -0.273 OA
BRANCH   3   5
HETATM    5  C2  UNL     1      47.071   8.964  56.651  1.00  0.00     0.225 C
BRANCH   5   6
HETATM    6  C1  UNL     1      47.910   9.968  57.347  1.00  0.00     0.249 C
HETATM    7  N1  UNL     1      49.093   9.604  58.050  1.00  0.00    -0.061 NA
HETATM    8  O1  UNL     1      47.587  11.183  57.328  1.00  0.00    -0.275 OA
ENDBRANCH   5   6
ENDBRANCH   3   5
BRANCH   3   9
HETATM    9  C3  UNL     1      47.947   9.061  54.343  1.00  0.00     0.165 C
BRANCH   9  10
HETATM   10  C4  UNL     1      46.965   8.685  53.294  1.00  0.00    -0.037 A
HETATM   11  C5  UNL     1      45.634   9.014  53.428  1.00  0.00     0.009 A
HETATM   12  C6  UNL     1      44.693   8.675  52.461  1.00  0.00     0.004 A
HETATM   13  C7  UNL     1      45.070   7.990  51.324  1.00  0.00     0.042 A
HETATM   14  C8  UNL     1      46.401   7.660  51.188  1.00  0.00     0.117 A
HETATM   15  F1  UNL     1      46.794   6.991  50.086  1.00  0.00    -0.206 F
HETATM   16  C9  UNL     1      47.338   8.001  52.156  1.00  0.00     0.051 A
ENDBRANCH   9  10
ENDBRANCH   3   9
ENDBRANCH   1   2
BRANCH   1  17
HETATM   17  C12 UNL     1      49.218   5.340  57.324  1.00  0.00     0.151 C
HETATM   18  N3  UNL     1      50.035   5.149  56.142  1.00  0.00    -0.320 N
HETATM   19  C19 UNL     1      51.383   5.069  56.573  1.00  0.00     0.324 C
ATOM     20  H3  UNL     1      49.702   5.085  55.180  1.00  0.00     0.165 HD
HETATM   21  O3  UNL     1      52.379   4.642  55.888  1.00  0.00    -0.247 OA
HETATM   22  N4  UNL     1      51.484   5.541  57.907  1.00  0.00    -0.277 N
HETATM   23  C20 UNL     1      50.170   5.914  58.295  1.00  0.00     0.259 C
ATOM     24  H4  UNL     1      52.330   5.599  58.474  1.00  0.00     0.173 HD
HETATM   25  O4  UNL     1      49.947   6.623  59.316  1.00  0.00    -0.270 OA
BRANCH  17  26
HETATM   26  C13 UNL     1      48.692   4.018  57.718  1.00  0.00    -0.020 A
HETATM   27  C14 UNL     1      47.727   3.932  58.704  1.00  0.00     0.010 A
HETATM   28  C15 UNL     1      47.211   2.703  59.096  1.00  0.00     0.001 A
HETATM   29  C16 UNL     1      47.661   1.541  58.501  1.00  0.00     0.000 A
HETATM   30  C17 UNL     1      48.618   1.600  57.521  1.00  0.00     0.001 A
HETATM   31  C18 UNL     1      49.116   2.850  57.150  1.00  0.00     0.010 A
ENDBRANCH  17  26
ENDBRANCH   1  17
TORSDOF 7
ENDMDL