MODEL 5
REMARK VINA RESULT: -6.243520126      4.917      6.115
REMARK  11 active torsions:
REMARK  status: ('A' for Active; 'I' for Inactive)
REMARK    1  A    between atoms: O1_2  and  C2_3
REMARK    2  A    between atoms: C2_3  and  C3_4
REMARK    3  A    between atoms: C3_4  and  N1_5
REMARK    4  A    between atoms: N1_5  and  C4_6
REMARK    5  A    between atoms: N1_5  and  C6_10
REMARK    6  A    between atoms: C4_6  and  C5_7
REMARK    7  A    between atoms: C6_10  and  O3_11
REMARK    8  A    between atoms: C6_10  and  C7_13
REMARK    9  A    between atoms: C10_16  and  C11_17
REMARK   10  A    between atoms: C12_18  and  C13_19
REMARK   11  A    between atoms: C16_22  and  C17_23
ROOT
HETATM    1  C7  UNL     1      53.562   8.177  53.947  1.00  0.00     0.018 A
HETATM    2  C8  UNL     1      53.083   8.828  52.843  1.00  0.00     0.017 A
HETATM    3  C9  UNL     1      51.738   8.727  52.438  1.00  0.00     0.025 A
HETATM    4  C10 UNL     1      50.833   7.970  53.129  1.00  0.00     0.056 A
HETATM    5  C20 UNL     1      51.290   7.311  54.239  1.00  0.00     0.136 A
HETATM    6  F1  UNL     1      50.419   6.557  54.941  1.00  0.00    -0.205 F
HETATM    7  C21 UNL     1      52.601   7.410  54.632  1.00  0.00     0.059 A
ENDROOT
BRANCH   4   8
HETATM    8  C11 UNL     1      49.470   7.894  52.684  1.00  0.00    -0.058 C
HETATM    9  C12 UNL     1      48.326   7.844  52.328  1.00  0.00    -0.061 C
BRANCH   9  10
HETATM   10  C13 UNL     1      46.961   7.762  51.909  1.00  0.00     0.018 A
HETATM   11  C14 UNL     1      45.986   8.428  52.607  1.00  0.00     0.021 A
HETATM   12  C15 UNL     1      44.674   8.358  52.216  1.00  0.00     0.016 A
HETATM   13  C16 UNL     1      44.297   7.631  51.132  1.00  0.00     0.005 A
HETATM   14  C18 UNL     1      45.275   6.951  50.415  1.00  0.00     0.016 A
HETATM   15  C19 UNL     1      46.596   7.015  50.798  1.00  0.00     0.021 A
BRANCH  13  16
HETATM   16  C17 UNL     1      42.927   7.537  50.694  1.00  0.00     0.120 C
HETATM   17  N3  UNL     1      42.632   7.401  49.469  1.00  0.00    -0.387 N
ATOM     18  H32 UNL     1      43.391   7.358  48.788  1.00  0.00     0.157 HD
ATOM     19  H31 UNL     1      41.662   7.333  49.159  1.00  0.00     0.157 HD
HETATM   20  N4  UNL     1      41.858   7.597  51.650  1.00  0.00    -0.082 NA
ENDBRANCH  13  16
ENDBRANCH   9  10
ENDBRANCH   4   8
BRANCH   1  21
HETATM   21  C6  UNL     1      54.929   8.235  54.400  1.00  0.00     0.149 C
BRANCH  21  22
HETATM   22  N1  UNL     1      56.125   7.783  53.885  1.00  0.00    -0.351 N
BRANCH  22  23
HETATM   23  C3  UNL     1      57.151   8.454  53.178  1.00  0.00     0.151 C
BRANCH  23  24
HETATM   24  C2  UNL     1      56.868   9.918  52.878  1.00  0.00     0.186 C
BRANCH  24  25
HETATM   25  O1  UNL     1      56.600  10.126  51.540  1.00  0.00    -0.394 OA
HETATM   26  C1  UNL     1      56.677   8.962  50.792  1.00  0.00     0.201 C
ENDBRANCH  24  25
ENDBRANCH  23  24
ENDBRANCH  22  23
BRANCH  22  27
HETATM   27  C4  UNL     1      56.397   6.324  54.107  1.00  0.00     0.224 C
BRANCH  27  28
HETATM   28  C5  UNL     1      56.181   5.606  52.832  1.00  0.00     0.248 C
HETATM   29  N2  UNL     1      57.246   5.103  52.040  1.00  0.00    -0.061 NA
HETATM   30  O2  UNL     1      55.007   5.433  52.430  1.00  0.00    -0.275 OA
ENDBRANCH  27  28
ENDBRANCH  22  27
ENDBRANCH  21  22
BRANCH  21  31
HETATM   31  O3  UNL     1      55.026   8.865  55.570  1.00  0.00    -0.346 OA
ATOM     32  H3  UNL     1      55.835   8.709  56.041  1.00  0.00     0.219 HD
ENDBRANCH  21  31
ENDBRANCH   1  21
TORSDOF 11
ENDMDL