MODEL 4
REMARK VINA RESULT: -8.082598805      1.052      1.176
REMARK  8 active torsions:
REMARK  status: ('A' for Active; 'I' for Inactive)
REMARK    1  A    between atoms: N1_1  and  N2_4
REMARK    2  A    between atoms: N2_4  and  C1_5
REMARK    3  A    between atoms: C1_5  and  C2_6
REMARK    4  A    between atoms: C2_6  and  N3_7
REMARK    5  A    between atoms: N3_7  and  C3_10
REMARK    6  A    between atoms: C3_10  and  C4_11
REMARK    7  A    between atoms: C4_11  and  C5_12
REMARK    8  A    between atoms: C5_12  and  N4_13
ROOT
HETATM    1  N4  UNL     1      49.275   7.133  54.815  1.00  0.00    -0.351 N
ATOM      2  H4  UNL     1      48.442   7.206  55.399  1.00  0.00     0.166 HD
HETATM    3  C6  UNL     1      50.109   6.294  55.204  1.00  0.00     0.175 C
HETATM    4  N5  UNL     1      49.800   5.587  56.355  1.00  0.00    -0.336 N
ATOM      5  H5  UNL     1      49.266   6.099  57.057  1.00  0.00     0.168 HD
HETATM    6  C7  UNL     1      50.112   4.305  56.675  1.00  0.00     0.067 C
HETATM    7  C8  UNL     1      49.162   3.556  57.467  1.00  0.00    -0.008 A
HETATM    8  C9  UNL     1      48.130   4.147  58.199  1.00  0.00     0.014 A
HETATM    9  C10 UNL     1      47.187   3.402  58.898  1.00  0.00     0.001 A
HETATM   10  C11 UNL     1      47.230   2.035  58.899  1.00  0.00     0.000 A
HETATM   11  C12 UNL     1      48.232   1.422  58.188  1.00  0.00     0.001 A
HETATM   12  C13 UNL     1      49.182   2.180  57.483  1.00  0.00     0.014 A
HETATM   13  C14 UNL     1      51.303   3.708  56.312  1.00  0.00     0.106 C
HETATM   14 BR1  UNL     1      52.136   2.638  57.612  1.00  0.00    -0.043 Br
HETATM   15  C15 UNL     1      51.960   3.836  55.098  1.00  0.00     0.268 C
HETATM   16  O1  UNL     1      52.679   2.878  54.729  1.00  0.00    -0.267 OA
HETATM   17  N6  UNL     1      51.891   4.910  54.275  1.00  0.00    -0.286 N
ATOM     18  H6  UNL     1      52.360   4.805  53.375  1.00  0.00     0.172 HD
HETATM   19  C16 UNL     1      51.283   6.114  54.483  1.00  0.00     0.292 C
HETATM   20  O2  UNL     1      51.857   7.090  53.970  1.00  0.00    -0.264 OA
ENDROOT
BRANCH   1  21
HETATM   21  C5  UNL     1      49.289   7.991  53.709  1.00  0.00     0.064 C
BRANCH  21  22
HETATM   22  C4  UNL     1      48.084   7.780  52.806  1.00  0.00     0.072 C
BRANCH  22  23
HETATM   23  C3  UNL     1      46.954   8.712  53.172  1.00  0.00     0.237 C
BRANCH  23  24
HETATM   24  N3  UNL     1      46.110   9.080  52.086  1.00  0.00    -0.069 N
ATOM     25  H32 UNL     1      46.607   8.994  51.199  1.00  0.00     0.277 HD
ATOM     26  H31 UNL     1      45.938  10.086  52.089  1.00  0.00     0.277 HD
BRANCH  24  27
HETATM   27  C2  UNL     1      44.875   8.357  52.043  1.00  0.00     0.293 C
BRANCH  27  28
HETATM   28  C1  UNL     1      44.788   7.537  50.789  1.00  0.00     0.208 C
BRANCH  28  29
HETATM   29  N2  UNL     1      45.803   7.060  50.234  1.00  0.00    -0.348 NA
BRANCH  29  30
HETATM   30  N1  UNL     1      46.777   6.670  49.570  1.00  0.00    -0.281 N
ATOM     31  H12 UNL     1      46.504   7.423  48.938  1.00  0.00     0.191 HD
ATOM     32  H11 UNL     1      47.593   6.268  49.109  1.00  0.00     0.191 HD
ENDBRANCH  29  30
ENDBRANCH  28  29
ENDBRANCH  27  28
ENDBRANCH  24  27
ENDBRANCH  23  24
ENDBRANCH  22  23
ENDBRANCH  21  22
ENDBRANCH   1  21
TORSDOF 8
ENDMDL