MODEL 5
REMARK VINA RESULT: -7.103039398      4.120      5.785
REMARK  7 active torsions:
REMARK  status: ('A' for Active; 'I' for Inactive)
REMARK    1  A    between atoms: C2_2  and  C3_3
REMARK    2  A    between atoms: C3_3  and  C4_4
REMARK    3  A    between atoms: C4_4  and  C5_5
REMARK    4  A    between atoms: C12_15  and  C13_16
REMARK    5  A    between atoms: C13_16  and  C14_17
REMARK    6  A    between atoms: C14_17  and  C15_18
REMARK    7  A    between atoms: C15_18  and  N2_19
ROOT
HETATM    1  C5  UNL     1      49.597   4.653  57.994  1.00  0.00     0.146 A
HETATM    2  N1  UNL     1      50.496   3.645  57.608  1.00  0.00    -0.378 N
ATOM      3  H1  UNL     1      50.348   2.802  58.163  1.00  0.00     0.160 HD
HETATM    4  C6  UNL     1      51.438   3.470  56.776  1.00  0.00     0.041 A
HETATM    5  C7  UNL     1      51.991   2.208  56.850  1.00  0.00     0.031 A
HETATM    6  C8  UNL     1      53.017   1.898  55.997  1.00  0.00     0.021 A
HETATM    7  C9  UNL     1      53.515   2.793  55.076  1.00  0.00     0.011 A
HETATM    8 BR1  UNL     1      54.946   2.348  53.893  1.00  0.00    -0.051 Br
HETATM    9  C10 UNL     1      52.912   4.054  55.051  1.00  0.00     0.034 A
HETATM   10  C11 UNL     1      51.895   4.417  55.868  1.00  0.00     0.014 A
HETATM   11  C12 UNL     1      51.523   5.687  55.652  1.00  0.00     0.023 A
HETATM   12  N5  UNL     1      50.521   6.310  56.446  1.00  0.00    -0.349 N
ATOM     13  H5  UNL     1      50.408   7.293  56.200  1.00  0.00     0.166 HD
HETATM   14  C17 UNL     1      49.730   5.971  57.377  1.00  0.00     0.116 A
HETATM   15  N6  UNL     1      48.847   6.992  57.906  1.00  0.00    -0.085 NA
ENDROOT
BRANCH  11  16
HETATM   16  C13 UNL     1      52.174   6.474  54.614  1.00  0.00     0.059 C
BRANCH  16  17
HETATM   17  C14 UNL     1      51.386   6.721  53.365  1.00  0.00     0.026 C
BRANCH  17  18
HETATM   18  C15 UNL     1      50.224   7.649  53.495  1.00  0.00     0.122 C
BRANCH  18  19
HETATM   19  N2  UNL     1      49.092   7.164  52.738  1.00  0.00    -0.367 N
HETATM   20  C16 UNL     1      48.042   7.894  52.617  1.00  0.00     0.196 C
HETATM   21  N3  UNL     1      46.913   7.448  51.881  1.00  0.00    -0.067 NA
HETATM   22  N4  UNL     1      48.012   9.163  53.230  1.00  0.00    -0.067 NA
ATOM     23  H2  UNL     1      49.128   6.243  52.300  1.00  0.00     0.161 HD
ENDBRANCH  18  19
ENDBRANCH  17  18
ENDBRANCH  16  17
ENDBRANCH  11  16
BRANCH   1  24
HETATM   24  C4  UNL     1      48.137   4.225  57.874  1.00  0.00     0.033 C
BRANCH  24  25
HETATM   25  C3  UNL     1      47.717   3.248  58.917  1.00  0.00     0.002 C
BRANCH  25  26
HETATM   26  C2  UNL     1      47.701   1.833  58.440  1.00  0.00    -0.004 C
HETATM   27  C1  UNL     1      46.515   1.112  59.083  1.00  0.00     0.005 C
ENDBRANCH  25  26
ENDBRANCH  24  25
ENDBRANCH   1  24
TORSDOF 7
ENDMDL