MODEL 3
REMARK VINA RESULT: -8.526086957      2.619      5.221
REMARK  9 active torsions:
REMARK  status: ('A' for Active; 'I' for Inactive)
REMARK    1  A    between atoms: O1_1  and  C1_3
REMARK    2  A    between atoms: C1_3  and  C12_17
REMARK    3  A    between atoms: C2_4  and  C3_5
REMARK    4  A    between atoms: C3_5  and  C4_6
REMARK    5  A    between atoms: C4_6  and  C5_7
REMARK    6  A    between atoms: C5_7  and  C6_8
REMARK    7  A    between atoms: C9_11  and  N1_12
REMARK    8  A    between atoms: C13_18  and  C14_19
REMARK    9  A    between atoms: C15_20  and  C16_21
ROOT
HETATM    1  C1  UNL     1      24.596  49.269  64.346  1.00  0.00     0.065 C
HETATM    2  C2  UNL     1      23.350  48.957  63.745  1.00  0.00     0.036 C
ENDROOT
BRANCH   2   3
HETATM    3  C3  UNL     1      22.178  49.295  64.133  1.00  0.00     0.003 C
BRANCH   3   4
HETATM    4  C4  UNL     1      20.917  49.112  63.492  1.00  0.00     0.001 C
BRANCH   4   5
HETATM    5  C5  UNL     1      20.578  47.906  62.960  1.00  0.00     0.011 C
BRANCH   5   6
HETATM    6  C6  UNL     1      21.335  47.354  61.873  1.00  0.00    -0.036 A
HETATM    7  C7  UNL     1      21.360  48.098  60.684  1.00  0.00     0.014 A
HETATM    8  C8  UNL     1      22.046  47.685  59.567  1.00  0.00     0.037 A
HETATM    9  C9  UNL     1      22.749  46.486  59.596  1.00  0.00     0.102 A
HETATM   10  C10 UNL     1      22.739  45.747  60.743  1.00  0.00     0.037 A
HETATM   11  C11 UNL     1      22.042  46.178  61.859  1.00  0.00     0.014 A
BRANCH   9  12
HETATM   12  N1  UNL     1      23.472  46.020  58.467  1.00  0.00    -0.116 N
HETATM   13  O2  UNL     1      23.032  45.011  57.866  1.00  0.00    -0.532 OA
HETATM   14  O3  UNL     1      24.609  46.671  58.071  1.00  0.00    -0.532 OA
ENDBRANCH   9  12
ENDBRANCH   5   6
ENDBRANCH   4   5
ENDBRANCH   3   4
ENDBRANCH   2   3
BRANCH   1  15
HETATM   15  O1  UNL     1      24.536  49.995  65.440  1.00  0.00    -0.361 OA
ATOM     16  H1  UNL     1      25.368  50.176  65.862  1.00  0.00     0.217 HD
ENDBRANCH   1  15
BRANCH   1  17
HETATM   17  C12 UNL     1      25.904  48.932  63.972  1.00  0.00     0.036 C
HETATM   18  C13 UNL     1      26.490  48.046  63.258  1.00  0.00     0.003 C
BRANCH  18  19
HETATM   19  C14 UNL     1      25.980  46.953  62.495  1.00  0.00     0.003 C
HETATM   20  C15 UNL     1      26.408  45.751  62.379  1.00  0.00     0.037 C
BRANCH  20  21
HETATM   21  C16 UNL     1      27.510  45.041  62.933  1.00  0.00     0.074 A
HETATM   22  C17 UNL     1      28.851  45.159  62.830  1.00  0.00     0.039 A
HETATM   23  C18 UNL     1      29.440  44.160  63.617  1.00  0.00     0.027 A
HETATM   24  C19 UNL     1      28.389  43.479  64.163  1.00  0.00     0.142 A
HETATM   25  O4  UNL     1      27.288  43.993  63.764  1.00  0.00    -0.323 OA
ENDBRANCH  20  21
ENDBRANCH  18  19
ENDBRANCH   1  17
TORSDOF 9
ENDMDL