MODEL 4
REMARK VINA RESULT: -7.578064320      1.447      2.111
REMARK  7 active torsions:
REMARK  status: ('A' for Active; 'I' for Inactive)
REMARK    1  A    between atoms: C2_2  and  C3_3
REMARK    2  A    between atoms: C2_2  and  C6_6
REMARK    3  A    between atoms: C7_7  and  C8_8
REMARK    4  A    between atoms: C8_8  and  C9_10
REMARK    5  A    between atoms: C9_10  and  C10_11
REMARK    6  A    between atoms: C10_11  and  C11_13
REMARK    7  A    between atoms: C16_19  and  S2_20
ROOT
HETATM    1  C6  UNL     1      24.491  47.290  61.290  1.00  0.00     0.011 A
HETATM    2  C7  UNL     1      23.196  47.562  61.600  1.00  0.00     0.029 A
HETATM    3  C15 UNL     1      22.371  47.864  60.541  1.00  0.00     0.067 A
HETATM    4  S1  UNL     1      23.388  47.762  59.186  1.00  0.00    -0.093 SA
HETATM    5  C16 UNL     1      24.836  47.342  59.965  1.00  0.00     0.052 A
ENDROOT
BRANCH   2   6
HETATM    6  C8  UNL     1      22.653  47.511  62.991  1.00  0.00     0.168 C
HETATM    7  O1  UNL     1      22.379  46.432  63.555  1.00  0.00    -0.292 OA
BRANCH   6   8
HETATM    8  C9  UNL     1      22.423  48.760  63.749  1.00  0.00     0.167 C
BRANCH   8   9
HETATM    9  C10 UNL     1      20.988  48.839  64.220  1.00  0.00     0.156 C
HETATM   10  O2  UNL     1      20.697  48.324  65.323  1.00  0.00    -0.293 OA
BRANCH   9  11
HETATM   11  C11 UNL     1      20.027  49.509  63.368  1.00  0.00     0.052 C
HETATM   12  C12 UNL     1      19.208  48.870  62.573  1.00  0.00    -0.084 C
HETATM   13  C13 UNL     1      19.189  47.407  62.475  1.00  0.00     0.043 C
HETATM   14  C14 UNL     1      18.258  49.660  61.735  1.00  0.00     0.043 C
ENDBRANCH   9  11
ENDBRANCH   8   9
ENDBRANCH   6   8
ENDBRANCH   2   6
BRANCH   1  15
HETATM   15  C2  UNL     1      25.574  46.977  62.278  1.00  0.00    -0.033 C
HETATM   16  C1  UNL     1      26.100  47.926  63.013  1.00  0.00     0.024 C
BRANCH  15  17
HETATM   17  C3  UNL     1      26.052  45.613  62.429  1.00  0.00     0.007 C
HETATM   18  C4  UNL     1      27.345  45.400  62.695  1.00  0.00    -0.030 C
HETATM   19  C5  UNL     1      27.883  44.032  62.858  1.00  0.00     0.036 C
ENDBRANCH  15  17
ENDBRANCH   1  15
BRANCH   5  20
HETATM   20  S2  UNL     1      26.472  47.033  59.238  1.00  0.00    -0.126 SA
HETATM   21  C17 UNL     1      26.416  47.732  57.552  1.00  0.00     0.096 C
ENDBRANCH   5  20
TORSDOF 7
ENDMDL