MODEL 2
REMARK VINA RESULT: -8.214073091      2.762      5.012
REMARK  7 active torsions:
REMARK  status: ('A' for Active; 'I' for Inactive)
REMARK    1  A    between atoms: C1_2  and  C2_3
REMARK    2  A    between atoms: C1_2  and  C10_11
REMARK    3  A    between atoms: C2_3  and  C3_4
REMARK    4  A    between atoms: C3_4  and  C4_5
REMARK    5  A    between atoms: C10_11  and  C11_12
REMARK    6  A    between atoms: C11_12  and  C12_13
REMARK    7  A    between atoms: C16_17  and  C17_18
ROOT
HETATM    1  C12 UNL     1      26.426  46.364  62.379  1.00  0.00     0.145 C
HETATM    2  C13 UNL     1      25.246  45.463  62.337  1.00  0.00     0.001 C
HETATM    3  C14 UNL     1      24.731  45.197  61.145  1.00  0.00    -0.025 C
HETATM    4  C15 UNL     1      25.328  45.785  59.938  1.00  0.00     0.065 C
HETATM    5  C16 UNL     1      26.740  46.222  60.093  1.00  0.00     0.177 C
HETATM    6  O3  UNL     1      27.268  46.060  61.345  1.00  0.00    -0.370 OA
ENDROOT
BRANCH   1   7
HETATM    7  C11 UNL     1      25.953  47.801  62.381  1.00  0.00     0.043 C
BRANCH   7   8
HETATM    8  C10 UNL     1      26.182  48.358  63.763  1.00  0.00     0.081 C
BRANCH   8   9
HETATM    9  C1  UNL     1      25.056  49.243  64.129  1.00  0.00     0.127 C
HETATM   10  O1  UNL     1      25.089  49.826  65.192  1.00  0.00    -0.298 OA
BRANCH   9  11
HETATM   11  C2  UNL     1      23.926  49.408  63.222  1.00  0.00     0.078 C
BRANCH  11  12
HETATM   12  C3  UNL     1      22.704  48.657  63.605  1.00  0.00     0.012 C
BRANCH  12  13
HETATM   13  C4  UNL     1      22.295  47.549  62.741  1.00  0.00    -0.014 C
HETATM   14  C5  UNL     1      21.093  46.751  62.917  1.00  0.00     0.004 C
HETATM   15  C6  UNL     1      19.850  47.410  62.417  1.00  0.00     0.000 C
HETATM   16  C7  UNL     1      20.012  48.716  61.732  1.00  0.00     0.000 C
HETATM   17  C8  UNL     1      21.208  48.830  60.854  1.00  0.00     0.000 C
HETATM   18  C9  UNL     1      22.368  48.004  61.280  1.00  0.00     0.004 C
ENDBRANCH  12  13
ENDBRANCH  11  12
ENDBRANCH   9  11
ENDBRANCH   8   9
ENDBRANCH   7   8
ENDBRANCH   1   7
BRANCH   5  19
HETATM   19  C17 UNL     1      27.655  45.561  59.122  1.00  0.00     0.062 A
HETATM   20  C18 UNL     1      28.061  44.247  59.255  1.00  0.00     0.170 A
HETATM   21  O2  UNL     1      28.859  43.968  58.244  1.00  0.00    -0.316 OA
HETATM   22  C19 UNL     1      28.976  45.039  57.479  1.00  0.00     0.233 A
HETATM   23  N1  UNL     1      28.233  46.023  58.020  1.00  0.00    -0.347 N
ATOM     24  H1  UNL     1      28.132  46.966  57.645  1.00  0.00     0.167 HD
ENDBRANCH   5  19
TORSDOF 7
ENDMDL