MODEL 3
REMARK VINA RESULT: -8.734070344      2.564      7.148
REMARK  8 active torsions:
REMARK  status: ('A' for Active; 'I' for Inactive)
REMARK    1  A    between atoms: C2_2  and  C3_4
REMARK    2  A    between atoms: C4_5  and  C5_6
REMARK    3  A    between atoms: C7_8  and  C8_9
REMARK    4  A    between atoms: C9_10  and  C10_11
REMARK    5  A    between atoms: C10_11  and  C12_13
REMARK    6  A    between atoms: C12_13  and  C13_14
REMARK    7  A    between atoms: C13_14  and  C14_15
REMARK    8  A    between atoms: C14_15  and  C15_17
ROOT
HETATM    1  C10 UNL     1      22.293  48.060  62.569  1.00  0.00    -0.062 C
HETATM    2  C11 UNL     1      23.529  48.598  63.167  1.00  0.00     0.048 C
ENDROOT
BRANCH   1   3
HETATM    3  C9  UNL     1      21.591  48.784  61.738  1.00  0.00     0.007 C
HETATM    4  C8  UNL     1      20.451  48.413  60.937  1.00  0.00     0.001 C
BRANCH   4   5
HETATM    5  C7  UNL     1      19.150  48.989  61.086  1.00  0.00     0.007 C
HETATM    6  C5  UNL     1      18.151  48.933  61.939  1.00  0.00    -0.062 C
HETATM    7  C6  UNL     1      16.978  49.823  61.526  1.00  0.00     0.048 C
BRANCH   6   8
HETATM    8  C4  UNL     1      18.067  48.165  63.139  1.00  0.00     0.010 C
HETATM    9  C3  UNL     1      18.617  48.138  64.291  1.00  0.00     0.050 C
BRANCH   9  10
HETATM   10  C2  UNL     1      19.601  48.833  65.026  1.00  0.00     0.145 C
HETATM   11  C1  UNL     1      19.989  50.267  64.656  1.00  0.00     0.096 C
HETATM   12  O1  UNL     1      20.231  48.398  65.995  1.00  0.00    -0.294 OA
ENDBRANCH   9  10
ENDBRANCH   6   8
ENDBRANCH   4   5
ENDBRANCH   1   3
BRANCH   1  13
HETATM   13  C12 UNL     1      21.897  46.696  62.958  1.00  0.00     0.011 C
BRANCH  13  14
HETATM   14  C13 UNL     1      22.206  45.654  62.244  1.00  0.00     0.058 C
BRANCH  14  15
HETATM   15  C14 UNL     1      23.021  45.556  61.066  1.00  0.00     0.205 C
HETATM   16  O2  UNL     1      22.509  45.662  59.889  1.00  0.00    -0.285 OA
BRANCH  15  17
HETATM   17  C15 UNL     1      24.477  45.332  61.073  1.00  0.00     0.124 A
HETATM   18  N1  UNL     1      25.322  45.176  62.066  1.00  0.00    -0.351 N
HETATM   19  C16 UNL     1      26.584  44.988  61.849  1.00  0.00     0.012 A
ATOM     20  H1  UNL     1      24.977  45.204  63.026  1.00  0.00     0.166 HD
HETATM   21  C17 UNL     1      27.578  44.805  62.980  1.00  0.00     0.068 C
HETATM   22  C18 UNL     1      27.004  44.958  60.543  1.00  0.00     0.076 A
HETATM   23  S1  UNL     1      25.536  45.206  59.707  1.00  0.00    -0.078 SA
ENDBRANCH  15  17
ENDBRANCH  14  15
ENDBRANCH  13  14
ENDBRANCH   1  13
TORSDOF 8
ENDMDL