MODEL 5
REMARK VINA RESULT: -7.342894322      2.915      3.961
REMARK  7 active torsions:
REMARK  status: ('A' for Active; 'I' for Inactive)
REMARK    1  A    between atoms: C1_1  and  C9_9
REMARK    2  A    between atoms: C2_2  and  C3_3
REMARK    3  A    between atoms: C9_9  and  S1_10
REMARK    4  A    between atoms: S1_10  and  S2_11
REMARK    5  A    between atoms: S2_11  and  S3_12
REMARK    6  A    between atoms: S3_12  and  C10_13
REMARK    7  A    between atoms: C10_13  and  C11_14
ROOT
HETATM    1  S1  UNL     1      27.542  44.288  60.421  1.00  0.00    -0.082 SA
ENDROOT
BRANCH   1   2
HETATM    2  C9  UNL     1      28.239  45.220  61.804  1.00  0.00     0.114 C
BRANCH   2   3
HETATM    3  C1  UNL     1      27.151  45.941  62.481  1.00  0.00    -0.015 C
HETATM    4  C2  UNL     1      27.134  47.247  62.526  1.00  0.00     0.008 C
BRANCH   4   5
HETATM    5  C3  UNL     1      26.077  48.034  63.183  1.00  0.00    -0.036 A
HETATM    6  C4  UNL     1      26.421  48.904  64.204  1.00  0.00     0.011 A
HETATM    7  C5  UNL     1      25.438  49.632  64.811  1.00  0.00     0.001 A
HETATM    8  C6  UNL     1      24.110  49.539  64.452  1.00  0.00     0.000 A
HETATM    9  C7  UNL     1      23.810  48.665  63.435  1.00  0.00     0.001 A
HETATM   10  C8  UNL     1      24.777  47.900  62.784  1.00  0.00     0.011 A
ENDBRANCH   4   5
ENDBRANCH   2   3
ENDBRANCH   1   2
BRANCH   1  11
HETATM   11  S2  UNL     1      26.350  45.666  59.278  1.00  0.00    -0.025 SA
BRANCH  11  12
HETATM   12  S3  UNL     1      24.331  45.466  59.862  1.00  0.00    -0.083 SA
BRANCH  12  13
HETATM   13  C10 UNL     1      23.192  46.104  58.630  1.00  0.00     0.125 C
BRANCH  13  14
HETATM   14  C11 UNL     1      22.970  47.539  58.670  1.00  0.00     0.073 C
HETATM   15  C12 UNL     1      22.519  48.199  59.936  1.00  0.00     0.041 C
HETATM   16  C13 UNL     1      22.395  49.638  59.383  1.00  0.00     0.035 C
HETATM   17  C14 UNL     1      22.920  49.317  57.976  1.00  0.00     0.125 C
HETATM   18  C15 UNL     1      24.125  48.448  58.251  1.00  0.00     0.071 C
HETATM   19  O1  UNL     1      22.242  48.143  57.652  1.00  0.00    -0.374 OA
ENDBRANCH  13  14
ENDBRANCH  12  13
ENDBRANCH  11  12
ENDBRANCH   1  11
TORSDOF 7
ENDMDL