MODEL 4
REMARK VINA RESULT: -8.448172345      2.724      5.426
REMARK  7 active torsions:
REMARK  status: ('A' for Active; 'I' for Inactive)
REMARK    1  A    between atoms: C2_2  and  S1_3
REMARK    2  A    between atoms: C2_2  and  C9_10
REMARK    3  A    between atoms: S1_3  and  C3_4
REMARK    4  A    between atoms: C9_10  and  C10_11
REMARK    5  A    between atoms: C9_10  and  N1_20
REMARK    6  A    between atoms: C10_11  and  C11_12
REMARK    7  A    between atoms: C13_14  and  C14_15
ROOT
HETATM    1  C9  UNL     1      23.061  46.862  59.596  1.00  0.00     0.100 C
ENDROOT
BRANCH   1   2
HETATM    2  C2  UNL     1      24.482  47.037  59.888  1.00  0.00     0.025 C
HETATM    3  C1  UNL     1      25.391  47.659  59.190  1.00  0.00     0.034 C
BRANCH   2   4
HETATM    4  S1  UNL     1      25.035  46.293  61.456  1.00  0.00    -0.089 SA
BRANCH   4   5
HETATM    5  C3  UNL     1      25.277  47.550  62.691  1.00  0.00     0.005 A
HETATM    6  C4  UNL     1      26.511  47.846  63.247  1.00  0.00     0.019 A
HETATM    7  C5  UNL     1      26.621  48.848  64.213  1.00  0.00     0.001 A
HETATM    8  C6  UNL     1      25.511  49.554  64.626  1.00  0.00     0.000 A
HETATM    9  C7  UNL     1      24.287  49.252  64.067  1.00  0.00     0.001 A
HETATM   10  C8  UNL     1      24.191  48.268  63.119  1.00  0.00     0.019 A
ENDBRANCH   4   5
ENDBRANCH   2   4
ENDBRANCH   1   2
BRANCH   1  11
HETATM   11  C10 UNL     1      22.102  47.861  60.090  1.00  0.00     0.099 C
BRANCH  11  12
HETATM   12  C11 UNL     1      21.428  47.686  61.370  1.00  0.00    -0.075 C
HETATM   13  C12 UNL     1      21.350  46.417  62.132  1.00  0.00     0.044 C
HETATM   14  C13 UNL     1      20.790  48.738  61.890  1.00  0.00     0.040 C
BRANCH  14  15
HETATM   15  C14 UNL     1      20.070  48.786  63.135  1.00  0.00     0.075 A
HETATM   16  C15 UNL     1      20.360  49.512  64.265  1.00  0.00     0.039 A
HETATM   17  C16 UNL     1      19.404  49.254  65.220  1.00  0.00     0.027 A
HETATM   18  C17 UNL     1      18.535  48.344  64.612  1.00  0.00     0.142 A
HETATM   19  O1  UNL     1      18.968  48.110  63.409  1.00  0.00    -0.323 OA
ENDBRANCH  14  15
ENDBRANCH  11  12
ENDBRANCH   1  11
BRANCH   1  20
HETATM   20  N1  UNL     1      22.768  46.287  58.301  1.00  0.00    -0.118 N
HETATM   21  O2  UNL     1      23.127  45.172  57.912  1.00  0.00    -0.532 OA
HETATM   22  O3  UNL     1      22.061  47.046  57.398  1.00  0.00    -0.532 OA
ENDBRANCH   1  20
TORSDOF 7
ENDMDL