MODEL 5
REMARK VINA RESULT: -7.369854346      2.581      4.842
REMARK  7 active torsions:
REMARK  status: ('A' for Active; 'I' for Inactive)
REMARK    1  A    between atoms: C2_2  and  C3_3
REMARK    2  A    between atoms: C3_3  and  S1_4
REMARK    3  A    between atoms: S1_4  and  C4_5
REMARK    4  A    between atoms: C4_5  and  C5_6
REMARK    5  A    between atoms: C6_11  and  C7_12
REMARK    6  A    between atoms: C7_12  and  C9_14
REMARK    7  A    between atoms: N3_16  and  C11_17
ROOT
HETATM    1  C5  UNL     1      23.916  45.563  59.596  1.00  0.00     0.113 A
HETATM    2  N1  UNL     1      25.106  44.959  59.287  1.00  0.00    -0.286 N
ATOM      3  H1  UNL     1      25.323  44.494  58.406  1.00  0.00     0.188 HD
HETATM    4  N2  UNL     1      25.902  45.071  60.285  1.00  0.00    -0.287 N
ATOM      5  H2  UNL     1      26.856  44.715  60.341  1.00  0.00     0.188 HD
HETATM    6  C6  UNL     1      25.246  45.744  61.243  1.00  0.00     0.107 A
HETATM    7  N3  UNL     1      23.974  46.074  60.833  1.00  0.00    -0.294 N
ENDROOT
BRANCH   7   8
HETATM    8  C11 UNL     1      23.053  46.820  61.589  1.00  0.00     0.002 C
HETATM    9  C12 UNL     1      22.801  46.426  63.022  1.00  0.00     0.058 C
HETATM   10  C13 UNL     1      21.790  47.472  63.524  1.00  0.00    -0.009 C
HETATM   11  C14 UNL     1      20.846  47.901  62.436  1.00  0.00     0.005 C
HETATM   12  C18 UNL     1      22.666  48.668  63.943  1.00  0.00     0.005 C
HETATM   13  C15 UNL     1      21.546  48.761  61.373  1.00  0.00     0.011 C
HETATM   14  C16 UNL     1      23.031  48.316  61.462  1.00  0.00     0.032 C
HETATM   15  C17 UNL     1      23.471  49.030  62.741  1.00  0.00     0.011 C
ENDBRANCH   7   8
BRANCH   1  16
HETATM   16  C4  UNL     1      22.860  45.615  58.608  1.00  0.00     0.152 C
BRANCH  16  17
HETATM   17  S1  UNL     1      22.611  47.284  57.957  1.00  0.00    -0.158 SA
BRANCH  17  18
HETATM   18  C3  UNL     1      24.110  48.255  57.986  1.00  0.00     0.100 C
BRANCH  18  19
HETATM   19  C2  UNL     1      23.758  49.686  57.646  1.00  0.00    -0.027 C
HETATM   20  C1  UNL     1      22.619  50.227  58.088  1.00  0.00     0.007 C
ENDBRANCH  18  19
ENDBRANCH  17  18
ENDBRANCH  16  17
ENDBRANCH   1  16
BRANCH   6  21
HETATM   21  C7  UNL     1      25.903  46.031  62.545  1.00  0.00     0.051 C
HETATM   22  C8  UNL     1      26.872  44.862  62.822  1.00  0.00     0.018 C
BRANCH  21  23
HETATM   23  C9  UNL     1      26.791  47.260  62.462  1.00  0.00     0.007 C
HETATM   24  C10 UNL     1      26.648  48.186  63.621  1.00  0.00     0.006 C
ENDBRANCH  21  23
ENDBRANCH   6  21
TORSDOF 7
ENDMDL