MODEL 4
REMARK VINA RESULT: -8.898517122      1.353      2.935
REMARK  7 active torsions:
REMARK  status: ('A' for Active; 'I' for Inactive)
REMARK    1  A    between atoms: C3_3  and  C5_5
REMARK    2  A    between atoms: C5_5  and  C6_6
REMARK    3  A    between atoms: C6_6  and  C7_7
REMARK    4  A    between atoms: C7_7  and  C8_8
REMARK    5  A    between atoms: C10_10  and  C11_11
REMARK    6  A    between atoms: C11_11  and  C12_12
REMARK    7  A    between atoms: C12_12  and  C13_13
ROOT
HETATM    1  C11 UNL     1      23.085  46.041  63.019  1.00  0.00     0.033 C
ENDROOT
BRANCH   1   2
HETATM    2  C10 UNL     1      24.036  45.385  62.092  1.00  0.00    -0.024 C
HETATM    3  C8  UNL     1      25.243  45.886  61.806  1.00  0.00    -0.087 C
HETATM    4  C9  UNL     1      25.572  47.184  62.412  1.00  0.00     0.043 C
BRANCH   3   5
HETATM    5  C7  UNL     1      26.116  45.186  60.888  1.00  0.00     0.034 C
BRANCH   5   6
HETATM    6  C6  UNL     1      25.591  45.079  59.497  1.00  0.00     0.009 C
BRANCH   6   7
HETATM    7  C5  UNL     1      25.608  46.308  58.650  1.00  0.00     0.034 C
BRANCH   7   8
HETATM    8  C3  UNL     1      24.161  46.783  58.602  1.00  0.00    -0.088 C
HETATM    9  C2  UNL     1      23.988  48.096  58.577  1.00  0.00    -0.029 C
HETATM   10  C1  UNL     1      22.609  48.675  58.529  1.00  0.00     0.036 C
HETATM   11  C4  UNL     1      23.023  45.858  58.582  1.00  0.00     0.043 C
ENDBRANCH   7   8
ENDBRANCH   6   7
ENDBRANCH   5   6
ENDBRANCH   3   5
ENDBRANCH   1   2
BRANCH   1  12
HETATM   12  C12 UNL     1      21.673  45.866  62.454  1.00  0.00     0.075 C
BRANCH  12  13
HETATM   13  C13 UNL     1      21.004  47.222  62.491  1.00  0.00     0.196 C
HETATM   14  C14 UNL     1      21.968  48.207  63.088  1.00  0.00     0.082 C
HETATM   15  O1  UNL     1      20.623  47.545  61.198  1.00  0.00    -0.200 OA
HETATM   16  O2  UNL     1      20.165  48.751  61.073  1.00  0.00    -0.227 OA
HETATM   17  C15 UNL     1      19.364  49.175  62.102  1.00  0.00     0.217 C
HETATM   18  C16 UNL     1      18.030  49.620  61.494  1.00  0.00     0.066 C
HETATM   19  C18 UNL     1      18.936  48.099  63.046  1.00  0.00     0.295 C
HETATM   20  C17 UNL     1      17.041  48.753  62.247  1.00  0.00     0.174 C
HETATM   21  O3  UNL     1      17.793  47.584  62.432  1.00  0.00    -0.358 OA
HETATM   22  O4  UNL     1      19.884  47.132  63.279  1.00  0.00    -0.320 OA
ENDBRANCH  12  13
ENDBRANCH   1  12
TORSDOF 7
ENDMDL