MODEL 1
REMARK VINA RESULT: -7.449183588      0.000      0.000
REMARK  10 active torsions:
REMARK  status: ('A' for Active; 'I' for Inactive)
REMARK    1  A    between atoms: C2_2  and  C4_4
REMARK    2  A    between atoms: C4_4  and  C5_5
REMARK    3  A    between atoms: C5_5  and  C6_6
REMARK    4  A    between atoms: C6_6  and  C7_7
REMARK    5  A    between atoms: C6_6  and  S1_15
REMARK    6  A    between atoms: C7_7  and  C8_8
REMARK    7  A    between atoms: C8_8  and  O2_10
REMARK    8  A    between atoms: O2_10  and  C9_11
REMARK    9  A    between atoms: S1_15  and  C13_16
REMARK   10  A    between atoms: C13_16  and  C14_18
ROOT
HETATM    1  C6  UNL     1      22.540  47.505  61.455  1.00  0.00     0.064 C
ENDROOT
BRANCH   1   2
HETATM    2  C5  UNL     1      23.119  48.731  62.101  1.00  0.00     0.016 C
BRANCH   2   3
HETATM    3  C4  UNL     1      23.698  48.466  63.463  1.00  0.00     0.005 C
BRANCH   3   4
HETATM    4  C2  UNL     1      25.013  49.199  63.633  1.00  0.00    -0.023 C
HETATM    5  C1  UNL     1      25.095  49.873  64.983  1.00  0.00     0.009 C
HETATM    6  C3  UNL     1      26.197  48.257  63.528  1.00  0.00     0.009 C
ENDBRANCH   3   4
ENDBRANCH   2   3
ENDBRANCH   1   2
BRANCH   1   7
HETATM    7  C7  UNL     1      21.036  47.479  61.495  1.00  0.00     0.126 C
BRANCH   7   8
HETATM    8  C8  UNL     1      20.604  46.787  62.737  1.00  0.00     0.260 C
HETATM    9  O1  UNL     1      20.468  45.542  62.705  1.00  0.00    -0.265 OA
BRANCH   8  10
HETATM   10  O2  UNL     1      20.340  47.425  63.930  1.00  0.00    -0.311 OA
BRANCH  10  11
HETATM   11  C9  UNL     1      19.435  48.477  64.103  1.00  0.00     0.060 C
HETATM   12  C10 UNL     1      20.100  49.837  63.917  1.00  0.00     0.045 C
HETATM   13  C11 UNL     1      18.242  48.426  63.205  1.00  0.00     0.045 C
HETATM   14  C12 UNL     1      18.966  48.438  65.544  1.00  0.00     0.045 C
ENDBRANCH  10  11
ENDBRANCH   8  10
ENDBRANCH   7   8
ENDBRANCH   1   7
BRANCH   1  15
HETATM   15  S1  UNL     1      23.157  47.442  59.745  1.00  0.00    -0.086 SA
BRANCH  15  16
HETATM   16  C13 UNL     1      24.046  45.928  59.471  1.00  0.00     0.194 C
HETATM   17  O3  UNL     1      23.652  45.036  58.716  1.00  0.00    -0.285 OA
BRANCH  16  18
HETATM   18  C14 UNL     1      25.330  45.709  60.182  1.00  0.00     0.020 C
HETATM   19  C15 UNL     1      26.215  44.717  59.472  1.00  0.00     0.023 C
HETATM   20  C16 UNL     1      26.109  47.020  60.237  1.00  0.00     0.023 C
HETATM   21  C17 UNL     1      25.137  45.250  61.605  1.00  0.00     0.023 C
ENDBRANCH  16  18
ENDBRANCH  15  16
ENDBRANCH   1  15
TORSDOF 10
ENDMDL