MODEL 1
REMARK VINA RESULT: -8.187953265      0.000      0.000
REMARK  6 active torsions:
REMARK  status: ('A' for Active; 'I' for Inactive)
REMARK    1  A    between atoms: C2_2  and  C3_3
REMARK    2  A    between atoms: C3_3  and  O1_4
REMARK    3  A    between atoms: C3_3  and  C14_18
REMARK    4  A    between atoms: O1_4  and  O2_5
REMARK    5  A    between atoms: O2_5  and  C4_6
REMARK    6  A    between atoms: C4_6  and  C5_7
ROOT
HETATM    1  C5  UNL     1      22.239  46.467  61.772  1.00  0.00     0.012 C
HETATM    2  C6  UNL     1      22.835  45.392  60.922  1.00  0.00     0.009 C
HETATM    3  C7  UNL     1      23.311  45.986  59.622  1.00  0.00     0.032 C
HETATM    4  C8  UNL     1      24.008  47.318  59.830  1.00  0.00     0.056 C
HETATM    5  C9  UNL     1      23.068  48.336  60.454  1.00  0.00     0.032 C
HETATM    6  C10 UNL     1      21.797  47.671  60.972  1.00  0.00     0.009 C
HETATM    7  S1  UNL     1      25.424  47.044  60.903  1.00  0.00    -0.148 SA
HETATM    8  C11 UNL     1      26.982  47.063  59.979  1.00  0.00     0.076 C
HETATM    9  C12 UNL     1      26.833  46.448  58.624  1.00  0.00     0.020 C
HETATM   10  C13 UNL     1      26.074  47.279  57.652  1.00  0.00     0.076 C
HETATM   11  S2  UNL     1      24.551  47.961  58.249  1.00  0.00    -0.148 SA
ENDROOT
BRANCH   1  12
HETATM   12  C4  UNL     1      21.097  45.907  62.568  1.00  0.00     0.214 C
BRANCH  12  13
HETATM   13  O2  UNL     1      19.962  46.668  62.372  1.00  0.00    -0.240 OA
BRANCH  13  14
HETATM   14  O1  UNL     1      19.694  47.250  63.541  1.00  0.00    -0.235 OA
BRANCH  14  15
HETATM   15  C3  UNL     1      18.975  48.422  63.377  1.00  0.00     0.164 C
BRANCH  15  16
HETATM   16  C2  UNL     1      19.794  49.611  63.885  1.00  0.00     0.031 C
HETATM   17  C1  UNL     1      21.209  49.222  64.160  1.00  0.00     0.007 C
ENDBRANCH  15  16
BRANCH  15  18
HETATM   18  C14 UNL     1      18.575  48.658  61.948  1.00  0.00     0.018 A
HETATM   19  C15 UNL     1      17.136  48.464  61.617  1.00  0.00     0.007 A
HETATM   20  C16 UNL     1      17.779  49.820  61.536  1.00  0.00     0.007 A
ENDBRANCH  15  18
ENDBRANCH  14  15
ENDBRANCH  13  14
ENDBRANCH  12  13
ENDBRANCH   1  12
TORSDOF 6
ENDMDL