MODEL 5
REMARK VINA RESULT: -6.108765139      2.166      3.114
REMARK  20 active torsions:
REMARK  status: ('A' for Active; 'I' for Inactive)
REMARK    1  A    between atoms: C2_2  and  C4_4
REMARK    2  A    between atoms: C6_7  and  O1_8
REMARK    3  A    between atoms: C6_7  and  C7_10
REMARK    4  A    between atoms: C7_10  and  O2_11
REMARK    5  A    between atoms: C8_13  and  O3_14
REMARK    6  A    between atoms: C10_17  and  O4_18
REMARK    7  A    between atoms: C14_23  and  C15_24
REMARK    8  A    between atoms: C15_24  and  C16_25
REMARK    9  A    between atoms: C16_25  and  O5_26
REMARK   10  A    between atoms: C18_29  and  N2_30
REMARK   11  A    between atoms: N2_30  and  C19_32
REMARK   12  A    between atoms: C19_32  and  C20_33
REMARK   13  A    between atoms: C20_33  and  C21_34
REMARK   14  A    between atoms: C21_34  and  N3_35
REMARK   15  A    between atoms: N3_35  and  C22_38
REMARK   16  A    between atoms: C22_38  and  C23_39
REMARK   17  A    between atoms: C23_39  and  O6_40
REMARK   18  A    between atoms: C23_39  and  C24_42
REMARK   19  A    between atoms: C24_42  and  O7_43
REMARK   20  A    between atoms: C25_45  and  O8_46
ROOT
HETATM    1  C4  UNL     1       2.527  55.955 -46.969  1.00  0.00     0.098 C
HETATM    2  C5  UNL     1       1.594  56.534 -45.909  1.00  0.00     0.073 C
HETATM    3  N1  UNL     1       0.896  56.996 -45.063  1.00  0.00    -0.196 NA
HETATM    4  C6  UNL     1       3.806  55.817 -46.247  1.00  0.00     0.126 C
HETATM    5  C8  UNL     1       4.246  54.430 -45.842  1.00  0.00     0.159 C
HETATM    6  C9  UNL     1       3.071  53.656 -45.441  1.00  0.00     0.073 C
HETATM    7  C10 UNL     1       1.937  53.580 -46.375  1.00  0.00     0.070 C
HETATM    8  C11 UNL     1       2.138  52.305 -47.226  1.00  0.00     0.044 C
HETATM    9  C12 UNL     1       1.263  52.687 -48.346  1.00  0.00    -0.006 C
HETATM   10  C13 UNL     1       0.899  51.821 -49.401  1.00  0.00     0.015 C
HETATM   11  C14 UNL     1       1.526  51.494 -50.677  1.00  0.00    -0.032 C
HETATM   12  C17 UNL     1       2.594  50.428 -50.600  1.00  0.00     0.037 C
HETATM   13  C18 UNL     1       3.333  50.127 -51.837  1.00  0.00     0.106 C
HETATM   14  C25 UNL     1       3.348  51.104 -52.950  1.00  0.00     0.148 C
HETATM   15  C26 UNL     1       2.522  52.319 -52.886  1.00  0.00    -0.015 C
HETATM   16  C27 UNL     1       1.527  52.547 -53.987  1.00  0.00     0.018 C
HETATM   17  C28 UNL     1       3.525  53.456 -53.298  1.00  0.00     0.018 C
HETATM   18  C29 UNL     1       1.982  52.684 -51.499  1.00  0.00     0.004 C
HETATM   19  C30 UNL     1       2.823  53.692 -50.884  1.00  0.00     0.007 C
HETATM   20  C31 UNL     1       3.012  53.786 -49.401  1.00  0.00     0.006 C
HETATM   21  C32 UNL     1       1.831  54.087 -48.654  1.00  0.00     0.003 C
HETATM   22  C33 UNL     1       1.723  54.723 -47.342  1.00  0.00     0.015 C
HETATM   23  C34 UNL     1       0.217  55.024 -47.271  1.00  0.00     0.020 C
ENDROOT
BRANCH   1  24
HETATM   24  C2  UNL     1       2.547  57.031 -47.980  1.00  0.00     0.004 C
HETATM   25  C1  UNL     1       1.540  57.133 -49.044  1.00  0.00     0.011 C
HETATM   26  C3  UNL     1       2.436  58.403 -47.264  1.00  0.00     0.011 C
ENDBRANCH   1  24
BRANCH   4  27
HETATM   27  O1  UNL     1       3.664  56.402 -44.920  1.00  0.00    -0.383 OA
ATOM     28  H1  UNL     1       4.517  56.432 -44.504  1.00  0.00     0.210 HD
ENDBRANCH   4  27
BRANCH   4  29
HETATM   29  C7  UNL     1       5.045  56.513 -46.659  1.00  0.00     0.206 C
BRANCH  29  30
HETATM   30  O2  UNL     1       6.122  56.527 -45.818  1.00  0.00    -0.398 OA
ATOM     31  H2  UNL     1       6.847  57.117 -45.993  1.00  0.00     0.209 HD
ENDBRANCH  29  30
ENDBRANCH   4  29
BRANCH   5  32
HETATM   32  O3  UNL     1       5.192  53.837 -46.633  1.00  0.00    -0.392 OA
ATOM     33  H3  UNL     1       6.090  53.890 -46.327  1.00  0.00     0.210 HD
ENDBRANCH   5  32
BRANCH   7  34
HETATM   34  O4  UNL     1       0.835  53.270 -45.577  1.00  0.00    -0.389 OA
ATOM     35  H4  UNL     1       0.079  53.446 -46.125  1.00  0.00     0.210 HD
ENDBRANCH   7  34
BRANCH  11  36
HETATM   36  C15 UNL     1       0.410  50.837 -51.479  1.00  0.00     0.036 C
BRANCH  36  37
HETATM   37  C16 UNL     1      -0.929  51.440 -51.513  1.00  0.00     0.165 C
BRANCH  37  38
HETATM   38  O5  UNL     1      -2.033  50.604 -51.531  1.00  0.00    -0.401 OA
ATOM     39  H5  UNL     1      -2.518  50.475 -50.725  1.00  0.00     0.209 HD
ENDBRANCH  37  38
ENDBRANCH  36  37
ENDBRANCH  11  36
BRANCH  13  40
HETATM   40  N2  UNL     1       3.079  48.781 -52.323  1.00  0.00    -0.414 N
ATOM     41  H2  UNL     1       2.191  48.536 -52.762  1.00  0.00     0.153 HD
BRANCH  40  42
HETATM   42  C19 UNL     1       4.103  47.830 -52.163  1.00  0.00     0.116 C
BRANCH  42  43
HETATM   43  C20 UNL     1       3.567  46.804 -51.151  1.00  0.00     0.046 C
BRANCH  43  44
HETATM   44  C21 UNL     1       2.111  46.545 -51.339  1.00  0.00     0.234 C
BRANCH  44  45
HETATM   45  N3  UNL     1       1.597  45.789 -50.244  1.00  0.00    -0.073 N
ATOM     46  H32 UNL     1       0.618  46.015 -50.067  1.00  0.00     0.277 HD
ATOM     47  H31 UNL     1       1.495  44.805 -50.491  1.00  0.00     0.277 HD
BRANCH  45  48
HETATM   48  C22 UNL     1       2.391  45.946 -49.049  1.00  0.00     0.265 C
BRANCH  48  49
HETATM   49  C23 UNL     1       1.854  45.057 -47.945  1.00  0.00     0.167 C
BRANCH  49  50
HETATM   50  O6  UNL     1       0.656  45.673 -47.517  1.00  0.00    -0.392 OA
ATOM     51  H6  UNL     1       0.385  45.187 -46.748  1.00  0.00     0.210 HD
ENDBRANCH  49  50
BRANCH  49  52
HETATM   52  C24 UNL     1       1.455  43.699 -48.478  1.00  0.00     0.197 C
BRANCH  52  53
HETATM   53  O7  UNL     1       0.102  43.728 -48.791  1.00  0.00    -0.398 OA
ATOM     54  H7  UNL     1       0.009  43.955 -49.709  1.00  0.00     0.209 HD
ENDBRANCH  52  53
ENDBRANCH  49  52
ENDBRANCH  48  49
ENDBRANCH  45  48
ENDBRANCH  44  45
ENDBRANCH  43  44
ENDBRANCH  42  43
ENDBRANCH  40  42
ENDBRANCH  13  40
BRANCH  14  55
HETATM   55  O8  UNL     1       3.081  50.455 -54.187  1.00  0.00    -0.393 OA
ATOM     56  H8  UNL     1       2.204  50.660 -54.489  1.00  0.00     0.210 HD
ENDBRANCH  14  55
TORSDOF 20
ENDMDL