MODEL 1
REMARK VINA RESULT: -5.527429183      0.000      0.000
REMARK  22 active torsions:
REMARK  status: ('A' for Active; 'I' for Inactive)
REMARK    1  A    between atoms: C3_3  and  O1_4
REMARK    2  A    between atoms: C4_6  and  O2_7
REMARK    3  A    between atoms: C5_9  and  C6_10
REMARK    4  A    between atoms: C6_10  and  O3_11
REMARK    5  A    between atoms: C7_13  and  O4_14
REMARK    6  A    between atoms: C10_18  and  C11_19
REMARK    7  A    between atoms: C10_18  and  C12_22
REMARK    8  A    between atoms: C11_19  and  O5_20
REMARK    9  A    between atoms: C12_22  and  C13_23
REMARK   10  A    between atoms: C17_27  and  O6_28
REMARK   11  A    between atoms: C19_31  and  O7_32
REMARK   12  A    between atoms: C20_34  and  O8_35
REMARK   13  A    between atoms: C21_37  and  C22_38
REMARK   14  A    between atoms: C22_38  and  C24_40
REMARK   15  A    between atoms: C24_40  and  C25_41
REMARK   16  A    between atoms: C25_41  and  C26_42
REMARK   17  A    between atoms: C26_42  and  C28_44
REMARK   18  A    between atoms: C28_44  and  O9_45
REMARK   19  A    between atoms: C28_44  and  C29_47
REMARK   20  A    between atoms: C29_47  and  C30_48
REMARK   21  A    between atoms: C30_48  and  C31_49
REMARK   22  A    between atoms: C31_49  and  C32_50
ROOT
HETATM    1  C1  UNL     1       1.622  53.476 -45.005  1.00  0.00     0.022 C
HETATM    2  C2  UNL     1       1.722  54.697 -45.572  1.00  0.00    -0.027 C
HETATM    3  C3  UNL     1       1.432  55.806 -44.722  1.00  0.00     0.180 C
HETATM    4  C4  UNL     1       1.628  57.082 -45.370  1.00  0.00     0.167 C
HETATM    5  C5  UNL     1       2.029  57.238 -46.777  1.00  0.00     0.071 C
HETATM    6  C7  UNL     1       2.794  58.529 -46.812  1.00  0.00     0.135 C
HETATM    7  C8  UNL     1       4.232  58.482 -46.598  1.00  0.00     0.034 C
HETATM    8  C9  UNL     1       4.625  57.621 -47.742  1.00  0.00     0.017 C
HETATM    9  C10 UNL     1       4.194  56.131 -47.565  1.00  0.00     0.018 C
HETATM   10  C20 UNL     1       2.699  56.040 -47.480  1.00  0.00     0.110 C
HETATM   11  C21 UNL     1       2.127  54.736 -47.049  1.00  0.00    -0.012 C
ENDROOT
BRANCH   9  12
HETATM   12  C11 UNL     1       4.883  55.852 -46.176  1.00  0.00     0.177 C
BRANCH  12  13
HETATM   13  O5  UNL     1       5.740  54.786 -46.188  1.00  0.00    -0.400 OA
ATOM     14  H5  UNL     1       6.126  54.594 -45.342  1.00  0.00     0.209 HD
ENDBRANCH  12  13
ENDBRANCH   9  12
BRANCH   9  15
HETATM   15  C12 UNL     1       5.170  55.555 -48.475  1.00  0.00     0.022 C
BRANCH  15  16
HETATM   16  C13 UNL     1       5.063  54.515 -49.504  1.00  0.00     0.019 C
HETATM   17  C14 UNL     1       5.608  54.906 -50.870  1.00  0.00    -0.010 C
HETATM   18  C15 UNL     1       5.075  56.153 -51.488  1.00  0.00     0.010 C
HETATM   19  C16 UNL     1       7.047  54.804 -51.136  1.00  0.00     0.036 C
HETATM   20  C17 UNL     1       7.358  53.333 -51.331  1.00  0.00     0.120 C
HETATM   21  C18 UNL     1       6.364  52.545 -50.499  1.00  0.00     0.063 C
HETATM   22  C19 UNL     1       6.015  53.330 -49.237  1.00  0.00     0.125 C
BRANCH  20  23
HETATM   23  O6  UNL     1       8.657  53.057 -50.980  1.00  0.00    -0.395 OA
ATOM     24  H6  UNL     1       9.196  52.928 -51.751  1.00  0.00     0.210 HD
ENDBRANCH  20  23
BRANCH  22  25
HETATM   25  O7  UNL     1       7.275  53.840 -48.866  1.00  0.00    -0.395 OA
ATOM     26  H7  UNL     1       7.743  53.170 -48.381  1.00  0.00     0.210 HD
ENDBRANCH  22  25
ENDBRANCH  15  16
ENDBRANCH   9  15
BRANCH  10  27
HETATM   27  O8  UNL     1       2.331  56.348 -48.799  1.00  0.00    -0.383 OA
ATOM     28  H8  UNL     1       1.393  56.419 -48.666  1.00  0.00     0.211 HD
ENDBRANCH  10  27
BRANCH   5  29
HETATM   29  C6  UNL     1       0.770  57.763 -47.485  1.00  0.00     0.182 C
BRANCH  29  30
HETATM   30  O3  UNL     1       0.938  58.740 -48.404  1.00  0.00    -0.400 OA
ATOM     31  H3  UNL     1       0.749  58.522 -49.309  1.00  0.00     0.209 HD
ENDBRANCH  29  30
ENDBRANCH   5  29
BRANCH  11  32
HETATM   32  C22 UNL     1       1.054  53.931 -47.652  1.00  0.00    -0.074 C
HETATM   33  C23 UNL     1      -0.298  54.550 -47.805  1.00  0.00     0.044 C
BRANCH  32  34
HETATM   34  C24 UNL     1       1.281  53.022 -48.786  1.00  0.00     0.035 C
BRANCH  34  35
HETATM   35  C25 UNL     1       2.492  52.167 -48.832  1.00  0.00     0.011 C
BRANCH  35  36
HETATM   36  C26 UNL     1       2.803  51.244 -47.738  1.00  0.00     0.011 C
HETATM   37  C27 UNL     1       1.820  50.423 -47.034  1.00  0.00     0.012 C
BRANCH  36  38
HETATM   38  C28 UNL     1       3.970  50.342 -48.168  1.00  0.00     0.132 C
BRANCH  38  39
HETATM   39  O9  UNL     1       4.037  49.243 -47.324  1.00  0.00    -0.394 OA
ATOM     40  H9  UNL     1       4.944  48.981 -47.220  1.00  0.00     0.210 HD
ENDBRANCH  38  39
BRANCH  38  41
HETATM   41  C29 UNL     1       3.801  49.823 -49.563  1.00  0.00     0.116 C
BRANCH  41  42
HETATM   42  C30 UNL     1       3.228  48.685 -49.832  1.00  0.00    -0.150 C
BRANCH  42  43
HETATM   43  C31 UNL     1       2.622  47.480 -50.115  1.00  0.00     0.089 C
BRANCH  43  44
HETATM   44  C32 UNL     1       2.416  46.533 -48.981  1.00  0.00     0.120 C
HETATM   45  N1  UNL     1       2.066  46.959 -47.685  1.00  0.00    -0.089 NA
HETATM   46  S1  UNL     1       2.606  44.928 -49.315  1.00  0.00    -0.063 SA
ENDBRANCH  43  44
ENDBRANCH  42  43
ENDBRANCH  41  42
ENDBRANCH  38  41
ENDBRANCH  36  38
ENDBRANCH  35  36
ENDBRANCH  34  35
ENDBRANCH  32  34
ENDBRANCH  11  32
BRANCH   6  47
HETATM   47  O4  UNL     1       2.217  59.503 -46.024  1.00  0.00    -0.395 OA
ATOM     48  H4  UNL     1       2.754  59.728 -45.274  1.00  0.00     0.210 HD
ENDBRANCH   6  47
BRANCH   4  49
HETATM   49  O2  UNL     1       2.346  57.914 -44.454  1.00  0.00    -0.392 OA
ATOM     50  H2  UNL     1       2.138  58.815 -44.672  1.00  0.00     0.210 HD
ENDBRANCH   4  49
BRANCH   3  51
HETATM   51  O1  UNL     1       0.212  55.676 -43.992  1.00  0.00    -0.388 OA
ATOM     52  H1  UNL     1       0.149  56.252 -43.238  1.00  0.00     0.210 HD
ENDBRANCH   3  51
TORSDOF 22
ENDMDL