MODEL 5
REMARK VINA RESULT: -6.260672476      0.976      1.449
REMARK  20 active torsions:
REMARK  status: ('A' for Active; 'I' for Inactive)
REMARK    1  A    between atoms: C2_2  and  C3_3
REMARK    2  A    between atoms: C3_3  and  O1_5
REMARK    3  A    between atoms: C3_3  and  C5_7
REMARK    4  A    between atoms: C5_7  and  C7_9
REMARK    5  A    between atoms: C7_9  and  C8_10
REMARK    6  A    between atoms: C8_10  and  C9_11
REMARK    7  A    between atoms: C9_11  and  C11_13
REMARK    8  A    between atoms: C13_15  and  O2_16
REMARK    9  A    between atoms: C24_28  and  O3_29
REMARK   10  A    between atoms: C27_33  and  C28_34
REMARK   11  A    between atoms: C28_34  and  O4_35
REMARK   12  A    between atoms: C28_34  and  C29_37
REMARK   13  A    between atoms: C29_37  and  O5_38
REMARK   14  A    between atoms: C29_37  and  N1_40
REMARK   15  A    between atoms: N1_40  and  C30_42
REMARK   16  A    between atoms: C30_42  and  O6_43
REMARK   17  A    between atoms: C30_42  and  C31_45
REMARK   18  A    between atoms: C32_48  and  O9_49
REMARK   19  A    between atoms: C33_51  and  C34_52
REMARK   20  A    between atoms: C34_52  and  O10_53
ROOT
HETATM    1  C11 UNL     1       2.488  52.844 -52.828  1.00  0.00     0.001 C
HETATM    2  C12 UNL     1       3.142  51.582 -52.443  1.00  0.00     0.038 C
HETATM    3  C13 UNL     1       3.900  51.463 -51.189  1.00  0.00     0.128 C
HETATM    4  C14 UNL     1       4.343  52.633 -50.409  1.00  0.00     0.005 C
HETATM    5  C15 UNL     1       5.877  52.529 -50.538  1.00  0.00     0.020 C
HETATM    6  C16 UNL     1       3.892  53.894 -51.055  1.00  0.00    -0.021 C
HETATM    7  C17 UNL     1       4.886  54.246 -52.148  1.00  0.00     0.017 C
HETATM    8  C18 UNL     1       3.581  55.036 -50.173  1.00  0.00     0.008 A
HETATM    9  C19 UNL     1       2.448  55.668 -49.514  1.00  0.00     0.019 A
HETATM   10  C20 UNL     1       2.576  54.282 -49.480  1.00  0.00    -0.003 A
HETATM   11  C21 UNL     1       1.701  53.592 -50.551  1.00  0.00     0.023 C
HETATM   12  C22 UNL     1       2.544  53.835 -51.770  1.00  0.00    -0.031 C
HETATM   13  C23 UNL     1       2.333  55.213 -52.376  1.00  0.00     0.016 C
HETATM   14  C24 UNL     1       3.076  53.433 -48.352  1.00  0.00     0.079 C
HETATM   15  C25 UNL     1       1.930  52.863 -47.634  1.00  0.00     0.040 C
HETATM   16  C26 UNL     1       2.196  51.558 -46.911  1.00  0.00     0.013 C
HETATM   17  C27 UNL     1       2.759  50.635 -47.918  1.00  0.00     0.048 C
HETATM   18  C32 UNL     1       4.080  51.120 -48.394  1.00  0.00     0.139 C
HETATM   19  C33 UNL     1       4.157  52.549 -48.878  1.00  0.00     0.049 C
ENDROOT
BRANCH  17  20
HETATM   20  C28 UNL     1       2.893  49.197 -47.524  1.00  0.00     0.173 C
BRANCH  20  21
HETATM   21  O4  UNL     1       2.389  48.851 -46.300  1.00  0.00    -0.391 OA
ATOM     22  H4  UNL     1       3.004  48.843 -45.576  1.00  0.00     0.210 HD
ENDBRANCH  20  21
BRANCH  20  23
HETATM   23  C29 UNL     1       2.420  48.201 -48.560  1.00  0.00     0.245 C
BRANCH  23  24
HETATM   24  O5  UNL     1       3.442  48.041 -49.487  1.00  0.00    -0.374 OA
ATOM     25  H5  UNL     1       4.231  47.815 -49.008  1.00  0.00     0.212 HD
ENDBRANCH  23  24
BRANCH  23  26
HETATM   26  N1  UNL     1       1.916  46.992 -48.114  1.00  0.00    -0.361 N
ATOM     27  H1  UNL     1       1.301  47.018 -47.301  1.00  0.00     0.158 HD
BRANCH  26  28
HETATM   28  C30 UNL     1       2.170  45.747 -48.672  1.00  0.00     0.319 C
BRANCH  28  29
HETATM   29  O6  UNL     1       3.413  45.275 -48.134  1.00  0.00    -0.367 OA
ATOM     30  H6  UNL     1       3.314  45.212 -47.192  1.00  0.00     0.212 HD
ENDBRANCH  28  29
BRANCH  28  31
HETATM   31  C31 UNL     1       1.216  44.650 -48.421  1.00  0.00     0.223 C
HETATM   32  O7  UNL     1       0.297  44.306 -49.208  1.00  0.00    -0.645 OA
HETATM   33  O8  UNL     1       1.264  43.882 -47.244  1.00  0.00    -0.645 OA
ENDBRANCH  28  31
ENDBRANCH  26  28
ENDBRANCH  23  26
ENDBRANCH  20  23
ENDBRANCH  17  20
BRANCH  18  34
HETATM   34  O9  UNL     1       4.975  50.819 -47.327  1.00  0.00    -0.394 OA
ATOM     35  H9  UNL     1       5.520  50.119 -47.664  1.00  0.00     0.210 HD
ENDBRANCH  18  34
BRANCH  19  36
HETATM   36  C34 UNL     1       5.406  53.024 -48.113  1.00  0.00     0.180 C
BRANCH  36  37
HETATM   37  O10 UNL     1       5.457  53.010 -46.789  1.00  0.00    -0.400 OA
ATOM     38  H10 UNL     1       6.231  53.292 -46.316  1.00  0.00     0.209 HD
ENDBRANCH  36  37
ENDBRANCH  19  36
BRANCH  14  39
HETATM   39  O3  UNL     1       3.574  54.438 -47.459  1.00  0.00    -0.388 OA
ATOM     40  H3  UNL     1       3.038  55.181 -47.708  1.00  0.00     0.210 HD
ENDBRANCH  14  39
BRANCH   3  41
HETATM   41  O2  UNL     1       4.967  50.548 -51.497  1.00  0.00    -0.395 OA
ATOM     42  H2  UNL     1       5.760  51.056 -51.373  1.00  0.00     0.210 HD
ENDBRANCH   3  41
BRANCH   1  43
HETATM   43  C9  UNL     1       1.213  52.488 -53.491  1.00  0.00    -0.014 C
HETATM   44  C10 UNL     1       1.133  52.514 -54.956  1.00  0.00     0.010 C
BRANCH  43  45
HETATM   45  C8  UNL     1       0.819  51.107 -53.008  1.00  0.00     0.005 C
BRANCH  45  46
HETATM   46  C7  UNL     1      -0.404  51.056 -52.163  1.00  0.00     0.007 C
BRANCH  46  47
HETATM   47  C5  UNL     1      -1.649  51.511 -52.885  1.00  0.00     0.015 C
HETATM   48  C6  UNL     1      -2.451  52.538 -52.131  1.00  0.00     0.013 C
BRANCH  47  49
HETATM   49  C3  UNL     1      -2.521  50.435 -53.410  1.00  0.00     0.057 C
HETATM   50  C4  UNL     1      -1.995  49.635 -54.546  1.00  0.00     0.046 C
BRANCH  49  51
HETATM   51  C2  UNL     1      -3.886  51.000 -53.767  1.00  0.00     0.033 C
HETATM   52  C1  UNL     1      -4.780  50.022 -54.447  1.00  0.00     0.008 C
ENDBRANCH  49  51
BRANCH  49  53
HETATM   53  O1  UNL     1      -2.777  49.536 -52.353  1.00  0.00    -0.390 OA
ATOM     54  H1  UNL     1      -3.540  49.895 -51.915  1.00  0.00     0.210 HD
ENDBRANCH  49  53
ENDBRANCH  47  49
ENDBRANCH  46  47
ENDBRANCH  45  46
ENDBRANCH  43  45
ENDBRANCH   1  43
TORSDOF 20
ENDMDL