MODEL 3
REMARK VINA RESULT: -6.937351599      3.179      9.186
REMARK  19 active torsions:
REMARK  status: ('A' for Active; 'I' for Inactive)
REMARK    1  A    between atoms: C2_2  and  N1_3
REMARK    2  A    between atoms: C2_2  and  C11_23
REMARK    3  A    between atoms: N1_3  and  C3_5
REMARK    4  A    between atoms: C3_5  and  O1_6
REMARK    5  A    between atoms: C3_5  and  C4_8
REMARK    6  A    between atoms: C5_11  and  C6_12
REMARK    7  A    between atoms: C6_12  and  C7_13
REMARK    8  A    between atoms: C8_16  and  O4_17
REMARK    9  A    between atoms: C10_20  and  O5_21
REMARK       I    between atoms: C11_23  and  N3_25
REMARK   10  A    between atoms: N3_25  and  C12_27
REMARK   11  A    between atoms: C12_27  and  O7_28
REMARK   12  A    between atoms: C12_27  and  C13_30
REMARK   13  A    between atoms: C13_30  and  N4_31
REMARK   14  A    between atoms: C13_30  and  C19_40
REMARK       I    between atoms: N4_31  and  C14_33
REMARK   15  A    between atoms: C14_33  and  O9_35
REMARK   16  A    between atoms: O9_35  and  C15_36
REMARK   17  A    between atoms: C19_40  and  C22_43
REMARK   18  A    between atoms: C23_44  and  C24_45
REMARK   19  A    between atoms: C31_52  and  O10_53
ROOT
HETATM    1  C12 UNL     1       2.485  47.821 -50.589  1.00  0.00     0.142 C
ENDROOT
BRANCH   1   2
HETATM    2  N3  UNL     1       1.784  46.645 -50.775  1.00  0.00    -0.308 N
HETATM    3  C11 UNL     1       1.684  45.769 -51.846  1.00  0.00     0.245 C
HETATM    4  O6  UNL     1       1.051  44.669 -51.674  1.00  0.00    -0.271 OA
ATOM      5  H3  UNL     1       1.231  46.366 -49.965  1.00  0.00     0.170 HD
BRANCH   3   6
HETATM    6  C2  UNL     1       2.251  45.994 -53.221  1.00  0.00     0.167 C
HETATM    7  C1  UNL     1       1.122  45.868 -54.226  1.00  0.00     0.042 C
BRANCH   6   8
HETATM    8  N1  UNL     1       3.317  45.153 -53.473  1.00  0.00    -0.383 N
ATOM      9  H1  UNL     1       3.057  44.384 -54.091  1.00  0.00     0.156 HD
BRANCH   8  10
HETATM   10  C3  UNL     1       4.605  45.090 -53.111  1.00  0.00     0.239 C
BRANCH  10  11
HETATM   11  O1  UNL     1       5.052  46.489 -52.811  1.00  0.00    -0.375 OA
ATOM     12  H1  UNL     1       5.097  46.954 -53.639  1.00  0.00     0.212 HD
ENDBRANCH  10  11
BRANCH  10  13
HETATM   13  C4  UNL     1       5.097  44.364 -51.925  1.00  0.00     0.154 C
HETATM   14  N2  UNL     1       5.069  45.014 -50.698  1.00  0.00    -0.404 N
HETATM   15  C5  UNL     1       5.456  44.244 -49.544  1.00  0.00     0.116 C
ATOM     16  H2  UNL     1       4.788  45.992 -50.618  1.00  0.00     0.154 HD
HETATM   17  C8  UNL     1       6.727  43.541 -49.802  1.00  0.00     0.143 C
HETATM   18  C9  UNL     1       7.404  43.848 -51.122  1.00  0.00     0.067 C
HETATM   19  C10 UNL     1       6.459  43.751 -52.278  1.00  0.00     0.147 C
BRANCH  15  20
HETATM   20  C6  UNL     1       4.323  43.363 -49.051  1.00  0.00     0.140 C
BRANCH  20  21
HETATM   21  C7  UNL     1       3.228  44.111 -48.434  1.00  0.00     0.174 C
HETATM   22  O2  UNL     1       2.200  43.470 -48.105  1.00  0.00    -0.648 OA
HETATM   23  O3  UNL     1       3.234  45.468 -48.185  1.00  0.00    -0.648 OA
ENDBRANCH  20  21
ENDBRANCH  15  20
BRANCH  17  24
HETATM   24  O4  UNL     1       7.666  43.827 -48.825  1.00  0.00    -0.393 OA
ATOM     25  H4  UNL     1       8.539  43.576 -49.103  1.00  0.00     0.210 HD
ENDBRANCH  17  24
BRANCH  19  26
HETATM   26  O5  UNL     1       6.998  44.431 -53.362  1.00  0.00    -0.393 OA
ATOM     27  H5  UNL     1       7.713  43.921 -53.726  1.00  0.00     0.210 HD
ENDBRANCH  19  26
ENDBRANCH  10  13
ENDBRANCH   8  10
ENDBRANCH   6   8
ENDBRANCH   3   6
ENDBRANCH   1   2
BRANCH   1  28
HETATM   28  O7  UNL     1       3.762  47.687 -50.324  1.00  0.00    -0.348 OA
ATOM     29  H7  UNL     1       3.972  47.173 -49.553  1.00  0.00     0.219 HD
ENDBRANCH   1  28
BRANCH   1  30
HETATM   30  C13 UNL     1       2.028  49.228 -50.654  1.00  0.00     0.173 C
BRANCH  30  31
HETATM   31  N4  UNL     1       2.799  49.947 -49.666  1.00  0.00    -0.324 N
HETATM   32  C14 UNL     1       2.426  50.591 -48.507  1.00  0.00     0.362 C
HETATM   33  O8  UNL     1       1.263  50.702 -48.096  1.00  0.00    -0.238 OA
ATOM     34  H4  UNL     1       3.799  49.984 -49.861  1.00  0.00     0.165 HD
BRANCH  32  35
HETATM   35  O9  UNL     1       3.414  51.187 -47.692  1.00  0.00    -0.294 OA
BRANCH  35  36
HETATM   36  C15 UNL     1       3.608  52.577 -47.784  1.00  0.00     0.061 C
HETATM   37  C16 UNL     1       2.937  53.242 -46.602  1.00  0.00     0.046 C
HETATM   38  C17 UNL     1       3.190  53.197 -49.063  1.00  0.00     0.046 C
HETATM   39  C18 UNL     1       5.121  52.865 -47.546  1.00  0.00     0.046 C
ENDBRANCH  35  36
ENDBRANCH  32  35
ENDBRANCH  30  31
BRANCH  30  40
HETATM   40  C19 UNL     1       1.969  49.829 -52.009  1.00  0.00    -0.002 C
HETATM   41  C20 UNL     1       2.927  49.285 -53.012  1.00  0.00     0.021 C
HETATM   42  C21 UNL     1       2.090  51.356 -51.994  1.00  0.00     0.021 C
BRANCH  40  43
HETATM   43  C22 UNL     1       0.561  49.622 -52.554  1.00  0.00    -0.019 C
HETATM   44  C23 UNL     1      -0.030  50.554 -53.257  1.00  0.00    -0.023 C
BRANCH  44  45
HETATM   45  C24 UNL     1      -1.377  50.447 -53.833  1.00  0.00     0.036 C
HETATM   46  C25 UNL     1      -1.393  49.369 -54.885  1.00  0.00     0.011 C
HETATM   47  C26 UNL     1      -2.105  49.875 -56.148  1.00  0.00     0.001 C
HETATM   48  C27 UNL     1      -3.341  49.083 -56.383  1.00  0.00     0.000 C
HETATM   49  C28 UNL     1      -4.581  49.557 -55.712  1.00  0.00     0.000 C
HETATM   50  C29 UNL     1      -4.363  50.413 -54.487  1.00  0.00     0.002 C
HETATM   51  C30 UNL     1      -3.729  49.674 -53.335  1.00  0.00     0.032 C
HETATM   52  C31 UNL     1      -2.472  50.358 -52.822  1.00  0.00     0.126 C
BRANCH  52  53
HETATM   53  O10 UNL     1      -2.811  51.575 -52.251  1.00  0.00    -0.395 OA
ATOM     54  H10 UNL     1      -3.663  51.579 -51.830  1.00  0.00     0.210 HD
ENDBRANCH  52  53
ENDBRANCH  44  45
ENDBRANCH  40  43
ENDBRANCH  30  40
ENDBRANCH   1  30
TORSDOF 19
ENDMDL