MODEL 5
REMARK VINA RESULT: -7.427840570      1.699      2.657
REMARK  20 active torsions:
REMARK  status: ('A' for Active; 'I' for Inactive)
REMARK    1  A    between atoms: C2_2  and  O1_3
REMARK    2  A    between atoms: C2_2  and  C3_5
REMARK    3  A    between atoms: C2_2  and  C4_8
REMARK    4  A    between atoms: C3_5  and  O2_6
REMARK    5  A    between atoms: C4_8  and  O3_9
REMARK    6  A    between atoms: C4_8  and  C5_11
REMARK    7  A    between atoms: C5_11  and  C6_12
REMARK    8  A    between atoms: C5_11  and  C7_15
REMARK    9  A    between atoms: C6_12  and  O4_13
REMARK   10  A    between atoms: C7_15  and  O5_16
REMARK   11  A    between atoms: C7_15  and  C8_18
REMARK   12  A    between atoms: C8_18  and  C9_19
REMARK   13  A    between atoms: C9_19  and  C10_21
REMARK   14  A    between atoms: C10_21  and  O7_22
REMARK   15  A    between atoms: C10_21  and  N1_24
REMARK   16  A    between atoms: N1_24  and  C11_26
REMARK   17  A    between atoms: C11_26  and  C14_29
REMARK   18  A    between atoms: C20_35  and  O8_36
REMARK   19  A    between atoms: C23_40  and  O9_41
REMARK   20  A    between atoms: C31_50  and  O10_51
ROOT
HETATM    1  C11 UNL     1       4.333  51.317 -49.874  1.00  0.00     0.025 C
HETATM    2  C12 UNL     1       5.599  51.396 -50.602  1.00  0.00     0.038 C
HETATM    3  C13 UNL     1       3.280  51.450 -50.991  1.00  0.00     0.038 C
ENDROOT
BRANCH   1   4
HETATM    4  N1  UNL     1       4.249  49.938 -49.352  1.00  0.00    -0.383 N
ATOM      5  H1  UNL     1       4.786  49.185 -49.782  1.00  0.00     0.157 HD
BRANCH   4   6
HETATM    6  C10 UNL     1       3.406  49.681 -48.240  1.00  0.00     0.285 C
BRANCH   6   7
HETATM    7  C9  UNL     1       2.681  48.398 -48.578  1.00  0.00     0.176 C
HETATM    8  O6  UNL     1       2.000  47.842 -47.710  1.00  0.00    -0.293 OA
BRANCH   7   9
HETATM    9  C8  UNL     1       2.726  47.755 -49.892  1.00  0.00     0.115 C
BRANCH   9  10
HETATM   10  C7  UNL     1       3.636  46.640 -50.161  1.00  0.00     0.134 C
BRANCH  10  11
HETATM   11  C5  UNL     1       3.153  45.286 -50.514  1.00  0.00     0.070 C
BRANCH  11  12
HETATM   12  C4  UNL     1       3.056  44.457 -49.241  1.00  0.00     0.162 C
BRANCH  12  13
HETATM   13  C2  UNL     1       1.754  43.964 -48.791  1.00  0.00     0.101 C
HETATM   14  C1  UNL     1       0.545  44.062 -49.627  1.00  0.00     0.051 C
BRANCH  13  15
HETATM   15  O1  UNL     1       1.940  42.540 -48.597  1.00  0.00    -0.385 OA
ATOM     16  H1  UNL     1       2.680  42.479 -48.006  1.00  0.00     0.210 HD
ENDBRANCH  13  15
BRANCH  13  17
HETATM   17  C3  UNL     1       1.401  44.447 -47.381  1.00  0.00     0.204 C
BRANCH  17  18
HETATM   18  O2  UNL     1       0.580  45.562 -47.447  1.00  0.00    -0.398 OA
ATOM     19  H2  UNL     1       0.307  45.716 -48.343  1.00  0.00     0.209 HD
ENDBRANCH  17  18
ENDBRANCH  13  17
ENDBRANCH  12  13
BRANCH  12  20
HETATM   20  O3  UNL     1       3.605  45.188 -48.162  1.00  0.00    -0.392 OA
ATOM     21  H3  UNL     1       3.837  46.043 -48.504  1.00  0.00     0.210 HD
ENDBRANCH  12  20
ENDBRANCH  11  12
BRANCH  11  22
HETATM   22  C6  UNL     1       3.805  44.564 -51.624  1.00  0.00     0.174 C
BRANCH  22  23
HETATM   23  O4  UNL     1       4.985  43.906 -51.232  1.00  0.00    -0.400 OA
ATOM     24  H4  UNL     1       5.261  44.135 -50.352  1.00  0.00     0.209 HD
ENDBRANCH  22  23
ENDBRANCH  11  22
ENDBRANCH  10  11
BRANCH  10  25
HETATM   25  O5  UNL     1       4.779  47.039 -50.868  1.00  0.00    -0.395 OA
ATOM     26  H5  UNL     1       5.593  46.716 -50.501  1.00  0.00     0.210 HD
ENDBRANCH  10  25
ENDBRANCH   9  10
ENDBRANCH   7   9
ENDBRANCH   6   7
BRANCH   6  27
HETATM   27  O7  UNL     1       4.198  49.309 -47.108  1.00  0.00    -0.370 OA
ATOM     28  H7  UNL     1       3.834  49.845 -46.412  1.00  0.00     0.212 HD
ENDBRANCH   6  27
ENDBRANCH   4   6
ENDBRANCH   1   4
BRANCH   1  29
HETATM   29  C14 UNL     1       4.000  52.172 -48.731  1.00  0.00     0.024 C
HETATM   30  C15 UNL     1       5.344  52.512 -48.042  1.00  0.00     0.008 C
HETATM   31  C16 UNL     1       4.922  53.449 -46.987  1.00  0.00     0.006 C
HETATM   32  C17 UNL     1       4.047  54.391 -47.810  1.00  0.00     0.001 C
HETATM   33  C18 UNL     1       3.306  55.301 -46.958  1.00  0.00     0.002 C
HETATM   34  C32 UNL     1       3.292  53.446 -48.762  1.00  0.00    -0.008 C
HETATM   35  C19 UNL     1       3.548  56.789 -47.139  1.00  0.00     0.038 C
HETATM   36  C28 UNL     1       1.844  55.161 -46.757  1.00  0.00    -0.030 C
HETATM   37  C20 UNL     1       3.288  57.454 -45.800  1.00  0.00     0.123 C
HETATM   38  C21 UNL     1       2.002  57.083 -45.170  1.00  0.00     0.026 C
HETATM   39  C22 UNL     1       1.948  57.369 -43.681  1.00  0.00     0.039 C
HETATM   40  C26 UNL     1       1.544  55.666 -45.337  1.00  0.00    -0.030 C
HETATM   41  C23 UNL     1       0.484  57.408 -43.312  1.00  0.00     0.118 C
HETATM   42  C24 UNL     1      -0.295  56.211 -43.755  1.00  0.00     0.032 C
HETATM   43  C25 UNL     1       0.046  55.646 -45.076  1.00  0.00     0.013 C
HETATM   44  C27 UNL     1       2.173  54.801 -44.274  1.00  0.00     0.016 C
HETATM   45  C29 UNL     1       0.960  55.969 -47.664  1.00  0.00     0.016 C
HETATM   46  C30 UNL     1       1.535  53.730 -46.937  1.00  0.00     0.042 C
HETATM   47  C31 UNL     1       1.843  53.397 -48.407  1.00  0.00     0.128 C
HETATM   48  C33 UNL     1       3.448  54.200 -50.109  1.00  0.00     0.019 C
BRANCH  37  49
HETATM   49  O8  UNL     1       4.389  57.163 -44.968  1.00  0.00    -0.395 OA
ATOM     50  H8  UNL     1       5.125  57.672 -45.287  1.00  0.00     0.210 HD
ENDBRANCH  37  49
BRANCH  41  51
HETATM   51  O9  UNL     1       0.388  57.563 -41.952  1.00  0.00    -0.396 OA
ATOM     52  H9  UNL     1       0.781  58.396 -41.718  1.00  0.00     0.210 HD
ENDBRANCH  41  51
BRANCH  47  53
HETATM   53  O10 UNL     1       1.183  52.213 -48.581  1.00  0.00    -0.395 OA
ATOM     54  H10 UNL     1       1.659  51.629 -48.003  1.00  0.00     0.210 HD
ENDBRANCH  47  53
ENDBRANCH   1  29
TORSDOF 20
ENDMDL