MODEL 4
REMARK VINA RESULT: -6.783655773      2.610      3.211
REMARK  19 active torsions:
REMARK  status: ('A' for Active; 'I' for Inactive)
REMARK    1  A    between atoms: C2_2  and  C3_3
REMARK    2  A    between atoms: C3_3  and  N1_4
REMARK    3  A    between atoms: N1_4  and  C4_7
REMARK    4  A    between atoms: C10_13  and  O1_14
REMARK    5  A    between atoms: C13_18  and  O2_19
REMARK    6  A    between atoms: O2_19  and  C14_20
REMARK    7  A    between atoms: C14_20  and  C15_22
REMARK    8  A    between atoms: C15_22  and  C16_23
REMARK    9  A    between atoms: C16_23  and  N2_24
REMARK   10  A    between atoms: C16_23  and  C17_28
REMARK   11  A    between atoms: C19_32  and  C20_33
REMARK   12  A    between atoms: C20_33  and  O6_34
REMARK   13  A    between atoms: C20_33  and  C21_36
REMARK   14  A    between atoms: C21_36  and  O7_37
REMARK   15  A    between atoms: C21_36  and  C22_39
REMARK   16  A    between atoms: C22_39  and  O8_40
REMARK   17  A    between atoms: C22_39  and  C23_42
REMARK   18  A    between atoms: C23_42  and  O9_43
REMARK   19  A    between atoms: C33_54  and  O10_55
ROOT
HETATM    1  C4  UNL     1       5.846  57.352 -48.375  1.00  0.00     0.215 C
HETATM    2  C5  UNL     1       5.026  56.647 -47.288  1.00  0.00     0.036 C
HETATM    3  C6  UNL     1       4.454  55.409 -47.867  1.00  0.00     0.008 C
HETATM    4  C7  UNL     1       5.500  54.416 -48.391  1.00  0.00     0.001 C
HETATM    5  C8  UNL     1       4.725  53.190 -48.791  1.00  0.00    -0.002 C
HETATM    6  C9  UNL     1       5.514  51.933 -48.816  1.00  0.00     0.038 C
HETATM    7  C10 UNL     1       4.665  50.718 -49.013  1.00  0.00     0.134 C
HETATM    8  C11 UNL     1       3.347  50.900 -49.738  1.00  0.00     0.039 C
HETATM    9  C12 UNL     1       2.327  51.245 -48.671  1.00  0.00     0.026 C
HETATM   10  C13 UNL     1       3.083  49.601 -50.394  1.00  0.00     0.065 C
HETATM   11  C18 UNL     1       2.052  49.383 -51.398  1.00  0.00     0.014 C
HETATM   12  C19 UNL     1       1.002  50.415 -51.712  1.00  0.00     0.042 C
HETATM   13  C24 UNL     1       1.535  51.626 -52.347  1.00  0.00     0.012 C
HETATM   14  C25 UNL     1       2.134  52.483 -51.263  1.00  0.00     0.011 C
HETATM   15  C26 UNL     1       3.446  52.075 -50.693  1.00  0.00    -0.024 C
HETATM   16  C27 UNL     1       4.327  51.744 -51.888  1.00  0.00     0.017 C
HETATM   17  C28 UNL     1       3.976  53.338 -50.058  1.00  0.00    -0.001 C
HETATM   18  C29 UNL     1       4.747  54.119 -51.094  1.00  0.00     0.007 C
HETATM   19  C30 UNL     1       5.343  55.403 -50.574  1.00  0.00     0.012 C
HETATM   20  C31 UNL     1       6.288  55.097 -49.435  1.00  0.00    -0.012 C
HETATM   21  C32 UNL     1       7.523  54.350 -49.887  1.00  0.00     0.018 C
HETATM   22  C33 UNL     1       6.844  56.381 -48.856  1.00  0.00     0.157 C
ENDROOT
BRANCH  10  23
HETATM   23  O2  UNL     1       3.099  48.571 -49.387  1.00  0.00    -0.283 OA
BRANCH  23  24
HETATM   24  C14 UNL     1       3.188  47.248 -49.549  1.00  0.00     0.266 C
HETATM   25  O3  UNL     1       4.053  46.866 -50.354  1.00  0.00    -0.265 OA
BRANCH  24  26
HETATM   26  C15 UNL     1       2.359  46.233 -48.863  1.00  0.00     0.155 C
BRANCH  26  27
HETATM   27  C16 UNL     1       2.007  45.085 -49.789  1.00  0.00     0.292 C
BRANCH  27  28
HETATM   28  N2  UNL     1       1.293  45.517 -50.949  1.00  0.00    -0.065 N
ATOM     29  H23 UNL     1       0.906  46.451 -50.815  1.00  0.00     0.275 HD
ATOM     30  H22 UNL     1       1.932  45.714 -51.720  1.00  0.00     0.275 HD
ATOM     31  H21 UNL     1       0.570  44.856 -51.231  1.00  0.00     0.275 HD
ENDBRANCH  27  28
BRANCH  27  32
HETATM   32  C17 UNL     1       1.222  44.056 -49.086  1.00  0.00     0.205 C
HETATM   33  O4  UNL     1      -0.018  44.177 -49.013  1.00  0.00    -0.646 OA
HETATM   34  O5  UNL     1       1.859  42.977 -48.516  1.00  0.00    -0.646 OA
ENDBRANCH  27  32
ENDBRANCH  26  27
ENDBRANCH  24  26
ENDBRANCH  23  24
ENDBRANCH  10  23
BRANCH   7  35
HETATM   35  O1  UNL     1       4.445  50.099 -47.753  1.00  0.00    -0.394 OA
ATOM     36  H1  UNL     1       5.133  49.463 -47.597  1.00  0.00     0.210 HD
ENDBRANCH   7  35
BRANCH  12  37
HETATM   37  C20 UNL     1       0.084  49.661 -52.704  1.00  0.00     0.157 C
BRANCH  37  38
HETATM   38  O6  UNL     1       0.226  48.282 -52.339  1.00  0.00    -0.392 OA
ATOM     39  H6  UNL     1      -0.633  47.908 -52.499  1.00  0.00     0.210 HD
ENDBRANCH  37  38
BRANCH  37  40
HETATM   40  C21 UNL     1      -1.359  49.947 -52.588  1.00  0.00     0.178 C
BRANCH  40  41
HETATM   41  O7  UNL     1      -1.695  50.656 -51.390  1.00  0.00    -0.390 OA
ATOM     42  H7  UNL     1      -1.908  51.568 -51.545  1.00  0.00     0.210 HD
ENDBRANCH  40  41
BRANCH  40  43
HETATM   43  C22 UNL     1      -1.957  50.763 -53.725  1.00  0.00     0.172 C
BRANCH  43  44
HETATM   44  O8  UNL     1      -2.206  52.050 -53.143  1.00  0.00    -0.391 OA
ATOM     45  H8  UNL     1      -1.371  52.499 -53.205  1.00  0.00     0.210 HD
ENDBRANCH  43  44
BRANCH  43  46
HETATM   46  C23 UNL     1      -3.296  50.270 -54.127  1.00  0.00     0.198 C
BRANCH  46  47
HETATM   47  O9  UNL     1      -3.563  49.168 -53.232  1.00  0.00    -0.398 OA
ATOM     48  H9  UNL     1      -4.063  49.551 -52.522  1.00  0.00     0.209 HD
ENDBRANCH  46  47
ENDBRANCH  43  46
ENDBRANCH  40  43
ENDBRANCH  37  40
ENDBRANCH  12  37
BRANCH  22  49
HETATM   49  O10 UNL     1       7.756  56.930 -49.758  1.00  0.00    -0.393 OA
ATOM     50  H10 UNL     1       7.365  57.160 -50.592  1.00  0.00     0.210 HD
ENDBRANCH  22  49
BRANCH   1  51
HETATM   51  N1  UNL     1       6.554  58.412 -47.680  1.00  0.00    -0.068 N
ATOM     52  H12 UNL     1       6.155  59.321 -47.913  1.00  0.00     0.277 HD
ATOM     53  H11 UNL     1       7.490  58.531 -48.067  1.00  0.00     0.277 HD
BRANCH  51  54
HETATM   54  C3  UNL     1       6.615  58.238 -46.261  1.00  0.00     0.232 C
BRANCH  54  55
HETATM   55  C2  UNL     1       8.008  58.695 -45.829  1.00  0.00     0.023 C
HETATM   56  C1  UNL     1       8.147  58.697 -44.345  1.00  0.00     0.007 C
ENDBRANCH  54  55
ENDBRANCH  51  54
ENDBRANCH   1  51
TORSDOF 19
ENDMDL