MODEL 5
REMARK VINA RESULT: -6.153095672      0.988      1.019
REMARK  20 active torsions:
REMARK  status: ('A' for Active; 'I' for Inactive)
REMARK    1  A    between atoms: O1_2  and  C2_3
REMARK    2  A    between atoms: C2_3  and  C3_4
REMARK    3  A    between atoms: C2_3  and  C5_8
REMARK    4  A    between atoms: C3_4  and  O2_6
REMARK    5  A    between atoms: C5_8  and  O3_9
REMARK    6  A    between atoms: C5_8  and  C6_11
REMARK    7  A    between atoms: C6_11  and  O4_12
REMARK    8  A    between atoms: C6_11  and  C7_14
REMARK    9  A    between atoms: C9_16  and  O5_17
REMARK   10  A    between atoms: C20_29  and  C21_30
REMARK   11  A    between atoms: C21_30  and  O6_31
REMARK   12  A    between atoms: C21_30  and  C22_33
REMARK   13  A    between atoms: C22_33  and  C23_34
REMARK   14  A    between atoms: C23_34  and  C24_35
REMARK   15  A    between atoms: C24_35  and  N1_36
REMARK   16  A    between atoms: C24_35  and  C25_40
REMARK       I    between atoms: C25_40  and  N2_42
REMARK   17  A    between atoms: N2_42  and  C26_44
REMARK   18  A    between atoms: C26_44  and  C27_45
REMARK   19  A    between atoms: C27_45  and  O8_46
REMARK   20  A    between atoms: C32_52  and  O9_53
ROOT
HETATM    1  C7  UNL     1       3.186  52.913 -49.427  1.00  0.00     0.031 C
HETATM    2  C8  UNL     1       3.319  54.181 -50.230  1.00  0.00     0.040 C
HETATM    3  C9  UNL     1       4.659  54.810 -50.306  1.00  0.00     0.126 C
HETATM    4  C10 UNL     1       5.823  53.882 -50.315  1.00  0.00    -0.017 C
HETATM    5  C11 UNL     1       6.812  54.163 -49.254  1.00  0.00     0.018 C
HETATM    6  C12 UNL     1       6.619  54.152 -51.631  1.00  0.00     0.018 C
HETATM    7  C13 UNL     1       5.311  52.501 -50.486  1.00  0.00     0.007 C
HETATM    8  C14 UNL     1       6.279  51.496 -50.991  1.00  0.00     0.007 C
HETATM    9  C15 UNL     1       5.516  50.535 -51.911  1.00  0.00     0.008 C
HETATM   10  C16 UNL     1       4.034  50.513 -51.476  1.00  0.00     0.025 C
HETATM   11  C17 UNL     1       3.601  49.123 -51.871  1.00  0.00     0.001 C
HETATM   12  C18 UNL     1       3.409  48.948 -53.343  1.00  0.00     0.006 C
HETATM   13  C19 UNL     1       2.761  47.577 -53.371  1.00  0.00     0.008 C
HETATM   14  C20 UNL     1       1.986  47.444 -52.050  1.00  0.00     0.023 C
HETATM   15  C28 UNL     1       2.270  48.700 -51.314  1.00  0.00    -0.034 C
HETATM   16  C29 UNL     1       1.168  49.682 -51.654  1.00  0.00     0.016 C
HETATM   17  C30 UNL     1       2.489  48.589 -49.838  1.00  0.00     0.013 C
HETATM   18  C31 UNL     1       2.751  50.023 -49.359  1.00  0.00     0.040 C
HETATM   19  C32 UNL     1       3.984  50.570 -49.965  1.00  0.00     0.070 C
HETATM   20  C33 UNL     1       4.342  51.985 -49.434  1.00  0.00    -0.002 C
HETATM   21  C34 UNL     1       4.992  51.694 -48.125  1.00  0.00     0.019 C
ENDROOT
BRANCH  14  22
HETATM   22  C21 UNL     1       2.276  46.167 -51.362  1.00  0.00     0.123 C
BRANCH  22  23
HETATM   23  O6  UNL     1       1.164  45.343 -51.392  1.00  0.00    -0.395 OA
ATOM     24  H6  UNL     1       1.418  44.455 -51.617  1.00  0.00     0.210 HD
ENDBRANCH  22  23
BRANCH  22  25
HETATM   25  C22 UNL     1       3.392  45.458 -52.111  1.00  0.00     0.034 C
BRANCH  25  26
HETATM   26  C23 UNL     1       4.652  45.386 -51.274  1.00  0.00     0.045 C
BRANCH  26  27
HETATM   27  C24 UNL     1       4.628  44.068 -50.514  1.00  0.00     0.274 C
BRANCH  27  28
HETATM   28  N1  UNL     1       5.995  43.722 -50.249  1.00  0.00    -0.067 N
ATOM     29  H13 UNL     1       6.664  44.328 -50.722  1.00  0.00     0.275 HD
ATOM     30  H12 UNL     1       6.286  43.932 -49.294  1.00  0.00     0.275 HD
ATOM     31  H11 UNL     1       6.099  42.737 -50.494  1.00  0.00     0.275 HD
ENDBRANCH  27  28
BRANCH  27  32
HETATM   32  C25 UNL     1       3.882  44.157 -49.251  1.00  0.00     0.248 C
HETATM   33  O7  UNL     1       4.378  44.746 -48.253  1.00  0.00    -0.271 OA
HETATM   34  N2  UNL     1       2.594  43.572 -49.157  1.00  0.00    -0.357 N
ATOM     35  H2  UNL     1       2.185  43.093 -49.960  1.00  0.00     0.162 HD
BRANCH  34  36
HETATM   36  C26 UNL     1       1.869  43.663 -47.916  1.00  0.00     0.148 C
BRANCH  36  37
HETATM   37  C27 UNL     1       0.978  44.868 -47.848  1.00  0.00     0.183 C
BRANCH  37  38
HETATM   38  O8  UNL     1       1.711  45.970 -47.395  1.00  0.00    -0.399 OA
ATOM     39  H8  UNL     1       1.136  46.720 -47.303  1.00  0.00     0.209 HD
ENDBRANCH  37  38
ENDBRANCH  36  37
ENDBRANCH  34  36
ENDBRANCH  27  32
ENDBRANCH  26  27
ENDBRANCH  25  26
ENDBRANCH  22  25
ENDBRANCH  14  22
BRANCH  19  40
HETATM   40  O9  UNL     1       5.003  49.670 -49.635  1.00  0.00    -0.389 OA
ATOM     41  H9  UNL     1       5.642  49.871 -50.308  1.00  0.00     0.210 HD
ENDBRANCH  19  40
BRANCH   1  42
HETATM   42  C6  UNL     1       2.268  53.019 -48.279  1.00  0.00     0.154 C
BRANCH  42  43
HETATM   43  C5  UNL     1       2.157  54.225 -47.440  1.00  0.00     0.178 C
BRANCH  43  44
HETATM   44  C2  UNL     1       1.394  53.834 -46.164  1.00  0.00     0.180 C
BRANCH  44  45
HETATM   45  O1  UNL     1       0.220  54.517 -45.992  1.00  0.00    -0.385 OA
HETATM   46  C1  UNL     1      -0.117  55.414 -46.969  1.00  0.00     0.202 C
ENDBRANCH  44  45
BRANCH  44  47
HETATM   47  C3  UNL     1       2.187  53.817 -44.911  1.00  0.00     0.145 C
HETATM   48  C4  UNL     1       1.555  54.843 -43.943  1.00  0.00     0.042 C
BRANCH  47  49
HETATM   49  O2  UNL     1       2.062  52.594 -44.240  1.00  0.00    -0.393 OA
ATOM     50  H2  UNL     1       2.910  52.217 -44.041  1.00  0.00     0.210 HD
ENDBRANCH  47  49
ENDBRANCH  44  47
ENDBRANCH  43  44
BRANCH  43  51
HETATM   51  O3  UNL     1       3.343  54.743 -46.927  1.00  0.00    -0.390 OA
ATOM     52  H3  UNL     1       3.142  55.668 -46.852  1.00  0.00     0.210 HD
ENDBRANCH  43  51
ENDBRANCH  42  43
BRANCH  42  53
HETATM   53  O4  UNL     1       0.912  52.785 -48.669  1.00  0.00    -0.393 OA
ATOM     54  H4  UNL     1       0.422  53.200 -47.969  1.00  0.00     0.210 HD
ENDBRANCH  42  53
ENDBRANCH   1  42
BRANCH   3  55
HETATM   55  O5  UNL     1       4.894  55.757 -49.277  1.00  0.00    -0.395 OA
ATOM     56  H5  UNL     1       4.134  55.909 -48.727  1.00  0.00     0.210 HD
ENDBRANCH   3  55
TORSDOF 20
ENDMDL