MODEL 4
REMARK VINA RESULT: -5.782009594      3.985      7.113
REMARK  18 active torsions:
REMARK  status: ('A' for Active; 'I' for Inactive)
REMARK    1  A    between atoms: C2_2  and  C3_3
REMARK    2  A    between atoms: C2_2  and  C16_22
REMARK    3  A    between atoms: C3_3  and  C4_4
REMARK    4  A    between atoms: C4_4  and  C5_5
REMARK    5  A    between atoms: C4_4  and  C6_8
REMARK    6  A    between atoms: C5_5  and  O1_6
REMARK    7  A    between atoms: C6_8  and  O2_9
REMARK    8  A    between atoms: C6_8  and  C7_11
REMARK    9  A    between atoms: C8_12  and  O3_13
REMARK   10  A    between atoms: C16_22  and  C17_23
REMARK   11  A    between atoms: C16_22  and  C19_27
REMARK   12  A    between atoms: C17_23  and  C18_24
REMARK   13  A    between atoms: C29_37  and  O6_38
REMARK   14  A    between atoms: C30_40  and  O7_41
REMARK   15  A    between atoms: C31_43  and  C32_44
REMARK   16  A    between atoms: C32_44  and  O8_45
REMARK   17  A    between atoms: C33_47  and  O9_48
REMARK   18  A    between atoms: C34_50  and  O10_51
ROOT
HETATM    1  C19 UNL     1       2.763  48.453 -51.252  1.00  0.00    -0.057 C
HETATM    2  C20 UNL     1       3.750  47.660 -52.167  1.00  0.00     0.040 C
HETATM    3  C21 UNL     1       4.510  46.702 -51.358  1.00  0.00    -0.009 C
HETATM    4  C22 UNL     1       4.264  45.282 -51.212  1.00  0.00     0.011 C
HETATM    5  C23 UNL     1       3.272  44.677 -50.381  1.00  0.00     0.012 C
HETATM    6  C24 UNL     1       1.927  45.020 -51.040  1.00  0.00    -0.010 C
HETATM    7  C25 UNL     1       1.982  44.428 -52.433  1.00  0.00     0.018 C
HETATM    8  C26 UNL     1       1.765  46.415 -50.881  1.00  0.00     0.029 C
HETATM    9  C27 UNL     1       2.673  47.433 -50.253  1.00  0.00     0.013 C
HETATM   10  C28 UNL     1       4.125  47.208 -50.031  1.00  0.00     0.021 C
HETATM   11  C29 UNL     1       2.302  47.355 -48.849  1.00  0.00     0.160 C
HETATM   12  C30 UNL     1       2.386  45.952 -48.313  1.00  0.00     0.161 C
HETATM   13  C31 UNL     1       2.817  44.784 -49.033  1.00  0.00     0.042 C
HETATM   14  C33 UNL     1       1.674  43.713 -49.133  1.00  0.00     0.161 C
HETATM   15  C34 UNL     1       0.892  44.167 -50.296  1.00  0.00     0.156 C
ENDROOT
BRANCH   1  16
HETATM   16  C16 UNL     1       2.882  49.893 -51.364  1.00  0.00    -0.021 C
BRANCH  16  17
HETATM   17  C2  UNL     1       2.013  50.522 -52.497  1.00  0.00    -0.054 C
HETATM   18  C1  UNL     1       2.735  50.981 -53.671  1.00  0.00     0.049 C
BRANCH  17  19
HETATM   19  C3  UNL     1       0.739  49.827 -52.655  1.00  0.00    -0.010 C
BRANCH  19  20
HETATM   20  C4  UNL     1      -0.464  50.479 -53.290  1.00  0.00     0.061 C
BRANCH  20  21
HETATM   21  C5  UNL     1      -1.049  49.685 -54.404  1.00  0.00     0.175 C
BRANCH  21  22
HETATM   22  O1  UNL     1      -0.707  48.327 -54.415  1.00  0.00    -0.400 OA
ATOM     23  H1  UNL     1       0.133  48.122 -54.809  1.00  0.00     0.209 HD
ENDBRANCH  21  22
ENDBRANCH  20  21
BRANCH  20  24
HETATM   24  C6  UNL     1      -1.438  50.672 -52.141  1.00  0.00     0.135 C
BRANCH  24  25
HETATM   25  O2  UNL     1      -2.353  49.595 -52.108  1.00  0.00    -0.394 OA
ATOM     26  H2  UNL     1      -3.242  49.932 -52.101  1.00  0.00     0.210 HD
ENDBRANCH  24  25
BRANCH  24  27
HETATM   27  C7  UNL     1      -2.098  51.963 -51.941  1.00  0.00     0.052 C
HETATM   28  C8  UNL     1      -2.969  52.466 -53.047  1.00  0.00     0.125 C
HETATM   29  C9  UNL     1      -3.787  53.693 -52.586  1.00  0.00     0.032 C
HETATM   30  C10 UNL     1      -2.732  54.796 -52.486  1.00  0.00     0.007 C
HETATM   31  C11 UNL     1      -1.842  54.367 -51.371  1.00  0.00    -0.010 C
HETATM   32  C12 UNL     1      -0.901  55.498 -51.067  1.00  0.00     0.011 C
HETATM   33  C13 UNL     1      -1.112  53.075 -51.588  1.00  0.00    -0.036 C
HETATM   34  C14 UNL     1      -0.050  53.310 -52.595  1.00  0.00     0.016 C
HETATM   35  C15 UNL     1      -0.428  52.817 -50.239  1.00  0.00     0.016 C
BRANCH  28  36
HETATM   36  O3  UNL     1      -3.908  51.625 -53.561  1.00  0.00    -0.395 OA
ATOM     37  H3  UNL     1      -4.603  51.324 -52.987  1.00  0.00     0.210 HD
ENDBRANCH  28  36
ENDBRANCH  24  27
ENDBRANCH  20  24
ENDBRANCH  19  20
ENDBRANCH  17  19
ENDBRANCH  16  17
BRANCH  16  38
HETATM   38  C17 UNL     1       3.292  50.847 -50.334  1.00  0.00     0.096 C
BRANCH  38  39
HETATM   39  C18 UNL     1       4.533  50.835 -49.614  1.00  0.00     0.199 C
HETATM   40  O4  UNL     1       4.759  50.354 -48.443  1.00  0.00    -0.644 OA
HETATM   41  O5  UNL     1       5.703  51.389 -50.156  1.00  0.00    -0.644 OA
ENDBRANCH  38  39
ENDBRANCH  16  38
ENDBRANCH   1  16
BRANCH  11  42
HETATM   42  O6  UNL     1       3.155  48.074 -47.956  1.00  0.00    -0.392 OA
ATOM     43  H6  UNL     1       4.001  47.673 -47.796  1.00  0.00     0.210 HD
ENDBRANCH  11  42
BRANCH  12  44
HETATM   44  O7  UNL     1       1.075  45.759 -47.768  1.00  0.00    -0.392 OA
ATOM     45  H7  UNL     1       0.705  46.632 -47.823  1.00  0.00     0.210 HD
ENDBRANCH  12  44
BRANCH  15  46
HETATM   46  O10 UNL     1      -0.276  44.832 -50.069  1.00  0.00    -0.392 OA
ATOM     47  H10 UNL     1      -0.937  44.287 -49.658  1.00  0.00     0.210 HD
ENDBRANCH  15  46
BRANCH  13  48
HETATM   48  C32 UNL     1       3.781  43.952 -48.137  1.00  0.00     0.179 C
BRANCH  48  49
HETATM   49  O8  UNL     1       3.789  42.624 -48.535  1.00  0.00    -0.400 OA
ATOM     50  H8  UNL     1       4.047  42.062 -47.815  1.00  0.00     0.209 HD
ENDBRANCH  48  49
ENDBRANCH  13  48
BRANCH  14  51
HETATM   51  O9  UNL     1       1.068  43.424 -47.978  1.00  0.00    -0.392 OA
ATOM     52  H9  UNL     1       0.588  44.144 -47.585  1.00  0.00     0.210 HD
ENDBRANCH  14  51
TORSDOF 18
ENDMDL