MODEL 4
REMARK VINA RESULT: -5.281758364      3.459      8.084
REMARK  21 active torsions:
REMARK  status: ('A' for Active; 'I' for Inactive)
REMARK    1  A    between atoms: C3_3  and  O1_4
REMARK    2  A    between atoms: C3_3  and  C4_6
REMARK    3  A    between atoms: C4_6  and  C6_8
REMARK    4  A    between atoms: C6_8  and  O2_9
REMARK    5  A    between atoms: C6_8  and  C7_11
REMARK    6  A    between atoms: C7_11  and  O3_12
REMARK    7  A    between atoms: C7_11  and  C8_14
REMARK    8  A    between atoms: C17_23  and  O4_24
REMARK    9  A    between atoms: C20_28  and  C21_29
REMARK   10  A    between atoms: C21_29  and  O5_30
REMARK   11  A    between atoms: C23_33  and  C24_34
REMARK   12  A    between atoms: C24_34  and  O6_35
REMARK   13  A    between atoms: C24_34  and  C25_37
REMARK   14  A    between atoms: C25_37  and  C26_38
REMARK   15  A    between atoms: C26_38  and  C27_39
REMARK   16  A    between atoms: C27_39  and  O7_40
REMARK   17  A    between atoms: C27_39  and  C28_42
REMARK   18  A    between atoms: C32_46  and  O8_47
REMARK   19  A    between atoms: C33_49  and  C34_50
REMARK   20  A    between atoms: C34_50  and  O9_51
REMARK   21  A    between atoms: C35_53  and  O10_54
ROOT
HETATM    1  C1  UNL     1       0.852  43.992 -48.759  1.00  0.00     0.099 C
HETATM    2  C2  UNL     1       1.803  44.720 -49.029  1.00  0.00    -0.156 C
HETATM    3  C3  UNL     1       2.946  45.580 -49.315  1.00  0.00     0.190 C
ENDROOT
BRANCH   3   4
HETATM    4  O1  UNL     1       3.101  46.358 -48.131  1.00  0.00    -0.384 OA
ATOM      5  H1  UNL     1       2.567  47.128 -48.287  1.00  0.00     0.211 HD
ENDBRANCH   3   4
BRANCH   3   6
HETATM    6  C4  UNL     1       2.618  46.567 -50.393  1.00  0.00     0.053 C
HETATM    7  C5  UNL     1       1.757  45.785 -51.405  1.00  0.00     0.016 C
BRANCH   6   8
HETATM    8  C6  UNL     1       3.774  47.220 -51.076  1.00  0.00     0.154 C
BRANCH   8   9
HETATM    9  O2  UNL     1       4.915  46.397 -50.775  1.00  0.00    -0.393 OA
ATOM     10  H2  UNL     1       5.400  46.868 -50.107  1.00  0.00     0.210 HD
ENDBRANCH   8   9
BRANCH   8  11
HETATM   11  C7  UNL     1       4.060  48.634 -50.652  1.00  0.00     0.154 C
BRANCH  11  12
HETATM   12  O3  UNL     1       5.071  49.239 -51.292  1.00  0.00    -0.393 OA
ATOM     13  H3  UNL     1       5.721  49.653 -50.736  1.00  0.00     0.210 HD
ENDBRANCH  11  12
BRANCH  11  14
HETATM   14  C8  UNL     1       2.797  49.467 -50.350  1.00  0.00     0.052 C
HETATM   15  C9  UNL     1       2.542  50.583 -51.249  1.00  0.00     0.010 C
HETATM   16  C10 UNL     1       2.182  51.930 -50.687  1.00  0.00    -0.004 C
HETATM   17  C20 UNL     1       1.456  50.412 -52.335  1.00  0.00    -0.010 C
HETATM   18  C11 UNL     1       2.999  52.891 -51.549  1.00  0.00     0.006 C
HETATM   19  C22 UNL     1       2.119  52.173 -49.254  1.00  0.00     0.012 C
HETATM   20  C12 UNL     1       2.620  52.544 -53.006  1.00  0.00     0.007 C
HETATM   21  C13 UNL     1       1.374  51.696 -53.124  1.00  0.00     0.007 C
HETATM   22  C14 UNL     1       1.044  51.582 -54.590  1.00  0.00    -0.017 C
HETATM   23  C15 UNL     1      -0.451  51.793 -54.879  1.00  0.00     0.018 C
HETATM   24  C16 UNL     1       1.663  52.808 -55.303  1.00  0.00     0.018 C
HETATM   25  C17 UNL     1       1.589  50.431 -55.333  1.00  0.00     0.126 C
HETATM   26  C18 UNL     1       2.312  49.430 -54.518  1.00  0.00     0.033 C
HETATM   27  C19 UNL     1       1.562  49.257 -53.227  1.00  0.00     0.015 C
HETATM   28  C23 UNL     1       2.624  53.497 -48.763  1.00  0.00     0.022 C
HETATM   29  C33 UNL     1       2.670  51.138 -48.356  1.00  0.00     0.038 C
HETATM   30  C31 UNL     1       3.300  53.191 -47.412  1.00  0.00     0.040 C
HETATM   31  C32 UNL     1       3.828  51.814 -47.654  1.00  0.00     0.132 C
HETATM   32  C35 UNL     1       2.989  49.811 -48.898  1.00  0.00     0.138 C
BRANCH  25  33
HETATM   33  O4  UNL     1       2.423  50.757 -56.416  1.00  0.00    -0.395 OA
ATOM     34  H4  UNL     1       3.340  50.535 -56.303  1.00  0.00     0.210 HD
ENDBRANCH  25  33
BRANCH  28  35
HETATM   35  C24 UNL     1       1.567  54.504 -48.372  1.00  0.00     0.122 C
BRANCH  35  36
HETATM   36  O6  UNL     1       1.750  55.563 -49.280  1.00  0.00    -0.395 OA
ATOM     37  H6  UNL     1       1.957  56.308 -48.728  1.00  0.00     0.210 HD
ENDBRANCH  35  36
BRANCH  35  38
HETATM   38  C25 UNL     1       0.187  54.022 -48.316  1.00  0.00     0.034 C
BRANCH  38  39
HETATM   39  C26 UNL     1      -0.798  54.567 -49.296  1.00  0.00     0.034 C
BRANCH  39  40
HETATM   40  C27 UNL     1      -0.956  53.816 -50.580  1.00  0.00     0.121 C
BRANCH  40  41
HETATM   41  O7  UNL     1      -2.034  52.935 -50.554  1.00  0.00    -0.395 OA
ATOM     42  H7  UNL     1      -1.762  52.028 -50.489  1.00  0.00     0.210 HD
ENDBRANCH  40  41
BRANCH  40  43
HETATM   43  C28 UNL     1      -1.274  54.785 -51.729  1.00  0.00     0.006 C
HETATM   44  C29 UNL     1      -2.285  54.131 -52.624  1.00  0.00     0.012 C
HETATM   45  C30 UNL     1      -0.028  55.060 -52.508  1.00  0.00     0.012 C
ENDBRANCH  40  43
ENDBRANCH  39  40
ENDBRANCH  38  39
ENDBRANCH  35  38
ENDBRANCH  28  35
BRANCH  31  46
HETATM   46  O8  UNL     1       4.943  51.982 -48.448  1.00  0.00    -0.395 OA
ATOM     47  H8  UNL     1       5.093  51.137 -48.856  1.00  0.00     0.210 HD
ENDBRANCH  31  46
BRANCH  29  48
HETATM   48  C34 UNL     1       1.710  50.851 -47.164  1.00  0.00     0.179 C
BRANCH  48  49
HETATM   49  O9  UNL     1       2.128  49.709 -46.527  1.00  0.00    -0.400 OA
ATOM     50  H9  UNL     1       2.191  49.885 -45.595  1.00  0.00     0.209 HD
ENDBRANCH  48  49
ENDBRANCH  29  48
BRANCH  32  51
HETATM   51  O10 UNL     1       4.364  49.644 -48.489  1.00  0.00    -0.394 OA
ATOM     52  H10 UNL     1       4.496  48.822 -48.032  1.00  0.00     0.210 HD
ENDBRANCH  32  51
BRANCH  17  53
HETATM   53  C21 UNL     1       0.150  50.199 -51.554  1.00  0.00     0.174 C
BRANCH  53  54
HETATM   54  O5  UNL     1      -0.813  49.520 -52.298  1.00  0.00    -0.400 OA
ATOM     55  H5  UNL     1      -1.616  50.018 -52.395  1.00  0.00     0.209 HD
ENDBRANCH  53  54
ENDBRANCH  17  53
ENDBRANCH  11  14
ENDBRANCH   8  11
ENDBRANCH   6   8
ENDBRANCH   3   6
TORSDOF 21
ENDMDL