MODEL 5
REMARK VINA RESULT: -6.339075152      2.288      4.717
REMARK  18 active torsions:
REMARK  status: ('A' for Active; 'I' for Inactive)
REMARK    1  A    between atoms: C2_2  and  C3_3
REMARK    2  A    between atoms: C3_3  and  C4_4
REMARK    3  A    between atoms: C4_4  and  C5_5
REMARK    4  A    between atoms: C5_5  and  C6_6
REMARK    5  A    between atoms: C6_6  and  C7_7
REMARK    6  A    between atoms: C7_7  and  C8_8
REMARK    7  A    between atoms: C10_10  and  C11_11
REMARK    8  A    between atoms: C11_11  and  C13_13
REMARK    9  A    between atoms: C13_13  and  C14_14
REMARK   10  A    between atoms: C14_14  and  C15_16
REMARK   11  A    between atoms: C15_16  and  C16_17
REMARK   12  A    between atoms: C16_17  and  C17_18
REMARK   13  A    between atoms: C24_32  and  N2_33
REMARK       I    between atoms: N2_33  and  C25_35
REMARK   14  A    between atoms: C25_35  and  C26_37
REMARK   15  A    between atoms: C26_37  and  C27_39
REMARK   16  A    between atoms: C27_39  and  C30_42
REMARK   17  A    between atoms: C32_44  and  O9_45
REMARK   18  A    between atoms: C33_47  and  O10_48
ROOT
HETATM    1  C17 UNL     1      54.350  21.940 -17.456  1.00  0.00     0.144 C
HETATM    2  O2  UNL     1      53.343  21.203 -18.130  1.00  0.00    -0.285 OA
HETATM    3  C18 UNL     1      52.220  21.078 -17.360  1.00  0.00     0.363 C
HETATM    4  O3  UNL     1      51.311  20.197 -17.543  1.00  0.00    -0.238 OA
HETATM    5  N1  UNL     1      52.280  22.073 -16.374  1.00  0.00    -0.307 N
ATOM      6  H1  UNL     1      51.577  22.255 -15.657  1.00  0.00     0.167 HD
HETATM    7  C19 UNL     1      53.508  22.788 -16.555  1.00  0.00     0.266 C
HETATM    8  O4  UNL     1      54.028  23.156 -15.366  1.00  0.00    -0.331 OA
HETATM    9  C20 UNL     1      53.762  22.400 -14.271  1.00  0.00     0.296 C
HETATM   10  O5  UNL     1      53.340  23.311 -13.267  1.00  0.00    -0.329 OA
HETATM   11  C21 UNL     1      54.479  23.709 -12.612  1.00  0.00     0.259 C
HETATM   12  C22 UNL     1      54.315  23.301 -11.151  1.00  0.00     0.071 C
HETATM   13  O6  UNL     1      55.570  23.013 -13.131  1.00  0.00    -0.349 OA
HETATM   14  C23 UNL     1      54.978  21.854 -13.577  1.00  0.00     0.205 C
HETATM   15  C24 UNL     1      55.798  20.902 -14.329  1.00  0.00     0.150 C
HETATM   16  C32 UNL     1      56.142  21.218 -15.755  1.00  0.00     0.175 C
HETATM   17  C33 UNL     1      55.163  20.892 -16.781  1.00  0.00     0.188 C
ENDROOT
BRANCH   1  18
HETATM   18  C16 UNL     1      55.130  22.699 -18.468  1.00  0.00     0.053 C
BRANCH  18  19
HETATM   19  C15 UNL     1      54.908  24.139 -18.639  1.00  0.00     0.081 C
BRANCH  19  20
HETATM   20  C14 UNL     1      54.219  24.589 -19.864  1.00  0.00     0.127 C
HETATM   21  O1  UNL     1      53.020  24.804 -19.832  1.00  0.00    -0.298 OA
BRANCH  20  22
HETATM   22  C13 UNL     1      54.957  24.791 -21.153  1.00  0.00     0.086 C
BRANCH  22  23
HETATM   23  C11 UNL     1      55.659  26.093 -21.148  1.00  0.00     0.011 C
HETATM   24  C12 UNL     1      55.387  26.846 -22.473  1.00  0.00     0.014 C
BRANCH  23  25
HETATM   25  C10 UNL     1      55.525  26.980 -20.032  1.00  0.00    -0.020 C
HETATM   26  C8  UNL     1      56.173  27.985 -19.554  1.00  0.00    -0.087 C
HETATM   27  C9  UNL     1      57.432  28.626 -19.979  1.00  0.00     0.043 C
BRANCH  26  28
HETATM   28  C7  UNL     1      55.580  28.613 -18.289  1.00  0.00     0.033 C
BRANCH  28  29
HETATM   29  C6  UNL     1      55.044  27.592 -17.345  1.00  0.00     0.004 C
BRANCH  29  30
HETATM   30  C5  UNL     1      55.824  27.420 -16.088  1.00  0.00     0.001 C
BRANCH  30  31
HETATM   31  C4  UNL     1      56.111  26.029 -15.667  1.00  0.00     0.004 C
BRANCH  31  32
HETATM   32  C3  UNL     1      56.857  26.010 -14.356  1.00  0.00     0.026 C
BRANCH  32  33
HETATM   33  C2  UNL     1      56.847  27.392 -13.801  1.00  0.00    -0.037 C
HETATM   34  C1  UNL     1      57.379  27.669 -12.631  1.00  0.00     0.007 C
ENDBRANCH  32  33
ENDBRANCH  31  32
ENDBRANCH  30  31
ENDBRANCH  29  30
ENDBRANCH  28  29
ENDBRANCH  26  28
ENDBRANCH  23  25
ENDBRANCH  22  23
ENDBRANCH  20  22
ENDBRANCH  19  20
ENDBRANCH  18  19
ENDBRANCH   1  18
BRANCH  17  35
HETATM   35  O10 UNL     1      55.720  20.131 -17.850  1.00  0.00    -0.390 OA
ATOM     36  H10 UNL     1      55.234  19.315 -17.836  1.00  0.00     0.210 HD
ENDBRANCH  17  35
BRANCH  16  37
HETATM   37  O9  UNL     1      56.771  22.461 -15.817  1.00  0.00    -0.391 OA
ATOM     38  H9  UNL     1      57.708  22.348 -15.711  1.00  0.00     0.210 HD
ENDBRANCH  16  37
BRANCH  15  39
HETATM   39  N2  UNL     1      55.206  19.591 -14.199  1.00  0.00    -0.345 N
HETATM   40  C25 UNL     1      55.474  18.785 -13.064  1.00  0.00     0.288 C
HETATM   41  O7  UNL     1      56.231  19.234 -12.177  1.00  0.00    -0.264 OA
ATOM     42  H2  UNL     1      54.590  19.241 -14.932  1.00  0.00     0.163 HD
BRANCH  40  43
HETATM   43  C26 UNL     1      54.909  17.459 -12.879  1.00  0.00     0.224 C
HETATM   44  O8  UNL     1      55.661  16.479 -13.217  1.00  0.00    -0.286 OA
BRANCH  43  45
HETATM   45  C27 UNL     1      53.546  17.231 -12.337  1.00  0.00     0.022 C
HETATM   46  C28 UNL     1      53.043  15.858 -12.744  1.00  0.00     0.023 C
HETATM   47  C29 UNL     1      52.555  18.248 -12.830  1.00  0.00     0.023 C
BRANCH  45  48
HETATM   48  C30 UNL     1      53.651  17.235 -10.824  1.00  0.00     0.012 C
HETATM   49  C31 UNL     1      53.235  18.515 -10.185  1.00  0.00     0.006 C
ENDBRANCH  45  48
ENDBRANCH  43  45
ENDBRANCH  40  43
ENDBRANCH  15  39
TORSDOF 18
ENDMDL