MODEL 5
REMARK VINA RESULT: -5.222856498      2.232      4.658
REMARK  19 active torsions:
REMARK  status: ('A' for Active; 'I' for Inactive)
REMARK    1  A    between atoms: C2_2  and  C3_3
REMARK    2  A    between atoms: C3_3  and  N1_4
REMARK    3  A    between atoms: C4_6  and  O1_7
REMARK    4  A    between atoms: C4_6  and  C6_9
REMARK    5  A    between atoms: C6_9  and  N2_10
REMARK    6  A    between atoms: C6_9  and  C14_22
REMARK    7  A    between atoms: N2_10  and  C7_13
REMARK    8  A    between atoms: C7_13  and  C9_16
REMARK    9  A    between atoms: C9_16  and  C10_18
REMARK       I    between atoms: C14_22  and  N4_24
REMARK   10  A    between atoms: N4_24  and  C15_26
REMARK   11  A    between atoms: C15_26  and  C16_27
REMARK   12  A    between atoms: C15_26  and  C20_31
REMARK   13  A    between atoms: C16_27  and  C17_28
REMARK       I    between atoms: C20_31  and  N5_33
REMARK   14  A    between atoms: N5_33  and  C21_35
REMARK   15  A    between atoms: C21_35  and  C22_36
REMARK   16  A    between atoms: C21_35  and  C29_51
REMARK       I    between atoms: C22_36  and  N6_38
REMARK   17  A    between atoms: N6_38  and  C23_40
REMARK   18  A    between atoms: C23_40  and  C24_41
REMARK   19  A    between atoms: C25_44  and  C26_45
ROOT
HETATM    1  C7  UNL     1      54.249  18.725 -12.391  1.00  0.00     0.362 C
HETATM    2  C8  UNL     1      55.262  19.374 -11.574  1.00  0.00     0.100 C
HETATM    3  N3  UNL     1      56.067  19.912 -10.937  1.00  0.00    -0.195 NA
ENDROOT
BRANCH   1   4
HETATM    4  N2  UNL     1      54.263  19.329 -13.701  1.00  0.00    -0.031 N
ATOM      5  H22 UNL     1      53.723  18.774 -14.365  1.00  0.00     0.280 HD
ATOM      6  H21 UNL     1      55.186  19.251 -14.130  1.00  0.00     0.280 HD
BRANCH   4   7
HETATM    7  C6  UNL     1      53.816  20.696 -13.691  1.00  0.00     0.352 C
BRANCH   7   8
HETATM    8  C4  UNL     1      52.629  20.950 -14.523  1.00  0.00     0.154 C
HETATM    9  N1  UNL     1      51.419  20.689 -14.234  1.00  0.00    -0.369 N
ATOM     10  H1  UNL     1      50.747  20.947 -14.957  1.00  0.00     0.161 HD
BRANCH   9  11
HETATM   11  C3  UNL     1      50.846  20.103 -13.084  1.00  0.00     0.148 C
BRANCH  11  12
HETATM   12  C2  UNL     1      49.366  19.944 -13.323  1.00  0.00    -0.018 C
HETATM   13  C1  UNL     1      48.904  18.874 -13.948  1.00  0.00     0.008 C
ENDBRANCH  11  12
ENDBRANCH   9  11
BRANCH   8  14
HETATM   14  O1  UNL     1      52.815  21.550 -15.793  1.00  0.00    -0.342 OA
HETATM   15  C5  UNL     1      51.710  21.857 -16.598  1.00  0.00     0.211 C
ENDBRANCH   8  14
ENDBRANCH   7   8
BRANCH   7  16
HETATM   16  C14 UNL     1      54.931  21.549 -14.209  1.00  0.00     0.257 C
HETATM   17  O3  UNL     1      56.004  20.981 -14.536  1.00  0.00    -0.271 OA
HETATM   18  N4  UNL     1      54.782  22.948 -14.330  1.00  0.00    -0.346 N
ATOM     19  H4  UNL     1      53.881  23.342 -14.060  1.00  0.00     0.163 HD
BRANCH  18  20
HETATM   20  C15 UNL     1      55.792  23.874 -14.803  1.00  0.00     0.177 C
BRANCH  20  21
HETATM   21  C16 UNL     1      55.375  25.290 -14.622  1.00  0.00     0.038 C
BRANCH  21  22
HETATM   22  C17 UNL     1      56.444  26.296 -14.930  1.00  0.00    -0.020 C
HETATM   23  C18 UNL     1      57.046  26.781 -13.627  1.00  0.00     0.009 C
HETATM   24  C19 UNL     1      55.942  27.508 -15.659  1.00  0.00     0.009 C
ENDBRANCH  21  22
ENDBRANCH  20  21
BRANCH  20  25
HETATM   25  C20 UNL     1      55.959  23.648 -16.293  1.00  0.00     0.241 C
HETATM   26  O4  UNL     1      57.059  23.240 -16.740  1.00  0.00    -0.271 OA
HETATM   27  N5  UNL     1      54.914  23.879 -17.215  1.00  0.00    -0.345 N
ATOM     28  H5  UNL     1      54.009  24.201 -16.870  1.00  0.00     0.163 HD
BRANCH  27  29
HETATM   29  C21 UNL     1      55.099  23.666 -18.675  1.00  0.00     0.184 C
BRANCH  29  30
HETATM   30  C22 UNL     1      54.250  22.527 -19.101  1.00  0.00     0.241 C
HETATM   31  O5  UNL     1      54.565  21.379 -18.714  1.00  0.00    -0.271 OA
HETATM   32  N6  UNL     1      53.114  22.684 -19.921  1.00  0.00    -0.352 N
ATOM     33  H6  UNL     1      52.854  23.615 -20.248  1.00  0.00     0.162 HD
BRANCH  32  34
HETATM   34  C23 UNL     1      52.315  21.551 -20.305  1.00  0.00     0.209 C
BRANCH  34  35
HETATM   35  C24 UNL     1      52.825  20.901 -21.514  1.00  0.00     0.166 A
HETATM   36  N7  UNL     1      53.800  19.963 -21.616  1.00  0.00    -0.325 N
HETATM   37  C25 UNL     1      53.933  19.652 -22.903  1.00  0.00     0.107 A
ATOM     38  H7  UNL     1      54.336  19.566 -20.844  1.00  0.00     0.169 HD
HETATM   39  N8  UNL     1      53.057  20.386 -23.591  1.00  0.00    -0.247 N
HETATM   40  O6  UNL     1      52.417  21.114 -22.740  1.00  0.00    -0.221 OA
ATOM     41  H8  UNL     1      52.919  20.374 -24.601  1.00  0.00     0.196 HD
BRANCH  37  42
HETATM   42  C26 UNL     1      54.895  18.648 -23.461  1.00  0.00     0.047 C
HETATM   43  C27 UNL     1      55.998  18.474 -22.439  1.00  0.00     0.017 C
HETATM   44  C28 UNL     1      55.419  19.203 -24.761  1.00  0.00     0.017 C
ENDBRANCH  37  42
ENDBRANCH  34  35
ENDBRANCH  32  34
ENDBRANCH  29  30
BRANCH  29  45
HETATM   45  C29 UNL     1      54.697  24.948 -19.306  1.00  0.00    -0.022 C
HETATM   46  C30 UNL     1      55.836  25.940 -19.094  1.00  0.00     0.017 C
HETATM   47  C31 UNL     1      53.412  25.502 -18.703  1.00  0.00     0.017 C
HETATM   48  C32 UNL     1      54.474  24.871 -20.790  1.00  0.00     0.017 C
ENDBRANCH  29  45
ENDBRANCH  27  29
ENDBRANCH  20  25
ENDBRANCH  18  20
ENDBRANCH   7  16
ENDBRANCH   4   7
ENDBRANCH   1   4
BRANCH   1  49
HETATM   49  C9  UNL     1      54.450  17.263 -12.542  1.00  0.00     0.178 C
HETATM   50  O2  UNL     1      55.509  16.892 -13.025  1.00  0.00    -0.294 OA
BRANCH  49  51
HETATM   51  C10 UNL     1      53.442  16.243 -12.147  1.00  0.00     0.013 C
HETATM   52  C11 UNL     1      53.795  14.945 -12.854  1.00  0.00     0.022 C
HETATM   53  C12 UNL     1      53.362  16.034 -10.667  1.00  0.00     0.022 C
HETATM   54  C13 UNL     1      52.049  16.665 -12.610  1.00  0.00     0.022 C
ENDBRANCH  49  51
ENDBRANCH   1  49
TORSDOF 19
ENDMDL