MODEL 4
REMARK VINA RESULT: -4.985340485      4.019     11.478
REMARK  19 active torsions:
REMARK  status: ('A' for Active; 'I' for Inactive)
REMARK       I    between atoms: N1_2  and  C2_4
REMARK    1  A    between atoms: C2_4  and  C3_6
REMARK    2  A    between atoms: C5_8  and  C6_9
REMARK    3  A    between atoms: C6_9  and  O2_10
REMARK    4  A    between atoms: C6_9  and  O3_12
REMARK    5  A    between atoms: O3_12  and  C7_13
REMARK    6  A    between atoms: C8_14  and  C9_15
REMARK    7  A    between atoms: C9_15  and  C10_16
REMARK    8  A    between atoms: C10_16  and  C11_17
REMARK    9  A    between atoms: C11_17  and  C12_18
REMARK   10  A    between atoms: C12_18  and  C13_19
REMARK   11  A    between atoms: C13_19  and  C14_20
REMARK   12  A    between atoms: C14_20  and  C15_21
REMARK   13  A    between atoms: C15_21  and  C16_22
REMARK   14  A    between atoms: C16_22  and  C17_23
REMARK   15  A    between atoms: C17_23  and  O4_24
REMARK   16  A    between atoms: C22_31  and  C23_32
REMARK   17  A    between atoms: C25_34  and  N2_35
REMARK       I    between atoms: N2_35  and  C26_37
REMARK   18  A    between atoms: C26_37  and  C27_39
REMARK   19  A    between atoms: C27_39  and  O7_40
ROOT
HETATM    1  C7  UNL     1      53.347  20.098 -24.199  1.00  0.00     0.162 C
HETATM    2  C8  UNL     1      52.334  19.167 -23.585  1.00  0.00     0.152 C
HETATM    3  O5  UNL     1      51.714  19.554 -22.461  1.00  0.00    -0.372 OA
HETATM    4  C18 UNL     1      51.741  20.855 -22.076  1.00  0.00     0.066 C
HETATM    5  C19 UNL     1      50.509  21.638 -22.528  1.00  0.00     0.047 C
HETATM    6  C20 UNL     1      51.684  20.845 -20.556  1.00  0.00     0.023 C
HETATM    7  C21 UNL     1      50.316  20.565 -20.023  1.00  0.00     0.013 C
HETATM    8  C22 UNL     1      52.236  22.185 -20.205  1.00  0.00     0.022 C
HETATM    9  C30 UNL     1      53.459  22.260 -21.095  1.00  0.00     0.016 C
HETATM   10  C31 UNL     1      52.989  21.604 -22.355  1.00  0.00     0.031 C
HETATM   11  C32 UNL     1      54.042  20.786 -23.041  1.00  0.00    -0.013 C
HETATM   12  C33 UNL     1      54.672  19.743 -22.156  1.00  0.00     0.018 C
HETATM   13  C34 UNL     1      55.138  21.720 -23.461  1.00  0.00     0.018 C
ENDROOT
BRANCH   8  14
HETATM   14  C23 UNL     1      52.679  22.277 -18.760  1.00  0.00     0.139 C
HETATM   15  C24 UNL     1      53.702  21.201 -18.519  1.00  0.00     0.068 C
HETATM   16  C25 UNL     1      54.907  21.932 -18.009  1.00  0.00     0.186 C
HETATM   17  C29 UNL     1      54.674  23.315 -18.481  1.00  0.00     0.282 C
HETATM   18  O8  UNL     1      55.540  24.182 -18.827  1.00  0.00    -0.263 OA
HETATM   19  O9  UNL     1      53.300  23.505 -18.479  1.00  0.00    -0.314 OA
BRANCH  16  20
HETATM   20  N2  UNL     1      55.057  21.869 -16.565  1.00  0.00    -0.345 N
HETATM   21  C26 UNL     1      55.812  20.914 -15.893  1.00  0.00     0.242 C
HETATM   22  O6  UNL     1      56.426  20.035 -16.567  1.00  0.00    -0.271 OA
ATOM     23  H2  UNL     1      54.577  22.573 -16.006  1.00  0.00     0.163 HD
BRANCH  21  24
HETATM   24  C27 UNL     1      55.944  20.869 -14.440  1.00  0.00     0.269 C
BRANCH  24  25
HETATM   25  O7  UNL     1      56.415  19.657 -13.994  1.00  0.00    -0.387 OA
HETATM   26  C28 UNL     1      55.584  19.068 -13.081  1.00  0.00     0.202 C
ENDBRANCH  24  25
ENDBRANCH  21  24
ENDBRANCH  16  20
ENDBRANCH   8  14
BRANCH   2  27
HETATM   27  C9  UNL     1      51.287  18.680 -24.565  1.00  0.00     0.034 C
BRANCH  27  28
HETATM   28  C10 UNL     1      51.749  17.302 -25.052  1.00  0.00     0.002 C
BRANCH  28  29
HETATM   29  C11 UNL     1      52.306  17.308 -26.428  1.00  0.00     0.000 C
BRANCH  29  30
HETATM   30  C12 UNL     1      53.548  16.446 -26.518  1.00  0.00     0.000 C
BRANCH  30  31
HETATM   31  C13 UNL     1      54.569  16.782 -25.485  1.00  0.00     0.000 C
BRANCH  31  32
HETATM   32  C14 UNL     1      55.729  15.798 -25.420  1.00  0.00     0.000 C
BRANCH  32  33
HETATM   33  C15 UNL     1      56.870  16.364 -24.650  1.00  0.00     0.002 C
BRANCH  33  34
HETATM   34  C16 UNL     1      56.574  17.413 -23.652  1.00  0.00     0.026 C
BRANCH  34  35
HETATM   35  C17 UNL     1      57.007  17.118 -22.265  1.00  0.00     0.164 C
BRANCH  35  36
HETATM   36  O4  UNL     1      58.188  17.744 -21.924  1.00  0.00    -0.401 OA
ATOM     37  H4  UNL     1      58.055  18.542 -21.426  1.00  0.00     0.209 HD
ENDBRANCH  35  36
ENDBRANCH  34  35
ENDBRANCH  33  34
ENDBRANCH  32  33
ENDBRANCH  31  32
ENDBRANCH  30  31
ENDBRANCH  29  30
ENDBRANCH  28  29
ENDBRANCH  27  28
ENDBRANCH   2  27
BRANCH   1  38
HETATM   38  O3  UNL     1      52.716  20.940 -25.069  1.00  0.00    -0.349 OA
BRANCH  38  39
HETATM   39  C6  UNL     1      53.208  20.942 -26.374  1.00  0.00     0.282 C
BRANCH  39  40
HETATM   40  C5  UNL     1      54.507  20.311 -26.506  1.00  0.00     0.045 C
HETATM   41  C3  UNL     1      55.053  19.820 -27.557  1.00  0.00     0.006 C
HETATM   42  C4  UNL     1      56.458  19.200 -27.465  1.00  0.00     0.054 C
BRANCH  41  43
HETATM   43  C2  UNL     1      54.490  19.780 -28.878  1.00  0.00     0.246 C
HETATM   44  N1  UNL     1      54.270  18.484 -29.507  1.00  0.00    -0.361 N
HETATM   45  C1  UNL     1      53.705  18.392 -30.831  1.00  0.00     0.149 C
ATOM     46  H1  UNL     1      54.520  17.632 -29.006  1.00  0.00     0.162 HD
HETATM   47  O1  UNL     1      54.147  20.747 -29.591  1.00  0.00    -0.268 OA
ENDBRANCH  41  43
ENDBRANCH  39  40
BRANCH  39  48
HETATM   48  O2  UNL     1      53.337  22.268 -26.844  1.00  0.00    -0.368 OA
ATOM     49  H2  UNL     1      52.527  22.719 -26.637  1.00  0.00     0.213 HD
ENDBRANCH  39  48
ENDBRANCH  38  39
ENDBRANCH   1  38
TORSDOF 19
ENDMDL