MODEL 4
REMARK VINA RESULT: -4.990746357      1.371      2.347
REMARK  20 active torsions:
REMARK  status: ('A' for Active; 'I' for Inactive)
REMARK    1  A    between atoms: O1_2  and  C2_3
REMARK    2  A    between atoms: C2_3  and  C3_4
REMARK    3  A    between atoms: C3_4  and  O2_5
REMARK    4  A    between atoms: O2_5  and  C4_6
REMARK    5  A    between atoms: C4_6  and  C5_7
REMARK    6  A    between atoms: C5_7  and  N1_8
REMARK    7  A    between atoms: N1_8  and  C6_9
REMARK    8  A    between atoms: N1_8  and  C12_21
REMARK    9  A    between atoms: C6_9  and  C7_10
REMARK   10  A    between atoms: C7_10  and  S1_11
REMARK   11  A    between atoms: S1_11  and  C8_12
REMARK       I    between atoms: C8_12  and  N2_14
REMARK   12  A    between atoms: N2_14  and  C9_16
REMARK   13  A    between atoms: C9_16  and  C10_17
REMARK   14  A    between atoms: C10_17  and  C11_18
REMARK   15  A    between atoms: C11_18  and  O4_19
REMARK   16  A    between atoms: C12_21  and  C13_22
REMARK   17  A    between atoms: C21_30  and  O5_31
REMARK   18  A    between atoms: C23_35  and  O7_36
REMARK   19  A    between atoms: C26_40  and  O8_41
REMARK   20  A    between atoms: O8_41  and  C27_42
ROOT
HETATM    1  C13 UNL     1      52.329  23.053 -19.145  1.00  0.00     0.140 C
HETATM    2  C14 UNL     1      53.600  22.731 -19.986  1.00  0.00     0.037 C
HETATM    3  C15 UNL     1      54.513  23.952 -19.737  1.00  0.00     0.030 C
HETATM    4  C16 UNL     1      55.467  23.828 -18.665  1.00  0.00    -0.022 C
HETATM    5  C17 UNL     1      55.477  24.528 -17.370  1.00  0.00    -0.064 C
HETATM    6  C18 UNL     1      54.520  25.664 -17.210  1.00  0.00     0.005 C
HETATM    7  C19 UNL     1      54.799  26.573 -16.022  1.00  0.00     0.022 C
HETATM    8  C20 UNL     1      54.873  26.641 -18.360  1.00  0.00     0.022 C
HETATM    9  C21 UNL     1      53.087  25.314 -17.163  1.00  0.00     0.161 C
HETATM   10  C22 UNL     1      52.650  23.931 -16.988  1.00  0.00     0.180 C
HETATM   11  O6  UNL     1      52.796  22.979 -17.912  1.00  0.00    -0.374 OA
HETATM   12  C23 UNL     1      53.178  23.254 -15.711  1.00  0.00     0.154 C
HETATM   13  C24 UNL     1      54.533  22.680 -15.915  1.00  0.00     0.032 C
HETATM   14  C25 UNL     1      54.875  21.820 -14.738  1.00  0.00     0.041 C
HETATM   15  C26 UNL     1      56.062  20.930 -15.004  1.00  0.00     0.132 C
HETATM   16  C29 UNL     1      56.555  21.211 -16.386  1.00  0.00     0.034 C
HETATM   17  C30 UNL     1      56.845  22.672 -16.594  1.00  0.00     0.016 C
HETATM   18  C31 UNL     1      55.668  23.584 -16.203  1.00  0.00    -0.014 C
HETATM   19  C32 UNL     1      56.094  24.218 -14.921  1.00  0.00     0.020 C
ENDROOT
BRANCH   1  20
HETATM   20  C12 UNL     1      51.309  22.103 -19.637  1.00  0.00     0.159 C
BRANCH  20  21
HETATM   21  N1  UNL     1      51.484  20.711 -19.291  1.00  0.00    -0.369 N
BRANCH  21  22
HETATM   22  C5  UNL     1      50.853  20.298 -18.122  1.00  0.00     0.089 C
BRANCH  22  23
HETATM   23  C4  UNL     1      49.459  20.632 -17.809  1.00  0.00     0.212 C
BRANCH  23  24
HETATM   24  O2  UNL     1      48.714  19.523 -17.342  1.00  0.00    -0.384 OA
BRANCH  24  25
HETATM   25  C3  UNL     1      48.645  18.482 -18.223  1.00  0.00     0.194 C
BRANCH  25  26
HETATM   26  C2  UNL     1      47.868  18.868 -19.487  1.00  0.00     0.193 C
BRANCH  26  27
HETATM   27  O1  UNL     1      48.434  18.344 -20.628  1.00  0.00    -0.394 OA
HETATM   28  C1  UNL     1      47.677  17.407 -21.281  1.00  0.00     0.201 C
ENDBRANCH  26  27
ENDBRANCH  25  26
ENDBRANCH  24  25
ENDBRANCH  23  24
ENDBRANCH  22  23
ENDBRANCH  21  22
BRANCH  21  29
HETATM   29  C6  UNL     1      51.540  19.899 -20.436  1.00  0.00     0.073 C
BRANCH  29  30
HETATM   30  C7  UNL     1      51.202  20.451 -21.766  1.00  0.00     0.128 C
BRANCH  30  31
HETATM   31  S1  UNL     1      51.796  19.337 -23.110  1.00  0.00    -0.064 SA
BRANCH  31  32
HETATM   32  C8  UNL     1      53.603  19.575 -23.194  1.00  0.00     0.283 C
HETATM   33  O3  UNL     1      54.048  20.629 -22.697  1.00  0.00    -0.260 OA
HETATM   34  N2  UNL     1      54.401  18.590 -23.797  1.00  0.00    -0.332 N
ATOM     35  H2  UNL     1      53.905  17.786 -24.180  1.00  0.00     0.168 HD
BRANCH  34  36
HETATM   36  C9  UNL     1      55.799  18.577 -23.938  1.00  0.00     0.067 C
BRANCH  36  37
HETATM   37  C10 UNL     1      56.618  17.460 -23.434  1.00  0.00     0.070 C
BRANCH  37  38
HETATM   38  C11 UNL     1      56.887  17.327 -21.978  1.00  0.00     0.169 C
BRANCH  38  39
HETATM   39  O4  UNL     1      58.274  17.621 -21.742  1.00  0.00    -0.401 OA
ATOM     40  H4  UNL     1      58.607  17.010 -21.095  1.00  0.00     0.209 HD
ENDBRANCH  38  39
ENDBRANCH  37  38
ENDBRANCH  36  37
ENDBRANCH  34  36
ENDBRANCH  31  32
ENDBRANCH  30  31
ENDBRANCH  29  30
ENDBRANCH  21  29
ENDBRANCH  20  21
ENDBRANCH   1  20
BRANCH   9  41
HETATM   41  O5  UNL     1      52.411  26.073 -16.157  1.00  0.00    -0.392 OA
ATOM     42  H5  UNL     1      52.900  26.065 -15.343  1.00  0.00     0.210 HD
ENDBRANCH   9  41
BRANCH  12  43
HETATM   43  O7  UNL     1      52.899  23.907 -14.561  1.00  0.00    -0.392 OA
ATOM     44  H7  UNL     1      52.371  23.418 -13.941  1.00  0.00     0.210 HD
ENDBRANCH  12  43
BRANCH  15  45
HETATM   45  O8  UNL     1      55.711  19.558 -14.898  1.00  0.00    -0.316 OA
BRANCH  45  46
HETATM   46  C27 UNL     1      55.529  18.918 -13.689  1.00  0.00     0.255 C
HETATM   47  C28 UNL     1      54.196  18.367 -13.294  1.00  0.00     0.126 C
HETATM   48  O9  UNL     1      56.491  18.792 -12.897  1.00  0.00    -0.266 OA
ENDBRANCH  45  46
ENDBRANCH  15  45
TORSDOF 20
ENDMDL