MODEL 5
REMARK VINA RESULT: -5.431500993      3.589      9.796
REMARK  20 active torsions:
REMARK  status: ('A' for Active; 'I' for Inactive)
REMARK    1  A    between atoms: C2_2  and  C3_3
REMARK    2  A    between atoms: C3_3  and  S1_4
REMARK    3  A    between atoms: S1_4  and  C4_5
REMARK    4  A    between atoms: C7_8  and  C8_9
REMARK    5  A    between atoms: C8_9  and  N1_10
REMARK    6  A    between atoms: N1_10  and  C9_12
REMARK    7  A    between atoms: C10_15  and  N3_16
REMARK    8  A    between atoms: N3_16  and  C11_18
REMARK    9  A    between atoms: C11_18  and  C12_19
REMARK   10  A    between atoms: C12_19  and  O1_20
REMARK   11  A    between atoms: C15_25  and  N5_26
REMARK   12  A    between atoms: N5_26  and  C16_28
REMARK   13  A    between atoms: C16_28  and  C17_29
REMARK   14  A    between atoms: C17_29  and  N6_30
REMARK   15  A    between atoms: N7_33  and  C20_34
REMARK   16  A    between atoms: C20_34  and  C21_35
REMARK   17  A    between atoms: C21_35  and  C22_36
REMARK   18  A    between atoms: C22_36  and  N8_37
REMARK   19  A    between atoms: N8_37  and  C24_39
REMARK   20  A    between atoms: C29_46  and  O2_47
ROOT
HETATM    1  C9  UNL     1      52.866  21.203 -20.254  1.00  0.00     0.681 A
HETATM    2  N2  UNL     1      51.827  20.373 -20.510  1.00  0.00    -0.175 N
ATOM      3  H2  UNL     1      51.171  20.204 -19.748  1.00  0.00     0.186 HD
HETATM    4  C10 UNL     1      51.585  19.763 -21.657  1.00  0.00     0.148 A
HETATM    5  C14 UNL     1      52.477  19.988 -22.712  1.00  0.00     0.138 A
HETATM    6  N4  UNL     1      52.524  19.542 -23.966  1.00  0.00    -0.184 N
ATOM      7  H4  UNL     1      51.855  18.905 -24.399  1.00  0.00     0.184 HD
HETATM    8  C15 UNL     1      53.607  20.075 -24.564  1.00  0.00     0.682 A
HETATM    9  N7  UNL     1      54.224  20.859 -23.651  1.00  0.00    -0.165 N
HETATM   10  C30 UNL     1      53.539  20.824 -22.481  1.00  0.00     0.170 A
HETATM   11  N10 UNL     1      53.712  21.404 -21.281  1.00  0.00    -0.173 N
ATOM     12  H10 UNL     1      54.514  22.020 -21.143  1.00  0.00     0.186 HD
ENDROOT
BRANCH   9  13
HETATM   13  C20 UNL     1      55.441  21.622 -23.908  1.00  0.00     0.151 C
BRANCH  13  14
HETATM   14  C21 UNL     1      55.058  23.062 -23.918  1.00  0.00     0.041 C
BRANCH  14  15
HETATM   15  C22 UNL     1      55.899  23.971 -23.096  1.00  0.00     0.124 C
BRANCH  15  16
HETATM   16  N8  UNL     1      55.225  25.130 -22.610  1.00  0.00    -0.383 N
HETATM   17  C23 UNL     1      54.636  26.008 -23.640  1.00  0.00     0.150 C
BRANCH  16  18
HETATM   18  C24 UNL     1      55.078  25.520 -21.280  1.00  0.00     0.066 A
HETATM   19  C25 UNL     1      56.048  26.292 -20.638  1.00  0.00     0.049 A
HETATM   20  C26 UNL     1      55.907  26.687 -19.324  1.00  0.00     0.090 A
HETATM   21  N9  UNL     1      54.816  26.336 -18.617  1.00  0.00    -0.367 N
HETATM   22  C27 UNL     1      53.866  25.595 -19.203  1.00  0.00     0.041 A
ATOM     23  H9  UNL     1      54.714  26.631 -17.646  1.00  0.00     0.165 HD
HETATM   24  C28 UNL     1      52.668  25.213 -18.418  1.00  0.00     0.071 C
HETATM   25  C29 UNL     1      53.991  25.184 -20.532  1.00  0.00     0.114 A
BRANCH  25  26
HETATM   26  O2  UNL     1      52.967  24.428 -21.039  1.00  0.00    -0.357 OA
ATOM     27  H2  UNL     1      52.370  23.949 -20.477  1.00  0.00     0.218 HD
ENDBRANCH  25  26
ENDBRANCH  16  18
ENDBRANCH  15  16
ENDBRANCH  14  15
ENDBRANCH  13  14
ENDBRANCH   9  13
BRANCH   8  28
HETATM   28  N5  UNL     1      53.993  19.875 -25.800  1.00  0.00    -0.224 N
ATOM     29  H5  UNL     1      53.932  20.651 -26.459  1.00  0.00     0.177 HD
BRANCH  28  30
HETATM   30  C16 UNL     1      54.495  18.627 -26.269  1.00  0.00     0.168 C
BRANCH  30  31
HETATM   31  C17 UNL     1      55.864  18.294 -25.720  1.00  0.00     0.291 C
BRANCH  31  32
HETATM   32  N6  UNL     1      55.811  17.364 -24.632  1.00  0.00     0.081 N
HETATM   33  C18 UNL     1      56.694  16.245 -24.999  1.00  0.00     0.309 C
HETATM   34  C19 UNL     1      56.389  17.905 -23.408  1.00  0.00     0.309 C
ENDBRANCH  31  32
ENDBRANCH  30  31
ENDBRANCH  28  30
ENDBRANCH   8  28
BRANCH   4  35
HETATM   35  N3  UNL     1      50.567  18.979 -21.843  1.00  0.00    -0.372 N
ATOM     36  H3  UNL     1      50.723  18.056 -22.248  1.00  0.00     0.161 HD
BRANCH  35  37
HETATM   37  C11 UNL     1      49.237  19.367 -21.496  1.00  0.00     0.147 C
BRANCH  37  38
HETATM   38  C12 UNL     1      48.691  18.507 -20.354  1.00  0.00     0.186 C
BRANCH  38  39
HETATM   39  O1  UNL     1      49.590  18.507 -19.287  1.00  0.00    -0.394 OA
HETATM   40  C13 UNL     1      49.167  19.290 -18.241  1.00  0.00     0.201 C
ENDBRANCH  38  39
ENDBRANCH  37  38
ENDBRANCH  35  37
ENDBRANCH   4  35
BRANCH   1  41
HETATM   41  N1  UNL     1      53.035  21.764 -19.098  1.00  0.00    -0.222 N
ATOM     42  H1  UNL     1      52.240  22.095 -18.553  1.00  0.00     0.178 HD
BRANCH  41  43
HETATM   43  C8  UNL     1      54.377  21.906 -18.610  1.00  0.00     0.176 C
BRANCH  43  44
HETATM   44  C7  UNL     1      54.605  21.244 -17.318  1.00  0.00    -0.040 A
HETATM   45  C6  UNL     1      53.593  21.037 -16.405  1.00  0.00     0.010 A
HETATM   46  C5  UNL     1      53.855  20.402 -15.189  1.00  0.00     0.019 A
HETATM   47  C4  UNL     1      55.118  19.962 -14.855  1.00  0.00     0.000 A
HETATM   48  C32 UNL     1      56.126  20.171 -15.772  1.00  0.00     0.019 A
HETATM   49  C31 UNL     1      55.867  20.804 -16.983  1.00  0.00     0.010 A
BRANCH  47  50
HETATM   50  S1  UNL     1      55.431  19.148 -13.282  1.00  0.00    -0.130 SA
BRANCH  50  51
HETATM   51  C3  UNL     1      54.182  17.870 -13.007  1.00  0.00     0.079 C
BRANCH  51  52
HETATM   52  C2  UNL     1      54.887  16.534 -12.964  1.00  0.00     0.006 C
HETATM   53  C1  UNL     1      53.839  15.474 -12.677  1.00  0.00     0.006 C
ENDBRANCH  51  52
ENDBRANCH  50  51
ENDBRANCH  47  50
ENDBRANCH  43  44
ENDBRANCH  41  43
ENDBRANCH   1  41
TORSDOF 20
ENDMDL