MODEL 2
REMARK VINA RESULT: -5.858829537      2.778      6.032
REMARK  17 active torsions:
REMARK  status: ('A' for Active; 'I' for Inactive)
REMARK    1  A    between atoms: C2_2  and  C3_3
REMARK    2  A    between atoms: C3_3  and  C5_5
REMARK    3  A    between atoms: C5_5  and  C6_6
REMARK    4  A    between atoms: C6_6  and  C7_7
REMARK    5  A    between atoms: C7_7  and  C8_8
REMARK    6  A    between atoms: C8_8  and  C9_9
REMARK    7  A    between atoms: C9_9  and  N1_10
REMARK    8  A    between atoms: N1_10  and  C10_11
REMARK    9  A    between atoms: N1_10  and  C30_42
REMARK   10  A    between atoms: C10_11  and  C11_12
REMARK   11  A    between atoms: C11_12  and  C12_13
REMARK   12  A    between atoms: C12_13  and  N2_14
REMARK   13  A    between atoms: N2_14  and  C13_17
REMARK   14  A    between atoms: C13_17  and  C14_18
REMARK   15  A    between atoms: C14_18  and  C15_19
REMARK   16  A    between atoms: C15_19  and  N3_20
REMARK   17  A    between atoms: C32_48  and  O6_49
ROOT
HETATM    1  N3  UNL     1      51.769  22.592 -17.253  1.00  0.00    -0.342 N
HETATM    2  C16 UNL     1      51.515  22.634 -15.857  1.00  0.00     0.230 C
HETATM    3  O1  UNL     1      50.444  22.401 -15.285  1.00  0.00    -0.273 OA
HETATM    4  C17 UNL     1      52.787  23.013 -15.207  1.00  0.00     0.126 A
HETATM    5  C18 UNL     1      53.890  22.031 -15.623  1.00  0.00    -0.035 A
HETATM    6  C19 UNL     1      54.377  20.839 -15.341  1.00  0.00     0.022 C
HETATM    7  C20 UNL     1      53.830  19.944 -14.286  1.00  0.00     0.060 C
HETATM    8  C21 UNL     1      55.493  20.357 -16.087  1.00  0.00     0.095 C
HETATM    9  N4  UNL     1      56.401  19.979 -16.710  1.00  0.00    -0.192 NA
HETATM   10  C22 UNL     1      53.732  23.311 -16.271  1.00  0.00     0.058 A
HETATM   11  C23 UNL     1      52.883  23.523 -17.486  1.00  0.00     0.126 C
HETATM   12  C24 UNL     1      52.295  24.889 -17.444  1.00  0.00     0.003 C
HETATM   13  C25 UNL     1      52.934  25.880 -16.849  1.00  0.00     0.050 C
HETATM   14  C26 UNL     1      54.232  25.729 -16.200  1.00  0.00     0.177 C
HETATM   15  O2  UNL     1      54.881  26.680 -15.722  1.00  0.00    -0.291 OA
HETATM   16  C27 UNL     1      54.798  24.378 -16.107  1.00  0.00     0.201 C
HETATM   17  C28 UNL     1      56.003  24.123 -16.923  1.00  0.00     0.251 C
HETATM   18  O3  UNL     1      56.255  23.935 -18.158  1.00  0.00    -0.271 OA
HETATM   19  N5  UNL     1      56.796  24.171 -15.741  1.00  0.00    -0.295 N
ATOM     20  H5  UNL     1      57.797  24.242 -15.557  1.00  0.00     0.171 HD
HETATM   21  C29 UNL     1      55.632  24.082 -14.914  1.00  0.00     0.251 C
HETATM   22  O4  UNL     1      55.363  23.857 -13.713  1.00  0.00    -0.271 OA
ENDROOT
BRANCH   1  23
HETATM   23  C15 UNL     1      51.123  21.831 -18.275  1.00  0.00     0.128 C
BRANCH  23  24
HETATM   24  C14 UNL     1      51.141  20.349 -18.109  1.00  0.00     0.047 C
BRANCH  24  25
HETATM   25  C13 UNL     1      50.760  19.568 -19.325  1.00  0.00     0.234 C
BRANCH  25  26
HETATM   26  N2  UNL     1      51.804  19.641 -20.355  1.00  0.00    -0.075 N
ATOM     27  H22 UNL     1      52.415  18.824 -20.340  1.00  0.00     0.277 HD
ATOM     28  H21 UNL     1      52.504  20.352 -20.142  1.00  0.00     0.277 HD
BRANCH  26  29
HETATM   29  C12 UNL     1      51.194  19.846 -21.663  1.00  0.00     0.234 C
BRANCH  29  30
HETATM   30  C11 UNL     1      52.147  19.396 -22.739  1.00  0.00     0.047 C
BRANCH  30  31
HETATM   31  C10 UNL     1      53.558  19.688 -22.231  1.00  0.00     0.125 C
BRANCH  31  32
HETATM   32  N1  UNL     1      54.520  19.631 -23.284  1.00  0.00    -0.371 N
BRANCH  32  33
HETATM   33  C9  UNL     1      54.594  20.783 -24.210  1.00  0.00     0.127 C
BRANCH  33  34
HETATM   34  C8  UNL     1      55.632  21.760 -23.782  1.00  0.00     0.046 C
BRANCH  34  35
HETATM   35  C7  UNL     1      55.243  23.166 -23.778  1.00  0.00    -0.029 C
BRANCH  35  36
HETATM   36  C6  UNL     1      55.198  24.014 -22.600  1.00  0.00    -0.030 C
BRANCH  36  37
HETATM   37  C5  UNL     1      55.650  25.412 -22.597  1.00  0.00     0.031 C
BRANCH  37  38
HETATM   38  C3  UNL     1      55.067  26.027 -21.285  1.00  0.00    -0.016 C
HETATM   39  C4  UNL     1      54.106  25.105 -20.619  1.00  0.00     0.010 C
BRANCH  38  40
HETATM   40  C2  UNL     1      56.198  26.461 -20.400  1.00  0.00    -0.000 C
HETATM   41  C1  UNL     1      55.702  27.299 -19.254  1.00  0.00     0.005 C
ENDBRANCH  38  40
ENDBRANCH  37  38
ENDBRANCH  36  37
ENDBRANCH  35  36
ENDBRANCH  34  35
ENDBRANCH  33  34
ENDBRANCH  32  33
BRANCH  32  42
HETATM   42  C30 UNL     1      55.435  18.566 -23.544  1.00  0.00     0.128 A
HETATM   43  S1  UNL     1      55.699  17.772 -25.070  1.00  0.00    -0.007 SA
HETATM   44  C31 UNL     1      56.897  16.670 -24.572  1.00  0.00     0.292 A
HETATM   45  O5  UNL     1      57.525  15.776 -25.250  1.00  0.00    -0.260 OA
HETATM   46  N6  UNL     1      57.045  16.947 -23.282  1.00  0.00    -0.296 N
HETATM   47  C32 UNL     1      56.320  17.894 -22.752  1.00  0.00     0.178 A
ATOM     48  H6  UNL     1      57.714  16.428 -22.715  1.00  0.00     0.171 HD
BRANCH  47  49
HETATM   49  O6  UNL     1      56.440  18.232 -21.368  1.00  0.00    -0.344 OA
ATOM     50  H6  UNL     1      56.191  17.603 -20.702  1.00  0.00     0.219 HD
ENDBRANCH  47  49
ENDBRANCH  32  42
ENDBRANCH  31  32
ENDBRANCH  30  31
ENDBRANCH  29  30
ENDBRANCH  26  29
ENDBRANCH  25  26
ENDBRANCH  24  25
ENDBRANCH  23  24
ENDBRANCH   1  23
TORSDOF 17
ENDMDL