MODEL 4
REMARK VINA RESULT: -4.722319722      2.800      9.637
REMARK  23 active torsions:
REMARK  status: ('A' for Active; 'I' for Inactive)
REMARK    1  A    between atoms: C2_2  and  C3_3
REMARK    2  A    between atoms: C3_3  and  C6_6
REMARK    3  A    between atoms: C6_6  and  C7_7
REMARK    4  A    between atoms: C7_7  and  C9_9
REMARK    5  A    between atoms: C9_9  and  O1_10
REMARK    6  A    between atoms: C9_9  and  C11_14
REMARK    7  A    between atoms: O1_10  and  C10_11
REMARK    8  A    between atoms: C11_14  and  C13_16
REMARK    9  A    between atoms: C13_16  and  C14_17
REMARK   10  A    between atoms: C14_17  and  C15_18
REMARK   11  A    between atoms: C15_18  and  O3_19
REMARK   12  A    between atoms: C15_18  and  C18_23
REMARK   13  A    between atoms: O3_19  and  C16_20
REMARK   14  A    between atoms: C18_23  and  O5_25
REMARK   15  A    between atoms: O5_25  and  C20_26
REMARK   16  A    between atoms: C20_26  and  C21_28
REMARK   17  A    between atoms: C21_28  and  O7_29
REMARK   18  A    between atoms: C21_28  and  C22_31
REMARK   19  A    between atoms: C22_31  and  C23_32
REMARK   20  A    between atoms: C22_31  and  C27_43
REMARK       I    between atoms: C23_32  and  N2_34
REMARK   21  A    between atoms: N2_34  and  C24_36
REMARK   22  A    between atoms: C27_43  and  O9_46
REMARK   23  A    between atoms: O9_46  and  C30_47
ROOT
HETATM    1  O5  UNL     1      52.806  21.888 -21.035  1.00  0.00    -0.311 OA
ENDROOT
BRANCH   1   2
HETATM    2  C18 UNL     1      53.579  21.159 -21.936  1.00  0.00     0.161 C
HETATM    3  C19 UNL     1      52.973  19.915 -22.473  1.00  0.00     0.043 C
BRANCH   2   4
HETATM    4  C15 UNL     1      54.079  22.018 -23.127  1.00  0.00     0.183 C
BRANCH   4   5
HETATM    5  C14 UNL     1      54.964  21.247 -23.987  1.00  0.00     0.004 C
BRANCH   5   6
HETATM    6  C13 UNL     1      55.392  21.360 -25.190  1.00  0.00    -0.021 C
BRANCH   6   7
HETATM    7  C11 UNL     1      55.094  20.697 -26.466  1.00  0.00     0.034 C
HETATM    8  C12 UNL     1      55.404  21.560 -27.627  1.00  0.00     0.017 C
BRANCH   7   9
HETATM    9  C9  UNL     1      55.828  19.352 -26.552  1.00  0.00     0.144 C
BRANCH   9  10
HETATM   10  C7  UNL     1      54.901  18.222 -26.274  1.00  0.00     0.016 C
HETATM   11  C8  UNL     1      53.440  18.599 -26.501  1.00  0.00     0.013 C
BRANCH  10  12
HETATM   12  C6  UNL     1      55.012  17.730 -24.845  1.00  0.00     0.045 C
BRANCH  12  13
HETATM   13  C3  UNL     1      56.156  16.873 -24.555  1.00  0.00    -0.063 C
HETATM   14  C4  UNL     1      56.823  17.072 -23.423  1.00  0.00    -0.024 C
HETATM   15  C5  UNL     1      56.523  18.079 -22.406  1.00  0.00     0.036 C
BRANCH  13  16
HETATM   16  C2  UNL     1      56.602  15.830 -25.442  1.00  0.00    -0.004 C
HETATM   17  C1  UNL     1      57.825  15.476 -25.731  1.00  0.00     0.012 C
ENDBRANCH  13  16
ENDBRANCH  12  13
ENDBRANCH  10  12
ENDBRANCH   9  10
BRANCH   9  18
HETATM   18  O1  UNL     1      56.278  19.229 -27.887  1.00  0.00    -0.300 OA
BRANCH  18  19
HETATM   19  C10 UNL     1      57.362  18.504 -28.294  1.00  0.00     0.373 C
HETATM   20  N1  UNL     1      58.639  19.121 -28.262  1.00  0.00    -0.032 NA
HETATM   21  O2  UNL     1      57.189  17.323 -28.679  1.00  0.00    -0.242 OA
ENDBRANCH  18  19
ENDBRANCH   9  18
ENDBRANCH   7   9
ENDBRANCH   6   7
ENDBRANCH   5   6
ENDBRANCH   4   5
BRANCH   4  22
HETATM   22  O3  UNL     1      54.910  22.990 -22.453  1.00  0.00    -0.310 OA
BRANCH  22  23
HETATM   23  C16 UNL     1      54.829  24.337 -22.638  1.00  0.00     0.255 C
HETATM   24  C17 UNL     1      55.801  24.962 -23.592  1.00  0.00     0.126 C
HETATM   25  O4  UNL     1      53.962  24.996 -22.017  1.00  0.00    -0.266 OA
ENDBRANCH  22  23
ENDBRANCH   4  22
ENDBRANCH   2   4
ENDBRANCH   1   2
BRANCH   1  26
HETATM   26  C20 UNL     1      52.998  21.889 -19.670  1.00  0.00     0.289 C
HETATM   27  O6  UNL     1      51.940  21.833 -18.969  1.00  0.00    -0.262 OA
BRANCH  26  28
HETATM   28  C21 UNL     1      54.302  21.951 -18.973  1.00  0.00     0.233 C
BRANCH  28  29
HETATM   29  O7  UNL     1      54.662  20.673 -18.497  1.00  0.00    -0.385 OA
ATOM     30  H7  UNL     1      55.581  20.659 -18.255  1.00  0.00     0.210 HD
ENDBRANCH  28  29
BRANCH  28  31
HETATM   31  C22 UNL     1      54.097  22.890 -17.789  1.00  0.00     0.151 C
BRANCH  31  32
HETATM   32  C23 UNL     1      54.008  24.269 -18.306  1.00  0.00     0.233 C
HETATM   33  O8  UNL     1      53.003  24.998 -18.051  1.00  0.00    -0.273 OA
HETATM   34  N2  UNL     1      55.012  24.869 -19.109  1.00  0.00    -0.312 N
ATOM     35  H2  UNL     1      55.387  24.329 -19.889  1.00  0.00     0.170 HD
BRANCH  34  36
HETATM   36  C24 UNL     1      55.474  26.043 -18.914  1.00  0.00     0.123 A
HETATM   37  C25 UNL     1      56.106  26.833 -19.835  1.00  0.00     0.068 A
HETATM   38  C26 UNL     1      56.451  28.040 -19.224  1.00  0.00     0.111 A
HETATM   39  N3  UNL     1      56.019  27.930 -17.973  1.00  0.00    -0.310 N
HETATM   40  N4  UNL     1      55.440  26.768 -17.758  1.00  0.00    -0.286 N
ATOM     41  H3  UNL     1      56.123  28.657 -17.265  1.00  0.00     0.186 HD
ATOM     42  H4  UNL     1      55.034  26.460 -16.874  1.00  0.00     0.188 HD
ENDBRANCH  34  36
ENDBRANCH  31  32
BRANCH  31  43
HETATM   43  C27 UNL     1      55.083  22.688 -16.686  1.00  0.00     0.078 C
HETATM   44  C28 UNL     1      54.787  23.716 -15.613  1.00  0.00     0.047 C
HETATM   45  C29 UNL     1      56.482  22.814 -17.180  1.00  0.00     0.047 C
BRANCH  43  46
HETATM   46  O9  UNL     1      54.811  21.424 -16.105  1.00  0.00    -0.310 OA
BRANCH  46  47
HETATM   47  C30 UNL     1      55.731  20.597 -15.524  1.00  0.00     0.255 C
HETATM   48  C31 UNL     1      55.896  20.486 -14.043  1.00  0.00     0.126 C
HETATM   49  O10 UNL     1      56.471  19.898 -16.243  1.00  0.00    -0.266 OA
ENDBRANCH  46  47
ENDBRANCH  43  46
ENDBRANCH  31  43
ENDBRANCH  28  31
ENDBRANCH  26  28
ENDBRANCH   1  26
TORSDOF 23
ENDMDL