MODEL 4
REMARK VINA RESULT: -5.152225505      2.420      3.928
REMARK  21 active torsions:
REMARK  status: ('A' for Active; 'I' for Inactive)
REMARK    1  A    between atoms: C5_5  and  C6_6
REMARK    2  A    between atoms: C6_6  and  C7_7
REMARK    3  A    between atoms: C7_7  and  C8_8
REMARK    4  A    between atoms: C8_8  and  C9_10
REMARK    5  A    between atoms: C9_10  and  C10_12
REMARK    6  A    between atoms: C10_12  and  C12_14
REMARK    7  A    between atoms: C12_14  and  C14_16
REMARK    8  A    between atoms: C14_16  and  O3_17
REMARK    9  A    between atoms: C14_16  and  C15_19
REMARK   10  A    between atoms: C15_19  and  O4_20
REMARK   11  A    between atoms: C15_19  and  C17_22
REMARK   12  A    between atoms: C17_22  and  C19_24
REMARK   13  A    between atoms: C19_24  and  C21_26
REMARK   14  A    between atoms: C21_26  and  O5_27
REMARK   15  A    between atoms: C21_26  and  C22_29
REMARK   16  A    between atoms: C22_29  and  O6_30
REMARK   17  A    between atoms: C22_29  and  C23_32
REMARK   18  A    between atoms: C24_33  and  C25_34
REMARK   19  A    between atoms: C32_42  and  C33_43
REMARK   20  A    between atoms: C33_43  and  O8_44
REMARK   21  A    between atoms: O8_44  and  C34_45
ROOT
HETATM    1  C1  UNL     1      57.227  17.390 -21.835  1.00  0.00     0.017 C
HETATM    2  C2  UNL     1      56.711  17.533 -22.906  1.00  0.00    -0.083 C
HETATM    3  C3  UNL     1      56.077  17.724 -24.184  1.00  0.00    -0.013 C
HETATM    4  C4  UNL     1      56.193  16.675 -25.203  1.00  0.00     0.057 C
HETATM    5  C5  UNL     1      55.415  18.819 -24.407  1.00  0.00    -0.011 C
ENDROOT
BRANCH   5   6
HETATM    6  C6  UNL     1      55.219  19.945 -23.472  1.00  0.00     0.036 C
BRANCH   6   7
HETATM    7  C7  UNL     1      53.871  19.927 -22.855  1.00  0.00     0.091 C
BRANCH   7   8
HETATM    8  C8  UNL     1      53.479  21.260 -22.350  1.00  0.00     0.195 C
HETATM    9  O1  UNL     1      53.653  21.471 -21.136  1.00  0.00    -0.289 OA
BRANCH   8  10
HETATM   10  C9  UNL     1      52.936  22.229 -23.229  1.00  0.00     0.199 C
HETATM   11  O2  UNL     1      51.686  22.133 -23.548  1.00  0.00    -0.289 OA
BRANCH  10  12
HETATM   12  C10 UNL     1      53.628  23.401 -23.873  1.00  0.00     0.066 C
HETATM   13  C11 UNL     1      54.262  22.908 -25.147  1.00  0.00     0.018 C
BRANCH  12  14
HETATM   14  C12 UNL     1      54.461  24.173 -22.936  1.00  0.00     0.024 C
HETATM   15  C13 UNL     1      55.955  24.002 -23.054  1.00  0.00     0.013 C
BRANCH  14  16
HETATM   16  C14 UNL     1      53.998  25.470 -22.385  1.00  0.00     0.152 C
BRANCH  16  17
HETATM   17  O3  UNL     1      53.384  26.124 -23.519  1.00  0.00    -0.393 OA
ATOM     18  H3  UNL     1      52.454  25.983 -23.384  1.00  0.00     0.210 HD
ENDBRANCH  16  17
BRANCH  16  19
HETATM   19  C15 UNL     1      53.244  25.682 -21.190  1.00  0.00     0.154 C
BRANCH  19  20
HETATM   20  O4  UNL     1      52.633  24.597 -20.579  1.00  0.00    -0.388 OA
HETATM   21  C16 UNL     1      51.247  24.588 -20.815  1.00  0.00     0.202 C
ENDBRANCH  19  20
BRANCH  19  22
HETATM   22  C17 UNL     1      54.008  26.439 -20.066  1.00  0.00     0.019 C
HETATM   23  C18 UNL     1      53.621  27.847 -20.058  1.00  0.00     0.013 C
BRANCH  22  24
HETATM   24  C19 UNL     1      55.364  25.991 -19.793  1.00  0.00     0.019 C
HETATM   25  C20 UNL     1      56.526  26.915 -20.016  1.00  0.00     0.013 C
BRANCH  24  26
HETATM   26  C21 UNL     1      55.596  25.347 -18.458  1.00  0.00     0.154 C
BRANCH  26  27
HETATM   27  O5  UNL     1      54.817  25.817 -17.424  1.00  0.00    -0.392 OA
ATOM     28  H5  UNL     1      53.960  25.415 -17.339  1.00  0.00     0.210 HD
ENDBRANCH  26  27
BRANCH  26  29
HETATM   29  C22 UNL     1      55.710  23.843 -18.483  1.00  0.00     0.169 C
BRANCH  29  30
HETATM   30  O6  UNL     1      54.683  23.266 -19.243  1.00  0.00    -0.389 OA
ATOM     31  H6  UNL     1      54.349  22.478 -18.830  1.00  0.00     0.210 HD
ENDBRANCH  29  30
BRANCH  29  32
HETATM   32  C23 UNL     1      55.579  23.264 -17.115  1.00  0.00     0.005 C
HETATM   33  C24 UNL     1      54.736  22.280 -16.841  1.00  0.00     0.003 C
BRANCH  33  34
HETATM   34  C25 UNL     1      54.641  21.728 -15.437  1.00  0.00     0.144 C
HETATM   35  C26 UNL     1      54.720  20.209 -15.603  1.00  0.00     0.039 C
HETATM   36  C27 UNL     1      54.921  19.577 -14.237  1.00  0.00     0.037 C
HETATM   37  C28 UNL     1      53.917  20.063 -13.253  1.00  0.00     0.151 A
HETATM   38  O7  UNL     1      54.313  19.732 -11.899  1.00  0.00    -0.375 OA
HETATM   39  C29 UNL     1      54.214  21.091 -12.376  1.00  0.00     0.157 A
HETATM   40  C30 UNL     1      55.493  21.854 -12.454  1.00  0.00     0.044 C
HETATM   41  C31 UNL     1      55.851  22.542 -11.154  1.00  0.00     0.015 C
HETATM   42  C32 UNL     1      55.515  22.870 -13.587  1.00  0.00     0.153 C
HETATM   43  O10 UNL     1      55.716  22.219 -14.763  1.00  0.00    -0.374 OA
BRANCH  42  44
HETATM   44  C33 UNL     1      54.395  23.847 -13.532  1.00  0.00     0.212 C
BRANCH  44  45
HETATM   45  O8  UNL     1      54.781  25.008 -14.279  1.00  0.00    -0.304 OA
BRANCH  45  46
HETATM   46  C34 UNL     1      55.995  25.632 -14.030  1.00  0.00     0.372 C
HETATM   47  N1  UNL     1      56.407  26.048 -12.747  1.00  0.00    -0.032 NA
HETATM   48  O9  UNL     1      56.756  25.831 -15.009  1.00  0.00    -0.242 OA
ENDBRANCH  45  46
ENDBRANCH  44  45
ENDBRANCH  42  44
ENDBRANCH  33  34
ENDBRANCH  29  32
ENDBRANCH  26  29
ENDBRANCH  24  26
ENDBRANCH  22  24
ENDBRANCH  19  22
ENDBRANCH  16  19
ENDBRANCH  14  16
ENDBRANCH  12  14
ENDBRANCH  10  12
ENDBRANCH   8  10
ENDBRANCH   7   8
ENDBRANCH   6   7
ENDBRANCH   5   6
TORSDOF 21
ENDMDL