MODEL 1
REMARK VINA RESULT: -6.468952670      0.000      0.000
REMARK  17 active torsions:
REMARK  status: ('A' for Active; 'I' for Inactive)
REMARK    1  A    between atoms: C3_4  and  C4_5
REMARK    2  A    between atoms: C4_5  and  C5_6
REMARK    3  A    between atoms: C5_6  and  C6_7
REMARK    4  A    between atoms: C6_7  and  C7_8
REMARK    5  A    between atoms: C7_8  and  C8_9
REMARK    6  A    between atoms: C9_14  and  N4_15
REMARK    7  A    between atoms: C10_17  and  C11_18
REMARK    8  A    between atoms: C11_18  and  C12_19
REMARK    9  A    between atoms: C12_19  and  N5_20
REMARK       I    between atoms: N5_20  and  C13_22
REMARK   10  A    between atoms: C13_22  and  C14_24
REMARK   11  A    between atoms: C16_27  and  C17_28
REMARK   12  A    between atoms: C17_28  and  C18_29
REMARK   13  A    between atoms: C18_29  and  C19_30
REMARK   14  A    between atoms: C19_30  and  C20_31
REMARK   15  A    between atoms: C20_31  and  N6_32
REMARK   16  A    between atoms: C20_31  and  C21_36
REMARK   17  A    between atoms: C21_36  and  C22_37
ROOT
HETATM    1  N5  UNL     1      51.872  20.373 -17.950  1.00  0.00    -0.355 N
ATOM      2  H5  UNL     1      52.548  19.827 -18.484  1.00  0.00     0.162 HD
HETATM    3  C13 UNL     1      52.363  21.326 -17.023  1.00  0.00     0.268 C
HETATM    4  O1  UNL     1      51.503  21.982 -16.384  1.00  0.00    -0.266 OA
ENDROOT
BRANCH   1   5
HETATM    5  C12 UNL     1      50.482  20.133 -18.177  1.00  0.00     0.128 C
BRANCH   5   6
HETATM    6  C11 UNL     1      50.307  19.014 -19.221  1.00  0.00     0.064 C
BRANCH   6   7
HETATM    7  C10 UNL     1      49.802  19.597 -20.503  1.00  0.00     0.064 C
HETATM    8  N4  UNL     1      50.629  19.726 -21.580  1.00  0.00    -0.350 N
ATOM      9  H4  UNL     1      50.073  20.040 -22.376  1.00  0.00     0.166 HD
BRANCH   8  10
HETATM   10  C9  UNL     1      51.784  19.604 -21.942  1.00  0.00     0.189 A
HETATM   11  N3  UNL     1      52.868  19.968 -21.254  1.00  0.00    -0.280 N
HETATM   12  N2  UNL     1      54.106  19.798 -21.759  1.00  0.00    -0.287 N
ATOM     13  H3  UNL     1      52.758  20.383 -20.328  1.00  0.00     0.189 HD
HETATM   14  C8  UNL     1      54.337  19.266 -22.954  1.00  0.00     0.098 A
ATOM     15  H2  UNL     1      54.904  20.092 -21.196  1.00  0.00     0.188 HD
HETATM   16  N8  UNL     1      53.281  18.878 -23.699  1.00  0.00    -0.309 N
HETATM   17  C29 UNL     1      52.054  19.041 -23.212  1.00  0.00     0.292 A
ATOM     18  H8  UNL     1      53.422  18.465 -24.621  1.00  0.00     0.170 HD
HETATM   19  O4  UNL     1      51.051  18.680 -23.898  1.00  0.00    -0.264 OA
BRANCH  14  20
HETATM   20  C7  UNL     1      55.744  19.127 -23.382  1.00  0.00     0.078 C
BRANCH  20  21
HETATM   21  C6  UNL     1      56.425  18.016 -22.626  1.00  0.00     0.008 C
BRANCH  21  22
HETATM   22  C5  UNL     1      56.784  16.914 -23.568  1.00  0.00     0.005 C
BRANCH  22  23
HETATM   23  C4  UNL     1      56.598  17.282 -25.032  1.00  0.00     0.040 C
BRANCH  23  24
HETATM   24  C3  UNL     1      57.423  16.404 -25.872  1.00  0.00    -0.042 A
HETATM   25  C2  UNL     1      58.388  16.948 -26.687  1.00  0.00     0.100 A
HETATM   26  N1  UNL     1      59.156  16.146 -27.463  1.00  0.00    -0.329 N
HETATM   27  C1  UNL     1      60.165  16.749 -28.313  1.00  0.00     0.159 C
HETATM   28  C32 UNL     1      58.995  14.809 -27.458  1.00  0.00     0.246 A
HETATM   29  C31 UNL     1      58.035  14.220 -26.651  1.00  0.00     0.075 A
HETATM   30  O5  UNL     1      59.734  14.083 -28.200  1.00  0.00    -0.268 OA
HETATM   31  C30 UNL     1      57.238  15.043 -25.846  1.00  0.00     0.014 A
ENDBRANCH  23  24
ENDBRANCH  22  23
ENDBRANCH  21  22
ENDBRANCH  20  21
ENDBRANCH  14  20
ENDBRANCH   8  10
ENDBRANCH   6   7
ENDBRANCH   5   6
ENDBRANCH   1   5
BRANCH   3  32
HETATM   32  C14 UNL     1      53.824  21.529 -16.828  1.00  0.00     0.107 A
HETATM   33  C15 UNL     1      54.713  20.511 -17.076  1.00  0.00     0.086 A
HETATM   34  S1  UNL     1      56.206  21.266 -16.707  1.00  0.00    -0.086 SA
HETATM   35  C16 UNL     1      55.606  22.802 -16.270  1.00  0.00     0.051 A
HETATM   36  N7  UNL     1      54.310  22.662 -16.425  1.00  0.00    -0.349 N
ATOM     37  H7  UNL     1      53.685  23.444 -16.229  1.00  0.00     0.166 HD
BRANCH  35  38
HETATM   38  C17 UNL     1      56.430  23.976 -15.830  1.00  0.00     0.065 C
BRANCH  38  39
HETATM   39  C18 UNL     1      55.584  25.227 -15.831  1.00  0.00     0.008 C
BRANCH  39  40
HETATM   40  C19 UNL     1      55.082  25.573 -14.462  1.00  0.00     0.033 C
BRANCH  40  41
HETATM   41  C20 UNL     1      55.882  24.900 -13.373  1.00  0.00     0.187 C
BRANCH  41  42
HETATM   42  N6  UNL     1      56.757  25.840 -12.695  1.00  0.00    -0.075 N
ATOM     43  H63 UNL     1      57.187  26.490 -13.354  1.00  0.00     0.274 HD
ATOM     44  H62 UNL     1      56.225  26.509 -12.138  1.00  0.00     0.274 HD
ATOM     45  H61 UNL     1      57.459  25.360 -12.132  1.00  0.00     0.274 HD
ENDBRANCH  41  42
BRANCH  41  46
HETATM   46  C21 UNL     1      55.021  24.224 -12.353  1.00  0.00     0.071 C
BRANCH  46  47
HETATM   47  C22 UNL     1      54.706  22.817 -12.717  1.00  0.00    -0.053 A
HETATM   48  C23 UNL     1      53.422  22.378 -12.957  1.00  0.00     0.010 A
HETATM   49  C24 UNL     1      53.104  21.077 -13.285  1.00  0.00     0.040 A
HETATM   50  C25 UNL     1      54.139  20.158 -13.378  1.00  0.00     0.105 A
HETATM   51  C26 UNL     1      55.429  20.567 -13.144  1.00  0.00     0.105 A
HETATM   52  O3  UNL     1      54.193  18.793 -13.679  1.00  0.00    -0.323 OA
HETATM   53  C27 UNL     1      55.720  21.879 -12.816  1.00  0.00     0.047 A
HETATM   54  O2  UNL     1      56.243  19.443 -13.306  1.00  0.00    -0.323 OA
HETATM   55  C28 UNL     1      55.427  18.267 -13.186  1.00  0.00     0.352 C
ENDBRANCH  46  47
ENDBRANCH  41  46
ENDBRANCH  40  41
ENDBRANCH  39  40
ENDBRANCH  38  39
ENDBRANCH  35  38
ENDBRANCH   3  32
TORSDOF 17
ENDMDL