MODEL 5
REMARK VINA RESULT: -5.417063556      2.451      4.186
REMARK  22 active torsions:
REMARK  status: ('A' for Active; 'I' for Inactive)
REMARK    1  A    between atoms: C2_2  and  C3_3
REMARK    2  A    between atoms: C3_3  and  C4_4
REMARK    3  A    between atoms: C4_4  and  C5_5
REMARK    4  A    between atoms: C6_6  and  C7_7
REMARK    5  A    between atoms: C7_7  and  O1_8
REMARK    6  A    between atoms: C7_7  and  C8_10
REMARK    7  A    between atoms: C8_10  and  N1_11
REMARK    8  A    between atoms: C8_10  and  C9_15
REMARK    9  A    between atoms: C9_15  and  C11_17
REMARK   10  A    between atoms: C11_17  and  C12_18
REMARK   11  A    between atoms: C15_22  and  O2_23
REMARK   12  A    between atoms: C15_22  and  O3_25
REMARK   13  A    between atoms: N2_27  and  C17_28
REMARK   14  A    between atoms: C17_28  and  O4_29
REMARK   15  A    between atoms: C17_28  and  C18_31
REMARK   16  A    between atoms: C18_31  and  N3_32
REMARK   17  A    between atoms: C18_31  and  C28_49
REMARK       I    between atoms: N3_32  and  C19_34
REMARK   18  A    between atoms: C19_34  and  C20_36
REMARK   19  A    between atoms: C20_36  and  C21_37
REMARK   20  A    between atoms: C21_37  and  S2_38
REMARK       I    between atoms: N4_40  and  C23_42
REMARK   21  A    between atoms: C23_42  and  O7_44
REMARK   22  A    between atoms: O7_44  and  C24_45
ROOT
HETATM    1  C12 UNL     1      52.690  20.523 -23.872  1.00  0.00     0.154 C
HETATM    2  S1  UNL     1      51.149  20.406 -24.812  1.00  0.00    -0.137 SA
HETATM    3  C13 UNL     1      49.979  20.691 -23.398  1.00  0.00     0.138 C
HETATM    4  C14 UNL     1      51.019  20.152 -22.346  1.00  0.00     0.082 C
HETATM    5  C15 UNL     1      50.414  19.603 -21.198  1.00  0.00     0.202 C
HETATM    6  N2  UNL     1      52.100  21.027 -22.525  1.00  0.00    -0.310 N
ENDROOT
BRANCH   6   7
HETATM    7  C17 UNL     1      52.719  22.151 -21.994  1.00  0.00     0.171 C
BRANCH   7   8
HETATM    8  O4  UNL     1      51.789  23.147 -21.807  1.00  0.00    -0.344 OA
ATOM      9  H4  UNL     1      52.228  23.952 -21.560  1.00  0.00     0.219 HD
ENDBRANCH   7   8
BRANCH   7  10
HETATM   10  C18 UNL     1      54.040  22.608 -21.555  1.00  0.00     0.088 C
BRANCH  10  11
HETATM   11  N3  UNL     1      54.286  22.371 -20.191  1.00  0.00    -0.318 N
HETATM   12  C19 UNL     1      53.768  22.777 -18.919  1.00  0.00     0.269 C
HETATM   13  O5  UNL     1      52.793  23.559 -18.987  1.00  0.00    -0.266 OA
ATOM     14  H3  UNL     1      55.062  21.719 -20.073  1.00  0.00     0.169 HD
BRANCH  12  15
HETATM   15  C20 UNL     1      54.307  22.332 -17.700  1.00  0.00     0.091 C
HETATM   16  N4  UNL     1      54.828  21.900 -16.519  1.00  0.00    -0.300 N
HETATM   17  C23 UNL     1      55.654  20.736 -16.322  1.00  0.00     0.365 C
ATOM     18  H4  UNL     1      54.612  22.456 -15.692  1.00  0.00     0.171 HD
HETATM   19  O6  UNL     1      55.932  20.019 -17.321  1.00  0.00    -0.238 OA
BRANCH  15  20
HETATM   20  C21 UNL     1      55.591  23.529 -17.718  1.00  0.00     0.136 C
BRANCH  20  21
HETATM   21  S2  UNL     1      55.352  24.849 -16.726  1.00  0.00    -0.167 SA
HETATM   22  C22 UNL     1      55.929  25.216 -15.153  1.00  0.00     0.090 C
ENDBRANCH  20  21
ENDBRANCH  15  20
BRANCH  17  23
HETATM   23  O7  UNL     1      56.137  20.386 -15.105  1.00  0.00    -0.294 OA
BRANCH  23  24
HETATM   24  C24 UNL     1      55.343  20.035 -13.972  1.00  0.00     0.061 C
HETATM   25  C25 UNL     1      55.912  18.852 -13.230  1.00  0.00     0.046 C
HETATM   26  C26 UNL     1      55.519  21.227 -13.001  1.00  0.00     0.046 C
HETATM   27  C27 UNL     1      53.896  19.871 -14.290  1.00  0.00     0.046 C
ENDBRANCH  23  24
ENDBRANCH  17  23
ENDBRANCH  12  15
ENDBRANCH  10  11
BRANCH  10  28
HETATM   28  C28 UNL     1      54.447  23.961 -22.097  1.00  0.00    -0.057 C
HETATM   29  C29 UNL     1      54.847  24.074 -23.503  1.00  0.00     0.045 C
HETATM   30  C30 UNL     1      55.215  24.851 -21.185  1.00  0.00     0.045 C
ENDBRANCH  10  28
ENDBRANCH   7  10
ENDBRANCH   6   7
BRANCH   1  31
HETATM   31  C11 UNL     1      53.389  19.261 -23.547  1.00  0.00     0.043 C
BRANCH  31  32
HETATM   32  C9  UNL     1      54.829  19.273 -23.944  1.00  0.00     0.017 C
HETATM   33  C10 UNL     1      55.291  20.479 -24.699  1.00  0.00     0.012 C
BRANCH  32  34
HETATM   34  C8  UNL     1      55.733  19.022 -22.782  1.00  0.00     0.219 C
BRANCH  34  35
HETATM   35  C7  UNL     1      56.530  17.765 -22.920  1.00  0.00     0.171 C
BRANCH  35  36
HETATM   36  C6  UNL     1      56.781  17.260 -24.263  1.00  0.00     0.003 C
HETATM   37  C5  UNL     1      56.397  16.029 -24.605  1.00  0.00    -0.028 C
BRANCH  37  38
HETATM   38  C4  UNL     1      56.619  15.449 -25.966  1.00  0.00     0.027 C
BRANCH  38  39
HETATM   39  C3  UNL     1      58.101  15.127 -26.075  1.00  0.00     0.003 C
BRANCH  39  40
HETATM   40  C2  UNL     1      58.621  15.738 -27.375  1.00  0.00    -0.004 C
HETATM   41  C1  UNL     1      59.416  16.998 -27.061  1.00  0.00     0.005 C
ENDBRANCH  39  40
ENDBRANCH  38  39
ENDBRANCH  37  38
ENDBRANCH  35  36
BRANCH  35  42
HETATM   42  O1  UNL     1      57.776  17.950 -22.265  1.00  0.00    -0.390 OA
ATOM     43  H1  UNL     1      57.813  17.368 -21.514  1.00  0.00     0.210 HD
ENDBRANCH  35  42
ENDBRANCH  34  35
BRANCH  34  44
HETATM   44  N1  UNL     1      55.208  19.255 -21.470  1.00  0.00    -0.072 N
ATOM     45  H13 UNL     1      55.256  18.402 -20.913  1.00  0.00     0.274 HD
ATOM     46  H12 UNL     1      55.839  19.850 -20.936  1.00  0.00     0.274 HD
ATOM     47  H11 UNL     1      54.262  19.636 -21.453  1.00  0.00     0.274 HD
ENDBRANCH  34  44
ENDBRANCH  32  34
ENDBRANCH  31  32
ENDBRANCH   1  31
BRANCH   5  48
HETATM   48  O2  UNL     1      49.108  19.386 -21.224  1.00  0.00    -0.339 OA
ATOM     49  H2  UNL     1      48.568  19.963 -21.751  1.00  0.00     0.220 HD
ENDBRANCH   5  48
BRANCH   5  50
HETATM   50  O3  UNL     1      50.987  19.240 -20.034  1.00  0.00    -0.334 OA
HETATM   51  C16 UNL     1      51.103  20.098 -18.884  1.00  0.00     0.212 C
ENDBRANCH   5  50
TORSDOF 22
ENDMDL