MODEL 4
REMARK VINA RESULT: -4.978218852      5.296      7.044
REMARK  3 active torsions:
REMARK  status: ('A' for Active; 'I' for Inactive)
REMARK    1  A    between atoms: C2_9  and  O1_10
REMARK    2  A    between atoms: C2_9  and  C3_12
REMARK    3  A    between atoms: C3_12  and  N4_13
ROOT
HETATM    1  N1  UNL     1     -24.520  -8.034 -27.669  1.00  0.00    -0.370 N
ATOM      2  H11 UNL     1     -24.990  -8.567 -26.937  1.00  0.00     0.159 HD
ATOM      3  H12 UNL     1     -24.404  -8.676 -28.453  1.00  0.00     0.159 HD
HETATM    4  C1  UNL     1     -24.149  -6.780 -27.594  1.00  0.00     0.191 A
HETATM    5  N2  UNL     1     -23.497  -6.040 -28.608  1.00  0.00    -0.272 N
ATOM      6  H2  UNL     1     -23.250  -6.431 -29.517  1.00  0.00     0.189 HD
HETATM    7  N3  UNL     1     -23.253  -4.854 -28.276  1.00  0.00    -0.280 N
ATOM      8  H3  UNL     1     -22.790  -4.156 -28.858  1.00  0.00     0.185 HD
HETATM    9  C2  UNL     1     -23.729  -4.645 -26.951  1.00  0.00     0.246 A
HETATM   10  N6  UNL     1     -24.311  -5.883 -26.501  1.00  0.00    -0.310 N
ATOM     11  H6  UNL     1     -24.744  -6.075 -25.598  1.00  0.00     0.167 HD
ENDROOT
BRANCH   9  12
HETATM   12  O1  UNL     1     -22.630  -4.270 -26.162  1.00  0.00    -0.352 OA
ATOM     13  H1  UNL     1     -22.209  -3.534 -26.590  1.00  0.00     0.214 HD
ENDBRANCH   9  12
BRANCH   9  14
HETATM   14  C3  UNL     1     -24.807  -3.588 -26.867  1.00  0.00     0.220 C
BRANCH  14  15
HETATM   15  N4  UNL     1     -24.270  -2.357 -26.362  1.00  0.00    -0.303 N
HETATM   16  C4  UNL     1     -24.341  -2.167 -25.019  1.00  0.00     0.101 A
HETATM   17  C5  UNL     1     -23.833  -0.995 -24.503  1.00  0.00     0.092 A
HETATM   18  C6  UNL     1     -23.282  -0.076 -25.352  1.00  0.00     0.250 A
HETATM   19  O2  UNL     1     -22.820   1.000 -24.844  1.00  0.00    -0.268 OA
HETATM   20  N5  UNL     1     -23.210  -0.259 -26.673  1.00  0.00    -0.275 N
HETATM   21  C7  UNL     1     -23.717  -1.421 -27.158  1.00  0.00     0.329 A
ATOM     22  H5  UNL     1     -22.794   0.440 -27.289  1.00  0.00     0.173 HD
HETATM   23  O3  UNL     1     -23.666  -1.629 -28.396  1.00  0.00    -0.246 OA
ENDBRANCH  14  15
ENDBRANCH   9  14
TORSDOF 3
ENDMDL