MODEL 5
REMARK VINA RESULT: -4.733173171      5.049      6.396
REMARK  4 active torsions:
REMARK  status: ('A' for Active; 'I' for Inactive)
REMARK    1  A    between atoms: N1_1  and  N2_4
REMARK    2  A    between atoms: C3_9  and  C4_10
REMARK    3  A    between atoms: C4_10  and  O1_11
REMARK    4  A    between atoms: C4_10  and  C5_13
ROOT
HETATM    1  C4  UNL     1     -23.175  -3.935 -26.615  1.00  0.00     0.243 C
ENDROOT
BRANCH   1   2
HETATM    2  C3  UNL     1     -23.921  -3.836 -27.890  1.00  0.00     0.129 C
HETATM    3  N2  UNL     1     -24.268  -4.928 -28.719  1.00  0.00    -0.283 N
HETATM    4  C1  UNL     1     -25.384  -4.459 -29.508  1.00  0.00     0.169 C
HETATM    5  C2  UNL     1     -25.029  -3.001 -29.657  1.00  0.00     0.143 C
HETATM    6  N3  UNL     1     -24.350  -2.723 -28.413  1.00  0.00    -0.374 N
ATOM      7  H3  UNL     1     -24.225  -1.796 -28.006  1.00  0.00     0.161 HD
BRANCH   3   8
HETATM    8  N1  UNL     1     -23.700  -6.189 -28.797  1.00  0.00    -0.342 N
ATOM      9  H12 UNL     1     -22.910  -6.510 -29.357  1.00  0.00     0.177 HD
ATOM     10  H11 UNL     1     -24.009  -7.012 -28.280  1.00  0.00     0.177 HD
ENDBRANCH   3   8
ENDBRANCH   1   2
BRANCH   1  11
HETATM   11  O1  UNL     1     -23.783  -4.828 -25.744  1.00  0.00    -0.382 OA
ATOM     12  H1  UNL     1     -23.955  -4.424 -24.901  1.00  0.00     0.211 HD
ENDBRANCH   1  11
BRANCH   1  13
HETATM   13  C5  UNL     1     -23.105  -2.626 -25.919  1.00  0.00     0.130 A
HETATM   14  N4  UNL     1     -21.978  -1.936 -25.731  1.00  0.00    -0.293 N
HETATM   15  N5  UNL     1     -21.991  -0.763 -25.095  1.00  0.00    -0.251 N
ATOM     16  H4  UNL     1     -21.095  -2.310 -26.080  1.00  0.00     0.187 HD
HETATM   17  C6  UNL     1     -23.145  -0.230 -24.615  1.00  0.00     0.341 A
ATOM     18  H5  UNL     1     -21.115  -0.257 -24.966  1.00  0.00     0.191 HD
HETATM   19  O2  UNL     1     -23.122   0.886 -24.015  1.00  0.00    -0.245 OA
HETATM   20  N6  UNL     1     -24.290  -0.894 -24.785  1.00  0.00    -0.273 N
HETATM   21  C7  UNL     1     -24.271  -2.065 -25.422  1.00  0.00     0.276 A
ATOM     22  H6  UNL     1     -25.168  -0.511 -24.433  1.00  0.00     0.173 HD
HETATM   23  O3  UNL     1     -25.368  -2.695 -25.582  1.00  0.00    -0.266 OA
ENDBRANCH   1  13
TORSDOF 4
ENDMDL