MODEL 3
REMARK VINA RESULT: -5.205946590      1.512      2.734
REMARK  3 active torsions:
REMARK  status: ('A' for Active; 'I' for Inactive)
REMARK    1  A    between atoms: N1_1  and  C1_4
REMARK    2  A    between atoms: N4_11  and  C3_12
REMARK    3  A    between atoms: C3_12  and  C4_13
ROOT
HETATM    1  C1  UNL     1     -24.548  -4.981 -27.754  1.00  0.00     0.697 A
HETATM    2  N2  UNL     1     -23.478  -5.764 -27.986  1.00  0.00    -0.128 N
ATOM      3  H2  UNL     1     -23.435  -6.556 -28.628  1.00  0.00     0.205 HD
HETATM    4  N3  UNL     1     -22.495  -5.317 -27.229  1.00  0.00    -0.236 N
ATOM      5  H3  UNL     1     -21.556  -5.713 -27.190  1.00  0.00     0.192 HD
HETATM    6  C2  UNL     1     -22.923  -4.254 -26.514  1.00  0.00     0.356 A
HETATM    7  O1  UNL     1     -22.209  -3.597 -25.687  1.00  0.00    -0.244 OA
HETATM    8  N4  UNL     1     -24.211  -4.042 -26.841  1.00  0.00    -0.125 N
ENDROOT
BRANCH   8   9
HETATM    9  C3  UNL     1     -25.082  -3.006 -26.323  1.00  0.00     0.209 C
BRANCH   9  10
HETATM   10  C4  UNL     1     -24.511  -1.652 -26.465  1.00  0.00     0.038 A
HETATM   11  C5  UNL     1     -24.421  -0.977 -27.664  1.00  0.00     0.101 A
HETATM   12  C6  UNL     1     -23.869   0.308 -27.733  1.00  0.00     0.251 A
HETATM   13  O2  UNL     1     -23.801   0.896 -28.843  1.00  0.00    -0.268 OA
HETATM   14  N5  UNL     1     -23.436   0.850 -26.596  1.00  0.00    -0.275 N
HETATM   15  C7  UNL     1     -23.512   0.213 -25.417  1.00  0.00     0.327 A
ATOM     16  H5  UNL     1     -23.030   1.785 -26.622  1.00  0.00     0.173 HD
HETATM   17  O3  UNL     1     -23.091   0.749 -24.339  1.00  0.00    -0.247 OA
HETATM   18  N6  UNL     1     -24.048  -1.022 -25.377  1.00  0.00    -0.310 N
ATOM     19  H6  UNL     1     -24.102  -1.500 -24.477  1.00  0.00     0.170 HD
ENDBRANCH   9  10
ENDBRANCH   8   9
BRANCH   1  20
HETATM   20  N1  UNL     1     -25.685  -5.152 -28.341  1.00  0.00    -0.233 N
ATOM     21  H12 UNL     1     -25.894  -5.097 -29.338  1.00  0.00     0.174 HD
ATOM     22  H11 UNL     1     -26.544  -5.372 -27.837  1.00  0.00     0.174 HD
ENDBRANCH   1  20
TORSDOF 3
ENDMDL