MODEL 3
REMARK VINA RESULT: -4.670017231      1.575      1.853
REMARK  3 active torsions:
REMARK  status: ('A' for Active; 'I' for Inactive)
REMARK    1  A    between atoms: C4_11  and  N4_12
REMARK    2  A    between atoms: N4_12  and  S1_14
REMARK    3  A    between atoms: S1_14  and  N5_15
ROOT
HETATM    1  N1  UNL     1     -25.770  -0.525 -27.383  1.00  0.00    -0.080 NA
HETATM    2  C1  UNL     1     -24.636  -0.695 -26.533  1.00  0.00     0.153 A
HETATM    3  N2  UNL     1     -24.243   0.278 -25.693  1.00  0.00    -0.295 N
ATOM      4  H2  UNL     1     -24.755   1.159 -25.651  1.00  0.00     0.172 HD
HETATM    5  C2  UNL     1     -23.171   0.078 -24.911  1.00  0.00     0.328 A
HETATM    6  O1  UNL     1     -22.792   1.000 -24.110  1.00  0.00    -0.247 OA
HETATM    7  N3  UNL     1     -22.497  -1.087 -24.970  1.00  0.00    -0.273 N
ATOM      8  H3  UNL     1     -21.686  -1.208 -24.362  1.00  0.00     0.173 HD
HETATM    9  C3  UNL     1     -22.837  -2.099 -25.787  1.00  0.00     0.280 A
HETATM   10  O2  UNL     1     -22.165  -3.171 -25.798  1.00  0.00    -0.265 OA
HETATM   11  C4  UNL     1     -23.936  -1.897 -26.590  1.00  0.00     0.153 A
ENDROOT
BRANCH  11  12
HETATM   12  N4  UNL     1     -24.321  -2.945 -27.464  1.00  0.00    -0.260 N
ATOM     13  H4  UNL     1     -24.074  -2.855 -28.450  1.00  0.00     0.180 HD
BRANCH  12  14
HETATM   14  S1  UNL     1     -25.166  -4.341 -26.986  1.00  0.00     0.317 S
HETATM   15  O3  UNL     1     -25.985  -4.940 -28.088  1.00  0.00    -0.183 OA
HETATM   16  O4  UNL     1     -26.097  -3.985 -25.861  1.00  0.00    -0.183 OA
BRANCH  14  17
HETATM   17  N5  UNL     1     -24.110  -5.591 -26.413  1.00  0.00    -0.311 N
ATOM     18  H52 UNL     1     -23.165  -5.407 -26.075  1.00  0.00     0.170 HD
ATOM     19  H51 UNL     1     -24.541  -6.514 -26.455  1.00  0.00     0.170 HD
ENDBRANCH  14  17
ENDBRANCH  12  14
ENDBRANCH  11  12
TORSDOF 3
ENDMDL