MODEL 4
REMARK VINA RESULT: -4.769663601      1.988      4.189
REMARK  3 active torsions:
REMARK  status: ('A' for Active; 'I' for Inactive)
REMARK    1  A    between atoms: N1_1  and  N2_4
REMARK    2  A    between atoms: N2_4  and  S1_6
REMARK    3  A    between atoms: S1_6  and  C1_9
ROOT
HETATM    1  C1  UNL     1     -24.270  -2.378 -26.499  1.00  0.00     0.189 A
HETATM    2  C2  UNL     1     -24.962  -2.018 -27.628  1.00  0.00     0.149 A
HETATM    3  N3  UNL     1     -25.803  -0.886 -27.601  1.00  0.00    -0.081 NA
HETATM    4  N4  UNL     1     -24.809  -2.762 -28.723  1.00  0.00    -0.295 N
ATOM      5  H4  UNL     1     -25.312  -2.513 -29.574  1.00  0.00     0.171 HD
HETATM    6  C3  UNL     1     -23.999  -3.840 -28.719  1.00  0.00     0.328 A
HETATM    7  O3  UNL     1     -23.830  -4.562 -29.726  1.00  0.00    -0.247 OA
HETATM    8  N5  UNL     1     -23.315  -4.192 -27.597  1.00  0.00    -0.274 N
ATOM      9  H5  UNL     1     -22.705  -5.010 -27.612  1.00  0.00     0.173 HD
HETATM   10  C4  UNL     1     -23.436  -3.474 -26.471  1.00  0.00     0.276 A
HETATM   11  O4  UNL     1     -22.812  -3.796 -25.445  1.00  0.00    -0.266 OA
ENDROOT
BRANCH   1  12
HETATM   12  S1  UNL     1     -24.443  -1.430 -25.048  1.00  0.00     0.284 S
HETATM   13  O1  UNL     1     -25.765  -1.789 -24.418  1.00  0.00    -0.199 OA
HETATM   14  O2  UNL     1     -23.323  -1.731 -24.087  1.00  0.00    -0.199 OA
BRANCH  12  15
HETATM   15  N2  UNL     1     -24.385   0.262 -25.377  1.00  0.00    -0.229 N
ATOM     16  H2  UNL     1     -25.089   0.918 -25.040  1.00  0.00     0.199 HD
BRANCH  15  17
HETATM   17  N1  UNL     1     -23.312   0.644 -26.129  1.00  0.00    -0.336 N
ATOM     18  H12 UNL     1     -22.890   0.029 -26.824  1.00  0.00     0.177 HD
ATOM     19  H11 UNL     1     -22.981   1.588 -25.929  1.00  0.00     0.177 HD
ENDBRANCH  15  17
ENDBRANCH  12  15
ENDBRANCH   1  12
TORSDOF 3
ENDMDL