MODEL 2
REMARK VINA RESULT: -5.400784122      0.093      1.973
REMARK  3 active torsions:
REMARK  status: ('A' for Active; 'I' for Inactive)
REMARK    1  A    between atoms: N1_1  and  C1_4
REMARK    2  A    between atoms: N3_9  and  C3_10
REMARK    3  A    between atoms: C3_10  and  C4_11
ROOT
HETATM    1  C1  UNL     1     -23.252   0.117 -24.959  1.00  0.00     0.683 A
HETATM    2  N2  UNL     1     -24.254  -0.553 -24.344  1.00  0.00    -0.141 N
ATOM      3  H2  UNL     1     -24.450  -0.352 -23.363  1.00  0.00     0.189 HD
HETATM    4  C2  UNL     1     -24.998  -1.474 -24.977  1.00  0.00     0.345 A
HETATM    5  O1  UNL     1     -25.929  -2.087 -24.377  1.00  0.00    -0.246 OA
HETATM    6  N3  UNL     1     -24.767  -1.765 -26.272  1.00  0.00    -0.243 N
HETATM    7  C6  UNL     1     -23.772  -1.105 -26.896  1.00  0.00     0.345 A
HETATM    8  O3  UNL     1     -23.494  -1.322 -28.111  1.00  0.00    -0.246 OA
HETATM    9  N7  UNL     1     -23.024  -0.177 -26.258  1.00  0.00    -0.141 N
ATOM     10  H7  UNL     1     -22.280   0.304 -26.762  1.00  0.00     0.189 HD
ENDROOT
BRANCH   6  11
HETATM   11  C3  UNL     1     -25.512  -2.731 -27.022  1.00  0.00     0.216 C
BRANCH  11  12
HETATM   12  C4  UNL     1     -24.936  -4.090 -26.937  1.00  0.00     0.118 A
HETATM   13  N4  UNL     1     -23.676  -4.454 -27.228  1.00  0.00    -0.283 N
HETATM   14  N5  UNL     1     -23.588  -5.777 -27.013  1.00  0.00    -0.250 N
ATOM     15  H4  UNL     1     -22.928  -3.842 -27.552  1.00  0.00     0.188 HD
HETATM   16  C5  UNL     1     -24.773  -6.236 -26.591  1.00  0.00     0.340 A
ATOM     17  H5  UNL     1     -22.750  -6.342 -27.148  1.00  0.00     0.192 HD
HETATM   18  O2  UNL     1     -25.000  -7.441 -26.307  1.00  0.00    -0.245 OA
HETATM   19  N6  UNL     1     -25.608  -5.189 -26.546  1.00  0.00    -0.294 N
ATOM     20  H6  UNL     1     -26.587  -5.219 -26.262  1.00  0.00     0.172 HD
ENDBRANCH  11  12
ENDBRANCH   6  11
BRANCH   1  21
HETATM   21  N1  UNL     1     -22.542   1.000 -24.347  1.00  0.00    -0.234 N
ATOM     22  H12 UNL     1     -22.970   1.658 -23.696  1.00  0.00     0.174 HD
ATOM     23  H11 UNL     1     -21.534   1.075 -24.485  1.00  0.00     0.174 HD
ENDBRANCH   1  21
TORSDOF 3
ENDMDL