MODEL 5
REMARK VINA RESULT: -4.737701901      3.744      5.370
REMARK  5 active torsions:
REMARK  status: ('A' for Active; 'I' for Inactive)
REMARK    1  A    between atoms: S1_2  and  C2_3
REMARK    2  A    between atoms: C3_6  and  N2_7
REMARK    3  A    between atoms: N2_7  and  N3_9
REMARK    4  A    between atoms: C5_16  and  N7_17
REMARK    5  A    between atoms: N7_17  and  N8_19
ROOT
HETATM    1  C2  UNL     1     -24.326  -3.165 -28.129  1.00  0.00     0.174 A
HETATM    2  N1  UNL     1     -23.746  -2.521 -27.108  1.00  0.00    -0.168 N
ATOM      3  H1  UNL     1     -23.926  -1.527 -26.965  1.00  0.00     0.186 HD
HETATM    4  C3  UNL     1     -22.928  -3.180 -26.271  1.00  0.00     0.713 A
HETATM    5  N6  UNL     1     -22.651  -4.489 -26.405  1.00  0.00    -0.019 N
ATOM      6  H6  UNL     1     -22.027  -4.974 -25.761  1.00  0.00     0.203 HD
HETATM    7  C5  UNL     1     -23.243  -5.128 -27.439  1.00  0.00     0.713 A
HETATM    8  N9  UNL     1     -24.059  -4.475 -28.276  1.00  0.00    -0.168 N
ATOM      9  H9  UNL     1     -24.490  -4.985 -29.046  1.00  0.00     0.186 HD
ENDROOT
BRANCH   4  10
HETATM   10  N2  UNL     1     -22.378  -2.562 -25.301  1.00  0.00    -0.129 N
ATOM     11  H2  UNL     1     -21.985  -3.083 -24.517  1.00  0.00     0.205 HD
BRANCH  10  12
HETATM   12  N3  UNL     1     -22.318  -1.175 -25.318  1.00  0.00    -0.262 N
HETATM   13  C4  UNL     1     -23.177  -0.503 -24.648  1.00  0.00     0.216 C
HETATM   14  N4  UNL     1     -24.163  -1.198 -23.910  1.00  0.00    -0.065 NA
HETATM   15  N5  UNL     1     -23.085   0.911 -24.690  1.00  0.00    -0.065 NA
ATOM     16  H3  UNL     1     -21.597  -0.696 -25.858  1.00  0.00     0.190 HD
ENDBRANCH  10  12
ENDBRANCH   4  10
BRANCH   1  17
HETATM   17  S1  UNL     1     -25.429  -2.345 -29.282  1.00  0.00    -0.097 SA
HETATM   18  C1  UNL     1     -25.222  -0.565 -29.221  1.00  0.00     0.099 C
ENDBRANCH   1  17
BRANCH   7  19
HETATM   19  N7  UNL     1     -23.004  -6.386 -27.604  1.00  0.00    -0.138 N
ATOM     20  H7  UNL     1     -22.593  -6.920 -26.839  1.00  0.00     0.205 HD
BRANCH  19  21
HETATM   21  N8  UNL     1     -23.294  -7.029 -28.801  1.00  0.00    -0.331 N
ATOM     22  H82 UNL     1     -22.570  -7.061 -29.518  1.00  0.00     0.177 HD
ATOM     23  H81 UNL     1     -24.203  -7.460 -28.968  1.00  0.00     0.177 HD
ENDBRANCH  19  21
ENDBRANCH   7  19
TORSDOF 5
ENDMDL