MODEL 5
REMARK VINA RESULT: -4.800605063      1.683      5.473
REMARK  4 active torsions:
REMARK  status: ('A' for Active; 'I' for Inactive)
REMARK    1  A    between atoms: O1_2  and  C2_3
REMARK    2  A    between atoms: C5_11  and  N4_12
REMARK    3  A    between atoms: N4_12  and  C6_14
REMARK    4  A    between atoms: C7_19  and  N7_20
ROOT
HETATM    1  N4  UNL     1     -22.634  -4.341 -26.179  1.00  0.00    -0.200 N
ATOM      2  H4  UNL     1     -21.836  -4.882 -25.847  1.00  0.00     0.180 HD
ENDROOT
BRANCH   1   3
HETATM    3  C5  UNL     1     -23.726  -4.960 -26.967  1.00  0.00     0.235 A
HETATM    4  C2  UNL     1     -24.807  -5.439 -26.077  1.00  0.00     0.202 A
HETATM    5  C3  UNL     1     -25.180  -6.828 -26.295  1.00  0.00     0.099 A
HETATM    6  N1  UNL     1     -24.639  -7.570 -27.162  1.00  0.00    -0.342 N
HETATM    7  C4  UNL     1     -23.588  -7.098 -28.022  1.00  0.00     0.189 A
ATOM      8  H1  UNL     1     -24.957  -8.535 -27.255  1.00  0.00     0.167 HD
HETATM    9  N2  UNL     1     -23.029  -7.997 -28.972  1.00  0.00    -0.064 NA
HETATM   10  N3  UNL     1     -23.223  -5.900 -27.878  1.00  0.00    -0.340 N
ATOM     11  H3  UNL     1     -22.477  -5.578 -28.494  1.00  0.00     0.164 HD
BRANCH   4  12
HETATM   12  O1  UNL     1     -25.924  -4.582 -26.176  1.00  0.00    -0.382 OA
HETATM   13  C1  UNL     1     -26.438  -4.526 -27.458  1.00  0.00     0.202 C
ENDBRANCH   4  12
ENDBRANCH   1   3
BRANCH   1  14
HETATM   14  C6  UNL     1     -22.748  -3.081 -25.938  1.00  0.00     0.709 A
HETATM   15  N5  UNL     1     -21.790  -2.197 -25.607  1.00  0.00    -0.117 N
HETATM   16  N6  UNL     1     -22.308  -0.989 -25.439  1.00  0.00    -0.118 N
ATOM     17  H5  UNL     1     -20.802  -2.426 -25.500  1.00  0.00     0.206 HD
HETATM   18  C7  UNL     1     -23.625  -1.110 -25.670  1.00  0.00     0.705 A
ATOM     19  H6  UNL     1     -21.806  -0.137 -25.185  1.00  0.00     0.206 HD
HETATM   20  N8  UNL     1     -23.892  -2.373 -25.972  1.00  0.00    -0.020 N
ATOM     21  H8  UNL     1     -24.814  -2.748 -26.194  1.00  0.00     0.203 HD
BRANCH  18  22
HETATM   22  N7  UNL     1     -24.495  -0.146 -25.609  1.00  0.00    -0.233 N
ATOM     23  H72 UNL     1     -24.366   0.796 -25.978  1.00  0.00     0.174 HD
ATOM     24  H71 UNL     1     -25.420  -0.208 -25.182  1.00  0.00     0.174 HD
ENDBRANCH  18  22
ENDBRANCH   1  14
TORSDOF 4
ENDMDL