MODEL 4
REMARK VINA RESULT: -4.668644415      1.960      5.016
REMARK  3 active torsions:
REMARK  status: ('A' for Active; 'I' for Inactive)
REMARK    1  A    between atoms: N1_1  and  C1_5
REMARK    2  A    between atoms: C1_5  and  O1_6
REMARK    3  A    between atoms: O1_6  and  C2_7
ROOT
HETATM    1  C2  UNL     1     -23.661  -2.875 -27.167  1.00  0.00     0.145 C
HETATM    2  C3  UNL     1     -24.537  -3.032 -28.212  1.00  0.00     0.117 C
HETATM    3  C4  UNL     1     -24.822  -4.128 -28.996  1.00  0.00     0.252 C
HETATM    4  O2  UNL     1     -25.447  -3.847 -30.049  1.00  0.00    -0.268 OA
HETATM    5  N2  UNL     1     -24.500  -5.399 -28.732  1.00  0.00    -0.275 N
ATOM      6  H2  UNL     1     -24.982  -6.100 -29.295  1.00  0.00     0.173 HD
HETATM    7  C5  UNL     1     -23.623  -5.885 -27.821  1.00  0.00     0.330 C
HETATM    8  O3  UNL     1     -23.443  -7.112 -27.917  1.00  0.00    -0.246 OA
HETATM    9  N3  UNL     1     -22.943  -5.211 -26.848  1.00  0.00    -0.273 N
ATOM     10  H3  UNL     1     -22.246  -5.756 -26.339  1.00  0.00     0.173 HD
HETATM   11  C6  UNL     1     -23.066  -3.921 -26.467  1.00  0.00     0.283 C
HETATM   12  O4  UNL     1     -22.576  -3.657 -25.339  1.00  0.00    -0.265 OA
ENDROOT
BRANCH   1  13
HETATM   13  O1  UNL     1     -23.309  -1.638 -26.740  1.00  0.00    -0.304 OA
BRANCH  13  14
HETATM   14  C1  UNL     1     -23.924  -0.823 -25.815  1.00  0.00     0.276 C
HETATM   15  C7  UNL     1     -23.007  -0.250 -24.728  1.00  0.00     0.302 C
HETATM   16  N4  UNL     1     -23.758   1.000 -24.887  1.00  0.00    -0.066 N
HETATM   17  C8  UNL     1     -23.901   0.636 -26.291  1.00  0.00     0.302 C
ATOM     18  H42 UNL     1     -24.569   1.212 -24.307  1.00  0.00     0.277 HD
ATOM     19  H41 UNL     1     -23.362   1.898 -24.609  1.00  0.00     0.277 HD
BRANCH  14  20
HETATM   20  N1  UNL     1     -25.236  -1.134 -25.372  1.00  0.00    -0.043 N
ATOM     21  H13 UNL     1     -25.290  -2.136 -25.190  1.00  0.00     0.278 HD
ATOM     22  H12 UNL     1     -25.363  -0.752 -24.434  1.00  0.00     0.278 HD
ATOM     23  H11 UNL     1     -26.036  -0.863 -25.944  1.00  0.00     0.278 HD
ENDBRANCH  14  20
ENDBRANCH  13  14
ENDBRANCH   1  13
TORSDOF 3
ENDMDL