MODEL 5
REMARK VINA RESULT: -5.257267941      1.447      4.898
REMARK  3 active torsions:
REMARK  status: ('A' for Active; 'I' for Inactive)
REMARK    1  A    between atoms: C3_5  and  C4_6
REMARK    2  A    between atoms: N3_7  and  N4_9
REMARK    3  A    between atoms: C7_18  and  N8_19
ROOT
HETATM    1  N1  UNL     1     -26.186  -5.917 -28.609  1.00  0.00    -0.171 NA
HETATM    2  C1  UNL     1     -25.419  -5.273 -28.032  1.00  0.00     0.203 C
HETATM    3  N2  UNL     1     -24.508  -4.472 -27.335  1.00  0.00    -0.091 N
HETATM    4  C2  UNL     1     -24.836  -3.200 -26.970  1.00  0.00     0.145 A
HETATM    5  C3  UNL     1     -23.989  -2.373 -26.289  1.00  0.00     0.067 A
HETATM    6  C6  UNL     1     -22.739  -2.931 -25.986  1.00  0.00     0.272 A
HETATM    7  O1  UNL     1     -21.900  -2.245 -25.364  1.00  0.00    -0.267 OA
HETATM    8  N7  UNL     1     -22.459  -4.186 -26.363  1.00  0.00    -0.154 N
ATOM      9  H7  UNL     1     -21.540  -4.562 -26.127  1.00  0.00     0.187 HD
HETATM   10  C7  UNL     1     -23.306  -4.981 -27.032  1.00  0.00     0.694 A
ENDROOT
BRANCH  10  11
HETATM   11  N8  UNL     1     -22.963  -6.183 -27.363  1.00  0.00    -0.233 N
ATOM     12  H82 UNL     1     -23.125  -6.965 -26.728  1.00  0.00     0.174 HD
ATOM     13  H81 UNL     1     -22.523  -6.395 -28.257  1.00  0.00     0.174 HD
ENDBRANCH  10  11
BRANCH   5  14
HETATM   14  C4  UNL     1     -24.235  -1.023 -25.860  1.00  0.00     0.125 C
HETATM   15  N3  UNL     1     -23.930   0.059 -26.421  1.00  0.00    -0.309 N
ATOM     16  H3  UNL     1     -24.214   0.900 -25.918  1.00  0.00     0.186 HD
BRANCH  15  17
HETATM   17  N4  UNL     1     -23.282   0.280 -27.590  1.00  0.00    -0.276 N
HETATM   18  C5  UNL     1     -23.877   0.384 -28.735  1.00  0.00     0.215 C
HETATM   19  N5  UNL     1     -25.289   0.263 -28.801  1.00  0.00    -0.065 NA
HETATM   20  N6  UNL     1     -23.148   0.617 -29.932  1.00  0.00    -0.065 NA
ATOM     21  H4  UNL     1     -22.266   0.370 -27.567  1.00  0.00     0.189 HD
ENDBRANCH  15  17
ENDBRANCH   5  14
TORSDOF 3
ENDMDL