MODEL 1
REMARK VINA RESULT: -4.515258751      0.000      0.000
REMARK  1 active torsions:
REMARK  status: ('A' for Active; 'I' for Inactive)
REMARK    1  A    between atoms: C2_2  and  C4_4
REMARK       I    between atoms: N2_10  and  C7_11
ROOT
HETATM    1  C4  UNL     1       0.538 -13.979  15.617  1.00  0.00     0.142 C
HETATM    2  C5  UNL     1       0.649 -15.338  16.261  1.00  0.00     0.264 C
HETATM    3  N1  UNL     1       2.060 -15.424  16.601  1.00  0.00    -0.057 N
ATOM      4  H11 UNL     1       2.609 -15.955  15.925  1.00  0.00     0.279 HD
ATOM      5  H12 UNL     1       2.247 -16.018  17.408  1.00  0.00     0.279 HD
HETATM    6  C6  UNL     1       2.520 -14.048  16.772  1.00  0.00     0.360 C
HETATM    7  N2  UNL     1       1.385 -13.210  16.504  1.00  0.00    -0.318 N
HETATM    8  C7  UNL     1       1.158 -11.919  17.005  1.00  0.00     0.217 C
HETATM    9  C8  UNL     1       2.129 -11.264  17.911  1.00  0.00     0.117 C
HETATM   10  O1  UNL     1       0.116 -11.291  16.691  1.00  0.00    -0.274 OA
ENDROOT
BRANCH   1  11
HETATM   11  C2  UNL     1       1.100 -14.009  14.257  1.00  0.00    -0.069 C
HETATM   12  C1  UNL     1       1.250 -15.082  13.519  1.00  0.00     0.016 C
HETATM   13  C3  UNL     1       1.536 -12.698  13.668  1.00  0.00     0.044 C
ENDBRANCH   1  11
TORSDOF 1
ENDMDL