MODEL 3
REMARK VINA RESULT: -4.701383759      1.510      1.912
REMARK  1 active torsions:
REMARK  status: ('A' for Active; 'I' for Inactive)
REMARK    1  A    between atoms: C2_2  and  C4_4
REMARK       I    between atoms: N1_6  and  C6_7
ROOT
HETATM    1  C4  UNL     1       0.672 -12.769  15.239  1.00  0.00     0.025 C
HETATM    2  C5  UNL     1       0.229 -14.083  14.623  1.00  0.00     0.133 C
HETATM    3  N1  UNL     1       0.853 -14.702  15.762  1.00  0.00    -0.336 N
HETATM    4  C6  UNL     1       0.614 -15.813  16.574  1.00  0.00     0.330 C
HETATM    5  N2  UNL     1      -0.468 -16.708  16.420  1.00  0.00    -0.040 NA
HETATM    6  O1  UNL     1       1.409 -16.062  17.525  1.00  0.00    -0.251 OA
HETATM    7  C7  UNL     1       1.835 -13.659  15.687  1.00  0.00     0.133 C
ENDROOT
BRANCH   1   8
HETATM    8  C2  UNL     1       1.012 -11.773  14.184  1.00  0.00    -0.015 C
HETATM    9  C1  UNL     1       1.349 -10.420  14.762  1.00  0.00     0.010 C
HETATM   10  C3  UNL     1      -0.191 -11.636  13.269  1.00  0.00     0.010 C
ENDBRANCH   1   8
TORSDOF 1
ENDMDL