MODEL 5
REMARK VINA RESULT: -4.311160149      1.978      4.692
REMARK  1 active torsions:
REMARK  status: ('A' for Active; 'I' for Inactive)
REMARK       I    between atoms: N1_2  and  C3_4
REMARK       I    between atoms: C3_4  and  N2_6
REMARK    1  A    between atoms: N2_6  and  C4_8
ROOT
HETATM    1  C1  UNL     1       1.625 -13.277  16.939  1.00  0.00     0.154 C
HETATM    2  N1  UNL     1       1.214 -14.098  15.815  1.00  0.00    -0.343 N
HETATM    3  C2  UNL     1       1.588 -15.508  15.819  1.00  0.00     0.154 C
HETATM    4  C3  UNL     1       0.471 -13.541  14.744  1.00  0.00     0.317 C
HETATM    5  O1  UNL     1       0.141 -14.295  13.798  1.00  0.00    -0.247 OA
HETATM    6  N2  UNL     1       0.133 -12.164  14.786  1.00  0.00    -0.338 N
ATOM      7  H2  UNL     1       0.418 -11.580  15.572  1.00  0.00     0.164 HD
ENDROOT
BRANCH   6   8
HETATM    8  C4  UNL     1      -0.624 -11.612  13.689  1.00  0.00     0.086 C
HETATM    9  C5  UNL     1       0.059 -10.453  12.969  1.00  0.00     0.025 C
HETATM   10  C6  UNL     1      -1.351  -9.872  12.789  1.00  0.00     0.004 C
HETATM   11  C7  UNL     1      -1.686 -10.610  14.094  1.00  0.00     0.025 C
ENDBRANCH   6   8
TORSDOF 1
ENDMDL