MODEL 2
REMARK VINA RESULT: -4.435194721      1.749      2.849
REMARK  1 active torsions:
REMARK  status: ('A' for Active; 'I' for Inactive)
REMARK    1  A    between atoms: C6_9  and  C7_10
ROOT
HETATM    1  C1  UNL     1       1.188 -15.462  16.151  1.00  0.00     0.012 C
HETATM    2  C2  UNL     1       0.908 -14.374  15.705  1.00  0.00    -0.113 C
HETATM    3  C3  UNL     1       0.592 -13.055  15.162  1.00  0.00     0.068 C
HETATM    4  C4  UNL     1       0.893 -12.030  16.205  1.00  0.00     0.044 C
HETATM    5  C5  UNL     1       0.876 -10.619  15.713  1.00  0.00     0.234 C
HETATM    6  N1  UNL     1       1.588 -10.443  14.463  1.00  0.00    -0.070 N
ATOM      7  H11 UNL     1       2.597 -10.551  14.569  1.00  0.00     0.277 HD
ATOM      8  H12 UNL     1       1.583  -9.474  14.143  1.00  0.00     0.277 HD
HETATM    9  C6  UNL     1       1.033 -11.349  13.489  1.00  0.00     0.191 C
HETATM   10  C10 UNL     1       1.404 -12.753  13.919  1.00  0.00     0.050 C
ENDROOT
BRANCH   9  11
HETATM   11  C7  UNL     1       1.549 -11.078  12.096  1.00  0.00     0.016 A
HETATM   12  C8  UNL     1       0.471 -10.524  11.159  1.00  0.00     0.007 A
HETATM   13  C9  UNL     1       1.627  -9.695  11.579  1.00  0.00     0.007 A
ENDBRANCH   9  11
TORSDOF 1
ENDMDL