MODEL 3
REMARK VINA RESULT: -4.774550168      3.311      4.609
REMARK  1 active torsions:
REMARK  status: ('A' for Active; 'I' for Inactive)
REMARK    1  A    between atoms: C6_6  and  C7_7
ROOT
HETATM    1  C1  UNL     1       0.426 -15.169  15.709  1.00  0.00     0.015 C
HETATM    2  C2  UNL     1       1.403 -14.071  16.048  1.00  0.00    -0.040 A
HETATM    3  C3  UNL     1       2.356 -14.468  17.178  1.00  0.00     0.015 C
HETATM    4  C4  UNL     1       2.002 -13.219  15.010  1.00  0.00    -0.001 A
HETATM    5  C5  UNL     1       1.342 -12.956  13.690  1.00  0.00     0.019 C
HETATM    6  C6  UNL     1       0.590 -11.663  14.017  1.00  0.00     0.076 C
HETATM    7  C8  UNL     1      -0.147 -12.125  15.265  1.00  0.00     0.019 C
HETATM    8  C9  UNL     1       1.018 -12.659  16.069  1.00  0.00    -0.001 A
ENDROOT
BRANCH   6   9
HETATM    9  C7  UNL     1      -0.303 -11.241  12.943  1.00  0.00     0.235 C
HETATM   10  N1  UNL     1       0.090 -11.090  11.599  1.00  0.00    -0.062 NA
HETATM   11  O1  UNL     1      -1.503 -10.996  13.234  1.00  0.00    -0.277 OA
ENDBRANCH   6   9
TORSDOF 1
ENDMDL