MODEL 4
REMARK VINA RESULT: -3.821866937      1.536      4.085
REMARK  2 active torsions:
REMARK  status: ('A' for Active; 'I' for Inactive)
REMARK    1  A    between atoms: C3_3  and  C4_4
REMARK    2  A    between atoms: C8_8  and  N1_10
ROOT
HETATM    1  C4  UNL     1      -0.255 -12.212  13.919  1.00  0.00     0.048 C
HETATM    2  C5  UNL     1      -0.906 -11.180  14.799  1.00  0.00     0.002 A
HETATM    3  C6  UNL     1      -1.867 -10.160  14.491  1.00  0.00     0.013 A
HETATM    4  C7  UNL     1      -1.136 -10.572  13.354  1.00  0.00     0.027 A
HETATM    5  C8  UNL     1       0.301 -10.967  13.203  1.00  0.00     0.131 C
HETATM    6  C9  UNL     1       1.362 -10.197  13.851  1.00  0.00     0.047 C
ENDROOT
BRANCH   5   7
HETATM    7  N1  UNL     1       0.670 -11.361  11.853  1.00  0.00    -0.070 N
ATOM      8  H13 UNL     1       0.330 -12.290  11.604  1.00  0.00     0.275 HD
ATOM      9  H12 UNL     1       0.168 -10.838  11.135  1.00  0.00     0.275 HD
ATOM     10  H11 UNL     1       1.684 -11.275  11.771  1.00  0.00     0.275 HD
ENDBRANCH   5   7
BRANCH   1  11
HETATM   11  C3  UNL     1       0.753 -13.026  14.593  1.00  0.00    -0.024 C
HETATM   12  C2  UNL     1       0.531 -14.278  14.954  1.00  0.00    -0.034 C
HETATM   13  C1  UNL     1       1.571 -15.094  15.639  1.00  0.00     0.036 C
ENDBRANCH   1  11
TORSDOF 2
ENDMDL