MODEL 4
REMARK VINA RESULT: -4.206047034      2.015      4.789
REMARK  2 active torsions:
REMARK  status: ('A' for Active; 'I' for Inactive)
REMARK    1  A    between atoms: C2_2  and  N1_4
REMARK       I    between atoms: N1_4  and  C4_6
REMARK       I    between atoms: C4_6  and  N2_8
REMARK    2  A    between atoms: N2_8  and  C6_10
ROOT
HETATM    1  N1  UNL     1       1.184 -13.570  16.540  1.00  0.00    -0.339 N
ATOM      2  H1  UNL     1       0.734 -13.075  17.310  1.00  0.00     0.164 HD
HETATM    3  C4  UNL     1       1.348 -12.904  15.300  1.00  0.00     0.318 C
HETATM    4  O1  UNL     1       1.894 -13.496  14.357  1.00  0.00    -0.247 OA
HETATM    5  N2  UNL     1       0.889 -11.577  15.154  1.00  0.00    -0.334 N
HETATM    6  C5  UNL     1       0.250 -10.863  16.235  1.00  0.00     0.154 C
ENDROOT
BRANCH   1   7
HETATM    7  C2  UNL     1       1.635 -14.933  16.753  1.00  0.00     0.078 C
HETATM    8  C1  UNL     1       0.499 -15.844  16.313  1.00  0.00     0.032 C
HETATM    9  C3  UNL     1       1.925 -15.092  18.227  1.00  0.00     0.032 C
ENDBRANCH   1   7
BRANCH   5  10
HETATM   10  C6  UNL     1       1.066 -10.907  13.890  1.00  0.00     0.088 A
HETATM   11  C7  UNL     1      -0.147 -10.974  12.973  1.00  0.00     0.027 A
HETATM   12  C8  UNL     1       0.281  -9.708  13.579  1.00  0.00     0.027 A
ENDBRANCH   5  10
TORSDOF 2
ENDMDL