MODEL 5
REMARK VINA RESULT: -4.092571819      2.191      4.246
REMARK  2 active torsions:
REMARK  status: ('A' for Active; 'I' for Inactive)
REMARK    1  A    between atoms: C2_2  and  C3_3
REMARK    2  A    between atoms: C5_5  and  N1_6
ROOT
HETATM    1  C3  UNL     1      -0.357  -9.663  15.099  1.00  0.00     0.034 C
HETATM    2  C4  UNL     1      -1.062 -10.977  14.872  1.00  0.00     0.051 C
HETATM    3  C5  UNL     1       0.048 -11.948  14.481  1.00  0.00     0.143 C
HETATM    4  C6  UNL     1       1.179 -10.999  14.041  1.00  0.00     0.068 C
HETATM    5  C7  UNL     1       1.063 -10.127  15.313  1.00  0.00     0.111 C
HETATM    6  N2  UNL     1       1.146 -11.160  16.306  1.00  0.00    -0.326 N
HETATM    7  N3  UNL     1       1.580 -11.013  17.458  1.00  0.00    -0.347 N
ATOM      8  H31 UNL     1       1.640 -11.747  18.164  1.00  0.00     0.176 HD
ATOM      9  H32 UNL     1       1.927 -10.124  17.818  1.00  0.00     0.176 HD
HETATM   10  C8  UNL     1       0.656 -12.415  15.798  1.00  0.00     0.181 C
ENDROOT
BRANCH   3  11
HETATM   11  N1  UNL     1      -0.288 -12.938  13.566  1.00  0.00    -0.069 N
ATOM     12  H13 UNL     1      -1.177 -13.362  13.831  1.00  0.00     0.275 HD
ATOM     13  H12 UNL     1      -0.544 -12.510  12.676  1.00  0.00     0.275 HD
ATOM     14  H11 UNL     1       0.407 -13.667  13.408  1.00  0.00     0.275 HD
ENDBRANCH   3  11
BRANCH   1  15
HETATM   15  C2  UNL     1      -0.902  -8.829  16.172  1.00  0.00    -0.030 C
HETATM   16  C1  UNL     1      -1.813  -9.138  17.056  1.00  0.00     0.007 C
ENDBRANCH   1  15
TORSDOF 2
ENDMDL