MODEL 4
REMARK VINA RESULT: -5.214494821      2.183      3.407
REMARK  2 active torsions:
REMARK  status: ('A' for Active; 'I' for Inactive)
REMARK    1  A    between atoms: C7_8  and  C9_10
REMARK    2  A    between atoms: C9_10  and  C10_11
ROOT
HETATM    1  C1  UNL     1      -0.962 -10.413  15.594  1.00  0.00     0.045 C
HETATM    2  C2  UNL     1       0.091 -11.275  14.944  1.00  0.00     0.056 C
HETATM    3  C3  UNL     1      -0.407 -11.623  13.550  1.00  0.00     0.045 C
HETATM    4  C4  UNL     1       1.403 -10.545  14.766  1.00  0.00     0.059 C
HETATM    5  C5  UNL     1       2.331 -11.758  14.872  1.00  0.00     0.130 C
HETATM    6  C6  UNL     1       3.690 -11.405  15.141  1.00  0.00     0.067 C
HETATM    7  N1  UNL     1       4.786 -11.134  15.369  1.00  0.00    -0.197 NA
HETATM    8  C7  UNL     1       1.653 -12.493  16.003  1.00  0.00     0.084 C
HETATM    9  C8  UNL     1       2.046 -11.894  17.319  1.00  0.00     0.048 C
HETATM   10  O3  UNL     1       0.303 -12.372  15.729  1.00  0.00    -0.368 OA
ENDROOT
BRANCH   8  11
HETATM   11  C9  UNL     1       1.989 -13.967  15.992  1.00  0.00     0.152 C
BRANCH  11  12
HETATM   12  C10 UNL     1       1.098 -14.693  15.063  1.00  0.00     0.175 C
HETATM   13  O1  UNL     1       0.104 -15.301  15.535  1.00  0.00    -0.648 OA
HETATM   14  O2  UNL     1       1.324 -14.724  13.695  1.00  0.00    -0.648 OA
ENDBRANCH  11  12
ENDBRANCH   8  11
TORSDOF 2
ENDMDL