MODEL 4
REMARK VINA RESULT: -4.844825096      1.501      3.360
REMARK  3 active torsions:
REMARK  status: ('A' for Active; 'I' for Inactive)
REMARK    1  A    between atoms: N1_2  and  C3_4
REMARK    2  A    between atoms: C9_10  and  O1_11
REMARK    3  A    between atoms: O1_11  and  C10_12
ROOT
HETATM    1  C3  UNL     1       2.083 -12.927  15.432  1.00  0.00     0.251 C
HETATM    2  C4  UNL     1       1.422 -12.513  16.697  1.00  0.00     0.038 C
HETATM    3  C5  UNL     1       1.587 -11.106  17.103  1.00  0.00     0.002 C
HETATM    4  C6  UNL     1       2.705 -10.356  16.478  1.00  0.00     0.000 C
HETATM    5  C7  UNL     1       2.237  -9.889  15.104  1.00  0.00     0.002 C
HETATM    6  C8  UNL     1       2.766 -10.913  14.116  1.00  0.00     0.035 C
HETATM    7  C9  UNL     1       1.790 -12.104  14.229  1.00  0.00     0.166 C
ENDROOT
BRANCH   7   8
HETATM    8  O1  UNL     1       1.856 -12.799  13.009  1.00  0.00    -0.299 OA
BRANCH   8   9
HETATM    9  C10 UNL     1       1.230 -12.286  11.877  1.00  0.00     0.373 C
HETATM   10  N2  UNL     1       1.792 -12.399  10.586  1.00  0.00    -0.032 NA
HETATM   11  O2  UNL     1       0.136 -11.711  12.029  1.00  0.00    -0.242 OA
ENDBRANCH   8   9
ENDBRANCH   7   8
BRANCH   1  12
HETATM   12  N1  UNL     1       1.763 -14.321  15.169  1.00  0.00     0.087 N
HETATM   13  C1  UNL     1       2.111 -15.076  16.382  1.00  0.00     0.310 C
HETATM   14  C2  UNL     1       0.345 -14.557  14.965  1.00  0.00     0.310 C
ENDBRANCH   1  12
TORSDOF 3
ENDMDL