MODEL 3
REMARK VINA RESULT: -5.074494251      1.427      1.801
REMARK  2 active torsions:
REMARK  status: ('A' for Active; 'I' for Inactive)
REMARK    1  A    between atoms: C2_2  and  O1_4
REMARK    2  A    between atoms: O1_4  and  C4_5
ROOT
HETATM    1  C4  UNL     1       1.626 -12.759  15.785  1.00  0.00     0.128 C
HETATM    2  C5  UNL     1       3.130 -12.553  15.662  1.00  0.00     0.033 C
HETATM    3  C6  UNL     1       3.331 -11.152  15.124  1.00  0.00     0.008 C
HETATM    4  C7  UNL     1       1.989 -10.659  14.747  1.00  0.00    -0.001 C
HETATM    5  C8  UNL     1       1.743  -9.205  14.955  1.00  0.00     0.049 C
HETATM    6  C9  UNL     1       0.282  -8.932  14.678  1.00  0.00     0.056 C
HETATM    7  N1  UNL     1      -0.622  -9.806  15.306  1.00  0.00    -0.398 N
ATOM      8  H1  UNL     1      -1.469  -9.466  15.762  1.00  0.00     0.159 HD
HETATM    9  C10 UNL     1      -0.289 -11.203  15.270  1.00  0.00     0.083 C
HETATM   10  C11 UNL     1      -0.491 -11.696  13.861  1.00  0.00     0.032 C
HETATM   11  C12 UNL     1       1.096 -11.385  15.766  1.00  0.00     0.041 C
ENDROOT
BRANCH   1  12
HETATM   12  O1  UNL     1       1.434 -13.423  17.004  1.00  0.00    -0.381 OA
BRANCH  12  13
HETATM   13  C2  UNL     1       1.849 -14.725  16.991  1.00  0.00     0.113 C
HETATM   14  C1  UNL     1       1.810 -15.378  18.359  1.00  0.00     0.039 C
HETATM   15  C3  UNL     1       0.858 -15.507  16.120  1.00  0.00     0.039 C
ENDBRANCH  12  13
ENDBRANCH   1  12
TORSDOF 2
ENDMDL