MODEL 2
REMARK VINA RESULT: -5.053222295      1.212      1.680
REMARK  3 active torsions:
REMARK  status: ('A' for Active; 'I' for Inactive)
REMARK    1  A    between atoms: C2_2  and  O1_3
REMARK    2  A    between atoms: O1_3  and  C3_4
REMARK    3  A    between atoms: C3_4  and  C4_6
ROOT
HETATM    1  C4  UNL     1       1.636 -13.572  14.781  1.00  0.00     0.112 C
HETATM    2  C5  UNL     1       0.558 -14.477  15.342  1.00  0.00     0.019 C
HETATM    3  C6  UNL     1       1.228 -15.374  16.352  1.00  0.00     0.025 C
HETATM    4  C7  UNL     1       1.743 -14.489  17.468  1.00  0.00     0.073 C
HETATM    5  C8  UNL     1       2.569 -15.404  18.382  1.00  0.00     0.032 C
HETATM    6  N1  UNL     1       2.619 -13.484  16.974  1.00  0.00    -0.409 N
ATOM      7  H1  UNL     1       3.557 -13.345  17.351  1.00  0.00     0.154 HD
HETATM    8  C9  UNL     1       2.097 -12.681  15.913  1.00  0.00     0.031 C
HETATM    9  C10 UNL     1       3.252 -11.830  15.388  1.00  0.00     0.038 C
HETATM   10  C11 UNL     1       0.998 -11.786  16.384  1.00  0.00     0.038 C
ENDROOT
BRANCH   1  11
HETATM   11  C3  UNL     1       1.066 -12.816  13.653  1.00  0.00     0.265 C
HETATM   12  O2  UNL     1      -0.144 -12.421  13.658  1.00  0.00    -0.265 OA
BRANCH  11  13
HETATM   13  O1  UNL     1       1.779 -12.475  12.510  1.00  0.00    -0.321 OA
BRANCH  13  14
HETATM   14  C2  UNL     1       1.486 -11.391  11.688  1.00  0.00     0.174 C
HETATM   15  C1  UNL     1       1.017 -11.731  10.323  1.00  0.00     0.034 C
ENDBRANCH  13  14
ENDBRANCH  11  13
ENDBRANCH   1  11
TORSDOF 3
ENDMDL