MODEL 2
REMARK VINA RESULT: -5.812632608      0.745      1.037
REMARK  2 active torsions:
REMARK  status: ('A' for Active; 'I' for Inactive)
REMARK    1  A    between atoms: C3_4  and  N1_5
REMARK    2  A    between atoms: N1_5  and  C4_7
ROOT
HETATM    1  C4  UNL     1       0.075 -11.879  13.938  1.00  0.00     0.218 C
HETATM    2  C5  UNL     1      -0.904 -10.989  14.664  1.00  0.00     0.065 C
HETATM    3  C6  UNL     1      -1.530 -10.137  13.600  1.00  0.00    -0.015 C
HETATM    4  C7  UNL     1      -3.018 -10.295  13.451  1.00  0.00     0.012 C
HETATM    5  C8  UNL     1      -3.092  -8.794  13.214  1.00  0.00     0.002 C
HETATM    6  C9  UNL     1      -1.723  -8.691  13.884  1.00  0.00     0.012 C
HETATM    7  C10 UNL     1      -0.685 -10.427  12.399  1.00  0.00     0.180 C
HETATM    8  O2  UNL     1      -0.130 -11.681  12.576  1.00  0.00    -0.366 OA
ENDROOT
BRANCH   1   9
HETATM    9  N1  UNL     1      -0.262 -13.252  14.223  1.00  0.00    -0.371 N
ATOM     10  H1  UNL     1      -1.148 -13.670  13.937  1.00  0.00     0.158 HD
BRANCH   9  11
HETATM   11  C3  UNL     1       0.716 -13.972  14.922  1.00  0.00     0.218 C
HETATM   12  O1  UNL     1       0.414 -15.184  15.465  1.00  0.00    -0.367 OA
HETATM   13  C2  UNL     1       1.680 -15.571  15.968  1.00  0.00     0.170 C
HETATM   14  C1  UNL     1       2.299 -14.308  16.564  1.00  0.00     0.030 C
HETATM   15  C11 UNL     1       1.308 -13.253  16.116  1.00  0.00     0.055 C
ENDBRANCH   9  11
ENDBRANCH   1   9
TORSDOF 2
ENDMDL