MODEL 2
REMARK VINA RESULT: -5.385751774      1.469      5.473
REMARK  4 active torsions:
REMARK  status: ('A' for Active; 'I' for Inactive)
REMARK    1  A    between atoms: O1_2  and  C2_3
REMARK    2  A    between atoms: N1_6  and  C5_7
REMARK    3  A    between atoms: C5_7  and  O2_11
REMARK    4  A    between atoms: O2_11  and  C6_12
ROOT
HETATM    1  C2  UNL     1       0.265 -11.011  12.959  1.00  0.00     0.123 C
HETATM    2  C3  UNL     1      -0.522 -11.543  14.139  1.00  0.00     0.052 C
HETATM    3  C4  UNL     1       0.164 -11.103  15.413  1.00  0.00     0.129 C
HETATM    4  N1  UNL     1       1.449 -11.800  15.466  1.00  0.00    -0.347 N
HETATM    5  C9  UNL     1       2.134 -11.972  14.201  1.00  0.00     0.129 C
HETATM    6  C10 UNL     1       1.732 -10.773  13.337  1.00  0.00     0.052 C
ENDROOT
BRANCH   4   7
HETATM    7  C5  UNL     1       2.007 -12.286  16.675  1.00  0.00     0.215 C
HETATM    8  N2  UNL     1       3.064 -11.768  17.198  1.00  0.00    -0.365 N
ATOM      9  H22 UNL     1       3.484 -10.985  16.698  1.00  0.00     0.159 HD
ATOM     10  H21 UNL     1       3.466 -12.118  18.068  1.00  0.00     0.159 HD
BRANCH   7  11
HETATM   11  O2  UNL     1       1.436 -13.352  17.355  1.00  0.00    -0.318 OA
BRANCH  11  12
HETATM   12  C6  UNL     1       2.075 -14.595  17.314  1.00  0.00     0.123 C
HETATM   13  C7  UNL     1       1.653 -15.379  16.092  1.00  0.00     0.040 C
HETATM   14  C8  UNL     1       1.935 -15.392  18.583  1.00  0.00     0.040 C
ENDBRANCH  11  12
ENDBRANCH   7  11
ENDBRANCH   4   7
BRANCH   1  15
HETATM   15  O1  UNL     1       0.183 -11.934  11.925  1.00  0.00    -0.391 OA
HETATM   16  C1  UNL     1       0.817 -11.387  10.813  1.00  0.00     0.202 C
ENDBRANCH   1  15
TORSDOF 4
ENDMDL