MODEL 3
REMARK VINA RESULT: -4.752743078      2.509      3.599
REMARK  3 active torsions:
REMARK  status: ('A' for Active; 'I' for Inactive)
REMARK    1  A    between atoms: S1_2  and  C2_3
REMARK    2  A    between atoms: C9_13  and  N2_14
REMARK    3  A    between atoms: N2_14  and  C10_16
ROOT
HETATM    1  C2  UNL     1       1.649 -13.286  15.634  1.00  0.00     0.040 C
HETATM    2  C3  UNL     1       2.680 -13.716  16.632  1.00  0.00     0.030 C
HETATM    3  C4  UNL     1       2.116 -12.389  14.521  1.00  0.00     0.033 C
HETATM    4  C5  UNL     1       3.219 -11.451  14.949  1.00  0.00     0.041 C
HETATM    5  C6  UNL     1       2.713 -10.608  16.093  1.00  0.00     0.183 C
HETATM    6  C7  UNL     1       3.916 -10.337  16.989  1.00  0.00     0.040 C
HETATM    7  N1  UNL     1       1.736 -11.283  16.910  1.00  0.00    -0.064 N
ATOM      8  H11 UNL     1       1.211 -10.616  17.477  1.00  0.00     0.278 HD
ATOM      9  H12 UNL     1       2.188 -11.814  17.655  1.00  0.00     0.278 HD
HETATM   10  C8  UNL     1       0.848 -12.122  16.145  1.00  0.00     0.227 C
HETATM   11  C9  UNL     1       0.808 -11.622  14.705  1.00  0.00     0.121 C
ENDROOT
BRANCH  11  12
HETATM   12  N2  UNL     1      -0.291 -12.150  13.927  1.00  0.00    -0.361 N
ATOM     13  H2  UNL     1      -0.391 -13.151  13.758  1.00  0.00     0.162 HD
BRANCH  12  14
HETATM   14  C10 UNL     1      -1.124 -11.315  13.465  1.00  0.00     0.348 C
HETATM   15  O1  UNL     1      -2.116 -10.640  13.158  1.00  0.00    -0.284 OA
ENDBRANCH  12  14
ENDBRANCH  11  12
BRANCH   1  16
HETATM   16  S1  UNL     1       0.723 -14.685  15.004  1.00  0.00    -0.161 SA
HETATM   17  C1  UNL     1       0.574 -15.908  16.348  1.00  0.00     0.090 C
ENDBRANCH   1  16
TORSDOF 3
ENDMDL