MODEL 2
REMARK VINA RESULT: -5.725237216      0.899      1.612
REMARK  2 active torsions:
REMARK  status: ('A' for Active; 'I' for Inactive)
REMARK    1  A    between atoms: C4_4  and  N1_5
REMARK    2  A    between atoms: N1_5  and  C5_8
ROOT
HETATM    1  N1  UNL     1       1.214 -12.921  13.492  1.00  0.00    -0.057 N
ATOM      2  H11 UNL     1       2.165 -12.988  13.128  1.00  0.00     0.278 HD
ATOM      3  H12 UNL     1       0.755 -13.558  12.842  1.00  0.00     0.278 HD
ENDROOT
BRANCH   1   4
HETATM    4  C4  UNL     1       0.704 -11.606  13.385  1.00  0.00     0.287 C
HETATM    5  C3  UNL     1      -0.574 -11.470  14.271  1.00  0.00     0.075 C
HETATM    6  C2  UNL     1      -1.148 -10.183  13.754  1.00  0.00     0.130 C
HETATM    7  C1  UNL     1      -2.661 -10.323  13.546  1.00  0.00     0.040 C
HETATM    8  O2  UNL     1      -0.618 -10.037  12.421  1.00  0.00    -0.315 OA
HETATM    9  C11 UNL     1       0.147 -11.181  12.095  1.00  0.00     0.290 C
HETATM   10  O1  UNL     1       0.282 -11.663  10.925  1.00  0.00    -0.263 OA
ENDBRANCH   1   4
BRANCH   1  11
HETATM   11  C5  UNL     1       1.129 -13.397  14.857  1.00  0.00     0.187 C
HETATM   12  C6  UNL     1       2.440 -13.114  15.554  1.00  0.00     0.033 C
HETATM   13  C7  UNL     1       2.538 -13.679  16.940  1.00  0.00     0.002 C
HETATM   14  C8  UNL     1       1.757 -14.925  17.177  1.00  0.00     0.000 C
HETATM   15  C9  UNL     1       1.390 -15.673  15.931  1.00  0.00     0.002 C
HETATM   16  C10 UNL     1       0.646 -14.806  14.969  1.00  0.00     0.033 C
ENDBRANCH   1  11
TORSDOF 2
ENDMDL