MODEL 3
REMARK VINA RESULT: -5.213665493      2.044      2.971
REMARK  3 active torsions:
REMARK  status: ('A' for Active; 'I' for Inactive)
REMARK    1  A    between atoms: C2_2  and  O1_3
REMARK    2  A    between atoms: C2_2  and  C3_5
REMARK    3  A    between atoms: C4_6  and  C5_7
ROOT
HETATM    1  C5  UNL     1       2.036 -11.928  15.184  1.00  0.00     0.101 C
HETATM    2  C6  UNL     1       1.771 -11.840  13.713  1.00  0.00     0.053 C
HETATM    3  O2  UNL     1       3.212 -11.261  15.516  1.00  0.00    -0.371 OA
HETATM    4  C7  UNL     1       3.369 -11.098  16.876  1.00  0.00     0.201 C
HETATM    5  C8  UNL     1       2.145 -10.579  17.573  1.00  0.00     0.146 C
HETATM    6  C9  UNL     1       1.682  -9.252  17.000  1.00  0.00     0.036 C
HETATM    7  C10 UNL     1       1.132  -9.712  15.647  1.00  0.00     0.038 C
HETATM    8  C11 UNL     1       0.909 -11.180  15.891  1.00  0.00     0.160 C
HETATM    9  O3  UNL     1       1.079 -11.406  17.250  1.00  0.00    -0.375 OA
ENDROOT
BRANCH   1  10
HETATM   10  C4  UNL     1       2.059 -13.329  15.622  1.00  0.00     0.011 C
HETATM   11  C3  UNL     1       0.992 -14.113  15.511  1.00  0.00     0.003 C
BRANCH  11  12
HETATM   12  C2  UNL     1       1.005 -15.525  15.948  1.00  0.00     0.136 C
HETATM   13  C1  UNL     1       1.532 -15.530  17.391  1.00  0.00     0.043 C
BRANCH  12  14
HETATM   14  O1  UNL     1       1.937 -16.229  15.191  1.00  0.00    -0.392 OA
ATOM     15  H1  UNL     1       1.700 -17.146  15.261  1.00  0.00     0.210 HD
ENDBRANCH  12  14
ENDBRANCH  11  12
ENDBRANCH   1  10
TORSDOF 3
ENDMDL