MODEL 2
REMARK VINA RESULT: -4.462350430      2.229      2.942
REMARK  1 active torsions:
REMARK  status: ('A' for Active; 'I' for Inactive)
REMARK    1  A    between atoms: C8_8  and  C9_9
ROOT
HETATM    1  C1  UNL     1       1.200  -9.426  14.358  1.00  0.00     0.016 C
HETATM    2  C2  UNL     1       1.086 -10.816  14.945  1.00  0.00    -0.028 C
HETATM    3  C3  UNL     1       0.494 -10.822  16.316  1.00  0.00     0.016 C
HETATM    4  C4  UNL     1       2.413 -11.530  14.806  1.00  0.00    -0.004 C
HETATM    5  C5  UNL     1       2.458 -12.810  15.587  1.00  0.00     0.005 C
HETATM    6  C6  UNL     1       1.375 -13.779  15.192  1.00  0.00     0.002 C
HETATM    7  C7  UNL     1       0.203 -13.126  14.524  1.00  0.00     0.020 C
HETATM    8  C8  UNL     1       0.533 -11.777  13.951  1.00  0.00     0.046 C
HETATM    9  C10 UNL     1       1.951 -11.870  13.382  1.00  0.00     0.025 C
ENDROOT
BRANCH   8  10
HETATM   10  C9  UNL     1      -0.406 -11.275  12.957  1.00  0.00     0.240 C
HETATM   11  N1  UNL     1      -0.092 -11.011  11.599  1.00  0.00    -0.061 NA
HETATM   12  O1  UNL     1      -1.616 -11.044  13.298  1.00  0.00    -0.276 OA
ENDBRANCH   8  10
TORSDOF 1
ENDMDL