MODEL 5
REMARK VINA RESULT: -4.591230415      1.499      2.129
REMARK  1 active torsions:
REMARK  status: ('A' for Active; 'I' for Inactive)
REMARK    1  A    between atoms: N1_2  and  C2_5
ROOT
HETATM    1  C2  UNL     1       0.429 -12.922  14.740  1.00  0.00     0.195 C
HETATM    2  C3  UNL     1      -0.079 -11.816  13.847  1.00  0.00     0.025 C
HETATM    3  C4  UNL     1      -0.156 -10.492  14.543  1.00  0.00    -0.007 C
HETATM    4  C5  UNL     1       0.734 -10.559  15.763  1.00  0.00     0.010 C
HETATM    5  C6  UNL     1       2.032 -11.229  15.408  1.00  0.00    -0.007 C
HETATM    6  C7  UNL     1       2.746 -10.281  14.440  1.00  0.00     0.010 C
HETATM    7  C8  UNL     1       1.788 -10.369  13.248  1.00  0.00    -0.009 C
HETATM    8  C9  UNL     1       0.545  -9.578  13.530  1.00  0.00     0.010 C
HETATM    9  C10 UNL     1       1.309 -11.781  13.242  1.00  0.00     0.002 C
HETATM   10  C11 UNL     1       1.812 -12.428  14.512  1.00  0.00     0.025 C
ENDROOT
BRANCH   1  11
HETATM   11  N1  UNL     1       0.087 -14.245  14.311  1.00  0.00    -0.074 N
HETATM   12  C1  UNL     1       0.501 -15.166  15.358  1.00  0.00     0.267 C
ATOM     13  H12 UNL     1       0.478 -14.480  13.398  1.00  0.00     0.277 HD
ATOM     14  H11 UNL     1      -0.898 -14.340  14.064  1.00  0.00     0.277 HD
ENDBRANCH   1  11
TORSDOF 1
ENDMDL