MODEL 1
REMARK VINA RESULT: -5.104096565      0.000      0.000
REMARK  1 active torsions:
REMARK  status: ('A' for Active; 'I' for Inactive)
REMARK    1  A    between atoms: C1_2  and  C2_4
ROOT
HETATM    1  C2  UNL     1       1.672 -13.160  15.626  1.00  0.00     0.053 C
HETATM    2  C3  UNL     1       1.533 -13.510  14.165  1.00  0.00     0.025 C
HETATM    3  C4  UNL     1       1.095 -12.152  13.613  1.00  0.00    -0.013 C
HETATM    4  C5  UNL     1       2.130 -11.095  13.885  1.00  0.00     0.009 C
HETATM    5  C6  UNL     1       2.545 -11.024  15.313  1.00  0.00    -0.013 C
HETATM    6  C7  UNL     1       1.322 -10.858  16.224  1.00  0.00     0.010 C
HETATM    7  C8  UNL     1       0.593 -12.165  15.892  1.00  0.00     0.005 C
HETATM    8  C9  UNL     1      -0.096 -11.894  14.544  1.00  0.00     0.010 C
HETATM    9  C10 UNL     1       3.006 -12.410  15.752  1.00  0.00     0.025 C
ENDROOT
BRANCH   1  10
HETATM   10  C1  UNL     1       1.696 -14.301  16.520  1.00  0.00     0.182 C
HETATM   11  O1  UNL     1       1.681 -14.097  17.759  1.00  0.00    -0.647 OA
HETATM   12  O2  UNL     1       1.734 -15.593  16.066  1.00  0.00    -0.647 OA
ENDBRANCH   1  10
TORSDOF 1
ENDMDL