MODEL 2
REMARK VINA RESULT: -5.315201715      1.482      1.805
REMARK  1 active torsions:
REMARK  status: ('A' for Active; 'I' for Inactive)
REMARK    1  A    between atoms: C1_2  and  C2_4
ROOT
HETATM    1  C2  UNL     1       2.091 -13.443  15.790  1.00  0.00     0.079 C
HETATM    2  C3  UNL     1       1.509 -13.554  14.437  1.00  0.00     0.014 C
HETATM    3  C4  UNL     1       1.363 -12.321  13.645  1.00  0.00     0.001 C
HETATM    4  C5  UNL     1       2.172 -11.151  14.120  1.00  0.00     0.005 C
HETATM    5  C6  UNL     1       1.469 -10.473  15.266  1.00  0.00    -0.014 C
HETATM    6  C7  UNL     1       2.568 -10.155  16.290  1.00  0.00     0.005 C
HETATM    7  C8  UNL     1       2.719 -11.411  17.076  1.00  0.00     0.006 C
HETATM    8  C9  UNL     1       1.603 -12.352  16.664  1.00  0.00    -0.002 C
HETATM    9  C10 UNL     1       0.610 -11.419  16.060  1.00  0.00     0.010 C
ENDROOT
BRANCH   1  10
HETATM   10  C1  UNL     1       1.861 -14.739  16.486  1.00  0.00     0.235 C
HETATM   11  N1  UNL     1       1.682 -14.666  17.909  1.00  0.00    -0.062 NA
HETATM   12  O1  UNL     1       1.827 -15.819  15.858  1.00  0.00    -0.276 OA
ENDBRANCH   1  10
TORSDOF 1
ENDMDL