MODEL 2
REMARK VINA RESULT: -4.614113078      1.536      2.555
REMARK  1 active torsions:
REMARK  status: ('A' for Active; 'I' for Inactive)
REMARK    1  A    between atoms: C3_3  and  C5_5
ROOT
HETATM    1  C1  UNL     1       1.946 -15.275  18.515  1.00  0.00     0.012 C
HETATM    2  C2  UNL     1       1.583 -14.895  17.435  1.00  0.00    -0.113 C
HETATM    3  C3  UNL     1       1.145 -14.445  16.088  1.00  0.00     0.064 C
HETATM    4  C4  UNL     1       1.473 -15.528  15.101  1.00  0.00     0.024 C
ENDROOT
BRANCH   3   5
HETATM    5  C5  UNL     1       1.808 -13.144  15.824  1.00  0.00     0.008 C
HETATM    6  C6  UNL     1       2.095 -12.319  17.058  1.00  0.00     0.039 C
HETATM    7  C7  UNL     1       2.456 -10.930  16.516  1.00  0.00     0.186 C
HETATM    8  C8  UNL     1       1.147 -10.217  16.239  1.00  0.00     0.033 C
HETATM    9  N1  UNL     1       3.118 -11.088  15.220  1.00  0.00    -0.070 N
HETATM   10  C9  UNL     1       0.196 -11.234  15.618  1.00  0.00     0.009 C
HETATM   11  C10 UNL     1       1.069 -12.250  14.869  1.00  0.00     0.017 C
HETATM   12  C11 UNL     1       2.126 -11.380  14.172  1.00  0.00     0.237 C
ATOM     13  H12 UNL     1       3.692 -10.279  14.986  1.00  0.00     0.277 HD
ATOM     14  H11 UNL     1       3.855 -11.792  15.253  1.00  0.00     0.277 HD
ENDBRANCH   3   5
TORSDOF 1
ENDMDL