MODEL 4
REMARK VINA RESULT: -4.411657768      1.047      1.215
REMARK  1 active torsions:
REMARK  status: ('A' for Active; 'I' for Inactive)
REMARK    1  A    between atoms: C5_5  and  C6_6
ROOT
HETATM    1  C1  UNL     1       1.932 -14.761  17.376  1.00  0.00     0.011 C
HETATM    2  C2  UNL     1       2.095 -14.175  15.972  1.00  0.00     0.007 C
HETATM    3  C3  UNL     1       2.588 -12.781  16.123  1.00  0.00     0.008 C
HETATM    4  C4  UNL     1       2.408 -11.906  14.938  1.00  0.00     0.039 C
HETATM    5  C5  UNL     1       1.221 -12.261  14.080  1.00  0.00     0.224 C
HETATM    6  N2  UNL     1       1.070 -13.679  13.893  1.00  0.00    -0.066 N
ATOM      7  H21 UNL     1       1.864 -14.092  13.405  1.00  0.00     0.278 HD
ATOM      8  H22 UNL     1       0.347 -13.905  13.209  1.00  0.00     0.278 HD
HETATM    9  C9  UNL     1       0.826 -14.308  15.186  1.00  0.00     0.237 C
ENDROOT
BRANCH   5  10
HETATM   10  C6  UNL     1       1.396 -11.610  12.760  1.00  0.00     0.090 C
HETATM   11  N1  UNL     1       0.506 -10.848  12.248  1.00  0.00    -0.400 N
HETATM   12  C7  UNL     1       0.770 -10.259  10.953  1.00  0.00     0.148 C
HETATM   13  C8  UNL     1      -0.700 -10.612  12.966  1.00  0.00     0.148 C
ENDBRANCH   5  10
TORSDOF 1
ENDMDL