MODEL 5
REMARK VINA RESULT: -4.926918905      2.884      4.518
REMARK  1 active torsions:
REMARK  status: ('A' for Active; 'I' for Inactive)
REMARK       I    between atoms: N1_2  and  C2_4
REMARK    1  A    between atoms: C2_4  and  C3_6
ROOT
HETATM    1  C3  UNL     1       0.750 -12.252  13.877  1.00  0.00     0.082 C
HETATM    2  C4  UNL     1       1.855 -11.332  14.309  1.00  0.00     0.015 C
HETATM    3  C5  UNL     1       2.773 -12.295  15.049  1.00  0.00     0.010 C
HETATM    4  C6  UNL     1       1.803 -13.084  15.879  1.00  0.00    -0.040 A
HETATM    5  C7  UNL     1       1.728 -12.689  17.336  1.00  0.00     0.015 C
HETATM    6  C8  UNL     1       1.882 -14.583  15.657  1.00  0.00     0.010 A
HETATM    7  C9  UNL     1       0.566 -14.500  14.927  1.00  0.00     0.007 A
HETATM    8  C10 UNL     1       0.471 -13.024  15.156  1.00  0.00     0.007 A
ENDROOT
BRANCH   1   9
HETATM    9  C2  UNL     1      -0.407 -11.519  13.380  1.00  0.00     0.221 C
HETATM   10  N1  UNL     1      -1.490 -11.148  14.201  1.00  0.00    -0.365 N
HETATM   11  C1  UNL     1      -2.618 -10.426  13.683  1.00  0.00     0.149 C
ATOM     12  H1  UNL     1      -1.472 -11.400  15.189  1.00  0.00     0.161 HD
HETATM   13  O1  UNL     1      -0.446 -11.200  12.165  1.00  0.00    -0.273 OA
ENDBRANCH   1   9
TORSDOF 1
ENDMDL