MODEL 5
REMARK VINA RESULT: -4.757681439      1.415      2.329
REMARK  2 active torsions:
REMARK  status: ('A' for Active; 'I' for Inactive)
REMARK    1  A    between atoms: N1_2  and  C2_4
REMARK    2  A    between atoms: C5_7  and  C9_11
ROOT
HETATM    1  C2  UNL     1       0.240 -12.104  14.051  1.00  0.00     0.037 C
HETATM    2  C3  UNL     1       1.588 -11.840  13.488  1.00  0.00     0.015 C
HETATM    3  C4  UNL     1       2.367 -10.727  14.185  1.00  0.00     0.012 C
HETATM    4  C5  UNL     1       1.218  -9.954  14.758  1.00  0.00    -0.004 C
HETATM    5  C6  UNL     1       0.937 -10.731  16.058  1.00  0.00     0.012 C
HETATM    6  C7  UNL     1      -0.171 -11.547  15.392  1.00  0.00     0.015 C
HETATM    7  C8  UNL     1      -0.981 -10.256  15.066  1.00  0.00     0.018 C
HETATM    8  C9  UNL     1      -0.023  -9.861  13.963  1.00  0.00    -0.026 A
HETATM    9  C10 UNL     1       0.227 -10.127  12.630  1.00  0.00     0.002 A
HETATM   10  C11 UNL     1       1.330 -11.093  12.153  1.00  0.00     0.013 C
HETATM   11  C12 UNL     1      -0.534 -11.139  13.220  1.00  0.00     0.028 A
ENDROOT
BRANCH   1  12
HETATM   12  N1  UNL     1      -0.202 -13.456  14.015  1.00  0.00    -0.416 N
HETATM   13  C1  UNL     1       0.532 -14.406  14.767  1.00  0.00     0.140 C
ATOM     14  H1  UNL     1      -1.017 -13.732  13.466  1.00  0.00     0.153 HD
ENDBRANCH   1  12
TORSDOF 2
ENDMDL