MODEL 2
REMARK VINA RESULT: -4.837966157      1.182      1.182
REMARK  1 active torsions:
REMARK  status: ('A' for Active; 'I' for Inactive)
REMARK    1  A    between atoms: C8_8  and  C10_10
ROOT
HETATM    1  C1  UNL     1       1.956 -14.539  16.186  1.00  0.00     0.010 C
HETATM    2  C2  UNL     1       1.725 -13.669  14.972  1.00  0.00    -0.014 C
HETATM    3  C3  UNL     1       0.242 -13.318  14.853  1.00  0.00     0.010 C
HETATM    4  C4  UNL     1       0.092 -11.903  15.320  1.00  0.00     0.003 C
HETATM    5  C5  UNL     1       1.337 -11.762  16.215  1.00  0.00     0.011 C
HETATM    6  C6  UNL     1       2.313 -12.284  15.144  1.00  0.00    -0.009 C
HETATM    7  C7  UNL     1       1.931 -11.490  13.923  1.00  0.00     0.023 C
HETATM    8  C8  UNL     1       0.525 -10.998  14.190  1.00  0.00     0.039 C
HETATM    9  C9  UNL     1       0.579  -9.551  14.611  1.00  0.00     0.025 C
ENDROOT
BRANCH   8  10
HETATM   10  C10 UNL     1      -0.362 -11.126  13.040  1.00  0.00     0.239 C
HETATM   11  N1  UNL     1      -1.730 -10.784  13.186  1.00  0.00    -0.061 NA
HETATM   12  O1  UNL     1       0.088 -11.534  11.943  1.00  0.00    -0.276 OA
ENDBRANCH   8  10
TORSDOF 1
ENDMDL