MODEL 4
REMARK VINA RESULT: -4.287088357      2.015      4.148
REMARK  3 active torsions:
REMARK  status: ('A' for Active; 'I' for Inactive)
REMARK    1  A    between atoms: C3_3  and  C4_4
REMARK    2  A    between atoms: C4_4  and  O1_5
REMARK    3  A    between atoms: C4_4  and  C5_7
ROOT
HETATM    1  C1  UNL     1      -2.407  -8.577  16.300  1.00  0.00     0.112 C
HETATM    2  C2  UNL     1      -1.658  -9.634  15.613  1.00  0.00    -0.108 C
HETATM    3  C3  UNL     1      -1.022 -10.501  15.057  1.00  0.00    -0.075 C
ENDROOT
BRANCH   3   4
HETATM    4  C4  UNL     1      -0.224 -11.548  14.385  1.00  0.00     0.202 C
BRANCH   4   5
HETATM    5  O1  UNL     1      -1.042 -12.204  13.466  1.00  0.00    -0.383 OA
ATOM      6  H1  UNL     1      -1.379 -12.992  13.874  1.00  0.00     0.211 HD
ENDBRANCH   4   5
BRANCH   4   7
HETATM    7  C5  UNL     1       0.327 -12.485  15.433  1.00  0.00     0.043 A
HETATM    8  C6  UNL     1       1.208 -13.597  15.139  1.00  0.00    -0.033 A
HETATM    9  C7  UNL     1       1.477 -13.916  13.695  1.00  0.00     0.016 C
HETATM   10  C8  UNL     1       1.150 -14.840  16.031  1.00  0.00     0.016 C
HETATM   11  C9  UNL     1       1.757 -12.353  15.738  1.00  0.00    -0.033 A
HETATM   12  C10 UNL     1       2.688 -11.551  14.886  1.00  0.00     0.016 C
HETATM   13  C11 UNL     1       2.096 -12.314  17.229  1.00  0.00     0.016 C
ENDBRANCH   4   7
ENDBRANCH   3   4
TORSDOF 3
ENDMDL