MODEL 5
REMARK VINA RESULT: -4.889814803      3.007      4.605
REMARK  1 active torsions:
REMARK  status: ('A' for Active; 'I' for Inactive)
REMARK       I    between atoms: N1_2  and  C2_4
REMARK    1  A    between atoms: C2_4  and  C3_6
ROOT
HETATM    1  C3  UNL     1       1.037 -11.114  14.013  1.00  0.00     0.082 C
HETATM    2  C4  UNL     1       2.481 -11.516  14.140  1.00  0.00     0.020 C
HETATM    3  C5  UNL     1       2.795 -12.212  15.400  1.00  0.00    -0.005 C
HETATM    4  C6  UNL     1       2.021 -11.798  16.602  1.00  0.00    -0.009 C
HETATM    5  C7  UNL     1       0.582 -11.479  16.345  1.00  0.00     0.010 C
HETATM    6  C8  UNL     1       0.239 -11.995  14.944  1.00  0.00    -0.001 C
HETATM    7  C9  UNL     1       0.714 -13.432  14.906  1.00  0.00     0.010 C
HETATM    8  C10 UNL     1       2.096 -13.563  15.498  1.00  0.00    -0.009 C
HETATM    9  C11 UNL     1       2.042 -13.283  17.007  1.00  0.00     0.010 C
ENDROOT
BRANCH   1  10
HETATM   10  C2  UNL     1       0.572 -11.181  12.613  1.00  0.00     0.221 C
HETATM   11  N1  UNL     1       1.437 -11.817  11.679  1.00  0.00    -0.365 N
HETATM   12  C1  UNL     1       1.053 -11.923  10.285  1.00  0.00     0.149 C
ATOM     13  H1  UNL     1       2.329 -12.200  11.992  1.00  0.00     0.161 HD
HETATM   14  O1  UNL     1      -0.512 -10.716  12.239  1.00  0.00    -0.273 OA
ENDBRANCH   1  10
TORSDOF 1
ENDMDL