MODEL 4
REMARK VINA RESULT: -4.803104368      1.584      1.859
REMARK  2 active torsions:
REMARK  status: ('A' for Active; 'I' for Inactive)
REMARK    1  A    between atoms: C7_7  and  C8_8
REMARK       I    between atoms: C8_8  and  N1_10
REMARK    2  A    between atoms: N1_10  and  C9_12
ROOT
HETATM    1  C1  UNL     1       1.529 -11.316  16.581  1.00  0.00     0.015 C
HETATM    2  C2  UNL     1       2.351 -11.315  15.324  1.00  0.00    -0.036 C
HETATM    3  C3  UNL     1       3.794 -11.109  15.718  1.00  0.00     0.015 C
HETATM    4  C4  UNL     1       1.937 -10.052  14.556  1.00  0.00     0.010 C
HETATM    5  C5  UNL     1       2.094 -10.476  13.107  1.00  0.00     0.002 C
HETATM    6  C6  UNL     1       1.598 -11.887  13.135  1.00  0.00     0.015 C
HETATM    7  C7  UNL     1       2.170 -12.449  14.420  1.00  0.00     0.086 C
ENDROOT
BRANCH   7   8
HETATM    8  C8  UNL     1       1.422 -13.606  14.917  1.00  0.00     0.228 C
HETATM    9  O1  UNL     1       0.217 -13.704  14.518  1.00  0.00    -0.273 OA
HETATM   10  N1  UNL     1       1.876 -14.608  15.771  1.00  0.00    -0.305 N
ATOM     11  H1  UNL     1       2.834 -14.574  16.117  1.00  0.00     0.171 HD
BRANCH  10  12
HETATM   12  C9  UNL     1       1.034 -15.666  16.163  1.00  0.00     0.355 C
HETATM   13  O2  UNL     1       1.093 -16.214  17.305  1.00  0.00    -0.283 OA
ENDBRANCH  10  12
ENDBRANCH   7   8
TORSDOF 2
ENDMDL