MODEL 4
REMARK VINA RESULT: -4.230461258      1.804      3.526
REMARK  2 active torsions:
REMARK  status: ('A' for Active; 'I' for Inactive)
REMARK    1  A    between atoms: C2_2  and  C3_3
REMARK    2  A    between atoms: C9_9  and  C10_10
ROOT
HETATM    1  C3  UNL     1       2.538 -11.053  16.037  1.00  0.00    -0.018 A
HETATM    2  C4  UNL     1       3.964 -10.995  16.603  1.00  0.00     0.020 C
HETATM    3  C5  UNL     1       1.491 -11.203  17.125  1.00  0.00     0.025 A
HETATM    4  C6  UNL     1       1.829 -12.271  16.149  1.00  0.00    -0.017 A
HETATM    5  C7  UNL     1       2.354 -13.596  16.544  1.00  0.00     0.012 A
HETATM    6  C8  UNL     1       1.248 -14.232  15.723  1.00  0.00     0.015 A
HETATM    7  C9  UNL     1       0.735 -12.838  15.353  1.00  0.00     0.084 A
ENDROOT
BRANCH   1   8
HETATM    8  C2  UNL     1       2.284  -9.974  15.057  1.00  0.00    -0.027 C
HETATM    9  C1  UNL     1       3.168  -9.795  14.083  1.00  0.00     0.008 C
ENDBRANCH   1   8
BRANCH   7  10
HETATM   10  C10 UNL     1       0.659 -12.564  13.927  1.00  0.00     0.236 C
HETATM   11  N1  UNL     1      -0.437 -11.895  13.350  1.00  0.00    -0.062 NA
HETATM   12  O1  UNL     1       1.589 -12.926  13.163  1.00  0.00    -0.276 OA
ENDBRANCH   7  10
TORSDOF 2
ENDMDL