MODEL 2
REMARK VINA RESULT: -5.512604687      0.718      1.859
REMARK  1 active torsions:
REMARK  status: ('A' for Active; 'I' for Inactive)
REMARK       I    between atoms: N1_2  and  C2_4
REMARK    1  A    between atoms: C2_4  and  C3_6
ROOT
HETATM    1  C3  UNL     1       1.056 -13.724  15.576  1.00  0.00     0.083 C
HETATM    2  C4  UNL     1       1.730 -13.718  14.236  1.00  0.00     0.019 C
HETATM    3  C5  UNL     1       1.741 -12.261  13.756  1.00  0.00    -0.013 C
HETATM    4  C6  UNL     1       2.746 -11.561  14.652  1.00  0.00     0.010 C
HETATM    5  C7  UNL     1       2.150 -11.494  16.027  1.00  0.00    -0.009 C
HETATM    6  C8  UNL     1       1.108 -10.362  15.962  1.00  0.00     0.010 C
HETATM    7  C9  UNL     1       0.146 -11.453  15.468  1.00  0.00    -0.009 C
HETATM    8  C10 UNL     1       0.378 -11.636  14.004  1.00  0.00     0.010 C
HETATM    9  C11 UNL     1       1.024 -12.420  16.272  1.00  0.00     0.007 C
ENDROOT
BRANCH   1  10
HETATM   10  C2  UNL     1       1.595 -14.821  16.427  1.00  0.00     0.221 C
HETATM   11  N1  UNL     1       1.710 -14.699  17.837  1.00  0.00    -0.365 N
HETATM   12  C1  UNL     1       2.225 -15.739  18.682  1.00  0.00     0.149 C
ATOM     13  H1  UNL     1       1.412 -13.826  18.272  1.00  0.00     0.161 HD
HETATM   14  O1  UNL     1       1.971 -15.910  15.919  1.00  0.00    -0.273 OA
ENDBRANCH   1  10
TORSDOF 1
ENDMDL