MODEL 2
REMARK VINA RESULT: -5.341707040      0.486      1.472
REMARK  2 active torsions:
REMARK  status: ('A' for Active; 'I' for Inactive)
REMARK       I    between atoms: C1_2  and  N1_3
REMARK    1  A    between atoms: C1_2  and  C5_8
REMARK    2  A    between atoms: N1_3  and  C2_5
ROOT
HETATM    1  C5  UNL     1       2.026 -14.364  15.608  1.00  0.00     0.084 C
HETATM    2  C6  UNL     1       0.752 -15.100  15.300  1.00  0.00     0.058 C
HETATM    3  C7  UNL     1       0.387 -16.147  16.262  1.00  0.00     0.056 C
HETATM    4  N2  UNL     1       0.895 -16.072  17.571  1.00  0.00    -0.402 N
ATOM      5  H2  UNL     1       0.408 -16.520  18.346  1.00  0.00     0.158 HD
HETATM    6  C8  UNL     1       2.096 -15.360  17.785  1.00  0.00     0.119 C
HETATM    7  C9  UNL     1       1.955 -13.995  17.097  1.00  0.00     0.034 C
ENDROOT
BRANCH   1   8
HETATM    8  C1  UNL     1       2.180 -13.129  14.844  1.00  0.00     0.222 C
HETATM    9  O1  UNL     1       3.026 -12.282  15.235  1.00  0.00    -0.273 OA
HETATM   10  N1  UNL     1       1.441 -12.804  13.680  1.00  0.00    -0.356 N
ATOM     11  H1  UNL     1       0.751 -13.479  13.349  1.00  0.00     0.162 HD
BRANCH  10  12
HETATM   12  C2  UNL     1       1.601 -11.588  12.938  1.00  0.00     0.084 A
HETATM   13  C3  UNL     1       0.499 -11.011  12.149  1.00  0.00     0.027 A
HETATM   14  C4  UNL     1       1.626 -11.696  11.457  1.00  0.00     0.027 A
ENDBRANCH  10  12
ENDBRANCH   1   8
TORSDOF 2
ENDMDL