MODEL 3
REMARK VINA RESULT: -4.593158516      2.437      3.583
REMARK  2 active torsions:
REMARK  status: ('A' for Active; 'I' for Inactive)
REMARK    1  A    between atoms: C3_3  and  C4_4
REMARK    2  A    between atoms: C8_10  and  C9_11
ROOT
HETATM    1  C1  UNL     1       0.714 -14.716  15.207  1.00  0.00     0.098 C
HETATM    2  C2  UNL     1       1.041 -13.550  15.411  1.00  0.00    -0.167 C
HETATM    3  C3  UNL     1       1.438 -12.189  15.673  1.00  0.00     0.096 C
HETATM    4  C5  UNL     1       1.953 -12.123  17.169  1.00  0.00     0.032 C
HETATM    5  C6  UNL     1       1.713 -10.677  17.539  1.00  0.00     0.003 C
HETATM    6  C7  UNL     1       0.965 -10.057  16.360  1.00  0.00     0.011 C
HETATM    7  C8  UNL     1       0.257 -11.314  15.846  1.00  0.00     0.036 C
ENDROOT
BRANCH   3   8
HETATM    8  C4  UNL     1       2.554 -11.734  14.878  1.00  0.00     0.251 C
HETATM    9  N1  UNL     1       2.567 -11.006  13.659  1.00  0.00    -0.061 NA
HETATM   10  O1  UNL     1       3.735 -12.020  15.323  1.00  0.00    -0.275 OA
ENDBRANCH   3   8
BRANCH   7  11
HETATM   11  C9  UNL     1      -0.749 -11.150  14.871  1.00  0.00    -0.024 C
HETATM   12  C10 UNL     1      -1.670 -10.226  14.817  1.00  0.00    -0.034 C
HETATM   13  C11 UNL     1      -2.674 -10.222  13.676  1.00  0.00     0.036 C
ENDBRANCH   7  11
TORSDOF 2
ENDMDL