MODEL 3
REMARK VINA RESULT: -4.435322293      0.883      1.676
REMARK  2 active torsions:
REMARK  status: ('A' for Active; 'I' for Inactive)
REMARK    1  A    between atoms: C5_5  and  C6_6
REMARK    2  A    between atoms: N2_8  and  N3_10
ROOT
HETATM    1  C6  UNL     1       0.964 -12.648  15.351  1.00  0.00     0.119 C
HETATM    2  N1  UNL     1       0.279 -13.398  14.355  1.00  0.00    -0.086 NA
HETATM    3  N2  UNL     1       1.114 -11.400  15.110  1.00  0.00    -0.208 N
ATOM      4  H2  UNL     1       1.607 -10.874  15.831  1.00  0.00     0.195 HD
ENDROOT
BRANCH   1   5
HETATM    5  C5  UNL     1       1.484 -13.247  16.600  1.00  0.00     0.060 A
HETATM    6  C2  UNL     1       1.905 -14.623  16.743  1.00  0.00    -0.037 A
HETATM    7  C1  UNL     1       1.736 -15.696  15.715  1.00  0.00     0.015 C
HETATM    8  C3  UNL     1       1.924 -15.206  18.146  1.00  0.00     0.015 C
HETATM    9  C4  UNL     1       2.973 -13.565  16.544  1.00  0.00     0.022 A
ENDBRANCH   1   5
BRANCH   3  10
HETATM   10  N3  UNL     1       0.711 -10.669  14.029  1.00  0.00     0.001 N
HETATM   11  C7  UNL     1      -0.742 -10.683  14.001  1.00  0.00     0.301 C
HETATM   12  C8  UNL     1       1.097  -9.262  14.117  1.00  0.00     0.301 C
HETATM   13  C9  UNL     1       1.246 -11.145  12.756  1.00  0.00     0.301 C
ENDBRANCH   3  10
TORSDOF 2
ENDMDL