MODEL 2
REMARK VINA RESULT: -4.879009977      1.320      2.253
REMARK  2 active torsions:
REMARK  status: ('A' for Active; 'I' for Inactive)
REMARK       I    between atoms: C1_2  and  N1_3
REMARK    1  A    between atoms: C1_2  and  C9_12
REMARK    2  A    between atoms: N1_3  and  C2_5
ROOT
HETATM    1  C2  UNL     1       0.221 -11.368  13.671  1.00  0.00     0.092 C
HETATM    2  C3  UNL     1      -0.914 -10.523  13.140  1.00  0.00     0.009 C
HETATM    3  C4  UNL     1      -2.124 -10.615  14.011  1.00  0.00     0.007 C
HETATM    4  C5  UNL     1      -1.878  -9.916  15.305  1.00  0.00     0.001 C
HETATM    5  C6  UNL     1      -0.462 -10.167  15.754  1.00  0.00     0.007 C
HETATM    6  C7  UNL     1       0.511 -10.193  14.607  1.00  0.00     0.009 C
HETATM    7  C8  UNL     1      -0.015  -9.314  13.462  1.00  0.00     0.013 C
ENDROOT
BRANCH   1   8
HETATM    8  N1  UNL     1      -0.086 -12.584  14.322  1.00  0.00    -0.355 N
HETATM    9  C1  UNL     1       0.920 -13.508  14.692  1.00  0.00     0.222 C
HETATM   10  O1  UNL     1       2.110 -13.210  14.418  1.00  0.00    -0.273 OA
ATOM     11  H1  UNL     1      -1.060 -12.802  14.533  1.00  0.00     0.162 HD
BRANCH   9  12
HETATM   12  C9  UNL     1       0.657 -14.786  15.370  1.00  0.00     0.078 A
HETATM   13  C10 UNL     1       1.697 -15.838  15.481  1.00  0.00     0.015 A
HETATM   14  C11 UNL     1       1.415 -14.944  16.680  1.00  0.00     0.015 A
ENDBRANCH   9  12
ENDBRANCH   1   8
TORSDOF 2
ENDMDL