MODEL 5
REMARK VINA RESULT: -4.595796925      0.742      1.166
REMARK  2 active torsions:
REMARK  status: ('A' for Active; 'I' for Inactive)
REMARK    1  A    between atoms: C5_5  and  N1_6
REMARK       I    between atoms: N1_6  and  C6_8
REMARK    2  A    between atoms: C6_8  and  C7_10
ROOT
HETATM    1  N1  UNL     1       0.254 -12.742  14.258  1.00  0.00    -0.356 N
ATOM      2  H1  UNL     1       0.382 -13.051  13.294  1.00  0.00     0.162 HD
HETATM    3  C6  UNL     1      -0.349 -11.475  14.499  1.00  0.00     0.222 C
HETATM    4  O1  UNL     1      -0.524 -11.063  15.698  1.00  0.00    -0.273 OA
ENDROOT
BRANCH   1   5
HETATM    5  C5  UNL     1       0.685 -13.598  15.317  1.00  0.00     0.084 C
HETATM    6  C4  UNL     1       0.416 -15.045  15.110  1.00  0.00     0.025 C
HETATM    7  C3  UNL     1       1.707 -15.750  15.512  1.00  0.00     0.006 C
HETATM    8  C2  UNL     1       2.437 -14.742  16.364  1.00  0.00    -0.017 C
HETATM    9  C1  UNL     1       1.895 -14.637  17.756  1.00  0.00     0.010 C
HETATM   10  C10 UNL     1       2.170 -13.453  15.613  1.00  0.00     0.029 C
ENDBRANCH   1   5
BRANCH   3  11
HETATM   11  C7  UNL     1      -0.796 -10.587  13.395  1.00  0.00     0.078 A
HETATM   12  C8  UNL     1       0.051  -9.357  13.097  1.00  0.00     0.015 A
HETATM   13  C9  UNL     1       0.025 -10.484  12.150  1.00  0.00     0.015 A
ENDBRANCH   3  11
TORSDOF 2
ENDMDL