MODEL 4
REMARK VINA RESULT: -5.175407350      2.328      4.637
REMARK  2 active torsions:
REMARK  status: ('A' for Active; 'I' for Inactive)
REMARK    1  A    between atoms: C2_2  and  C3_4
REMARK    2  A    between atoms: C9_10  and  C10_11
ROOT
HETATM    1  C3  UNL     1      -0.169  12.622  14.074  1.00  0.00     0.059 C
HETATM    2  C4  UNL     1      -0.359  12.409  15.564  1.00  0.00     0.018 C
HETATM    3  C5  UNL     1      -1.824  12.682  15.852  1.00  0.00    -0.001 C
HETATM    4  C6  UNL     1      -2.414  12.332  14.468  1.00  0.00     0.011 C
HETATM    5  C7  UNL     1      -1.475  13.302  13.722  1.00  0.00    -0.002 C
HETATM    6  C8  UNL     1      -1.528  14.578  14.531  1.00  0.00     0.019 C
HETATM    7  C9  UNL     1      -2.158  14.136  15.833  1.00  0.00     0.079 C
ENDROOT
BRANCH   1   8
HETATM    8  C2  UNL     1       0.019  11.342  13.355  1.00  0.00     0.127 C
HETATM    9  C1  UNL     1       0.224  10.044  14.020  1.00  0.00     0.091 C
HETATM   10  O1  UNL     1       0.007  11.332  12.118  1.00  0.00    -0.298 OA
ENDBRANCH   1   8
BRANCH   7  11
HETATM   11  C10 UNL     1      -1.693  14.891  16.995  1.00  0.00     0.235 C
HETATM   12  N1  UNL     1      -0.951  16.075  16.790  1.00  0.00    -0.062 NA
HETATM   13  O2  UNL     1      -1.962  14.473  18.144  1.00  0.00    -0.276 OA
ENDBRANCH   7  11
TORSDOF 2
ENDMDL