MODEL 2
REMARK VINA RESULT: -4.838980081      0.230      1.009
REMARK  2 active torsions:
REMARK  status: ('A' for Active; 'I' for Inactive)
REMARK       I    between atoms: C2_2  and  N1_4
REMARK    1  A    between atoms: N1_4  and  C3_6
REMARK    2  A    between atoms: C6_9  and  N2_10
ROOT
HETATM    1  C3  UNL     1      -2.162  12.482  14.006  1.00  0.00     0.086 C
HETATM    2  C4  UNL     1      -2.667  11.797  15.252  1.00  0.00     0.027 C
HETATM    3  C5  UNL     1      -2.083  12.613  16.382  1.00  0.00     0.027 C
HETATM    4  C6  UNL     1      -2.140  13.996  15.796  1.00  0.00     0.080 C
HETATM    5  C9  UNL     1      -1.456  13.743  14.469  1.00  0.00     0.050 C
ENDROOT
BRANCH   1   6
HETATM    6  N1  UNL     1      -1.315  11.594  13.252  1.00  0.00    -0.357 N
HETATM    7  C2  UNL     1      -1.311  11.511  11.847  1.00  0.00     0.213 C
HETATM    8  C1  UNL     1      -0.412  10.576  11.124  1.00  0.00     0.117 C
HETATM    9  O1  UNL     1      -2.071  12.228  11.134  1.00  0.00    -0.274 OA
ATOM     10  H1  UNL     1      -0.679  10.987  13.768  1.00  0.00     0.162 HD
ENDBRANCH   1   6
BRANCH   4  11
HETATM   11  N2  UNL     1      -1.656  15.039  16.560  1.00  0.00    -0.416 N
HETATM   12  C7  UNL     1      -2.024  15.106  17.929  1.00  0.00     0.143 C
HETATM   13  C8  UNL     1      -0.566  15.818  16.150  1.00  0.00     0.143 C
ENDBRANCH   4  11
TORSDOF 2
ENDMDL