MODEL 4
REMARK VINA RESULT: -4.833528188      1.892      2.193
REMARK  2 active torsions:
REMARK  status: ('A' for Active; 'I' for Inactive)
REMARK       I    between atoms: N1_2  and  C2_3
REMARK    1  A    between atoms: N1_2  and  C7_12
REMARK    2  A    between atoms: C2_3  and  C3_5
ROOT
HETATM    1  C1  UNL     1      -0.232  11.099  15.720  1.00  0.00     0.153 C
HETATM    2  N1  UNL     1      -1.617  11.278  15.391  1.00  0.00    -0.351 N
HETATM    3  C2  UNL     1      -2.228  12.520  15.702  1.00  0.00     0.225 C
HETATM    4  O1  UNL     1      -3.455  12.720  15.422  1.00  0.00    -0.273 OA
ENDROOT
BRANCH   3   5
HETATM    5  C3  UNL     1      -1.501  13.613  16.345  1.00  0.00     0.105 C
HETATM    6  C4  UNL     1      -0.914  14.584  15.313  1.00  0.00     0.043 C
HETATM    7  C5  UNL     1      -0.691  15.806  16.140  1.00  0.00     0.233 C
HETATM    8  N2  UNL     1      -1.468  15.683  17.337  1.00  0.00    -0.074 N
HETATM    9  C6  UNL     1      -2.420  14.589  17.084  1.00  0.00     0.246 C
ATOM     10  H22 UNL     1      -0.906  15.550  18.178  1.00  0.00     0.277 HD
ATOM     11  H21 UNL     1      -1.913  16.554  17.626  1.00  0.00     0.277 HD
ENDBRANCH   3   5
BRANCH   2  12
HETATM   12  C7  UNL     1      -2.415  10.246  14.759  1.00  0.00     0.086 C
HETATM   13  C8  UNL     1      -1.918   8.831  14.972  1.00  0.00     0.025 C
HETATM   14  C9  UNL     1      -2.371   8.541  13.536  1.00  0.00     0.004 C
HETATM   15  C10 UNL     1      -2.212  10.047  13.284  1.00  0.00     0.025 C
ENDBRANCH   2  12
TORSDOF 2
ENDMDL