MODEL 4
REMARK VINA RESULT: -4.769289198      1.667      2.756
REMARK  2 active torsions:
REMARK  status: ('A' for Active; 'I' for Inactive)
REMARK    1  A    between atoms: C2_2  and  C3_4
REMARK    2  A    between atoms: C3_4  and  C4_5
ROOT
HETATM    1  C3  UNL     1      -0.623  12.115  14.979  1.00  0.00     0.030 C
HETATM    2  C7  UNL     1      -2.051  12.220  15.555  1.00  0.00     0.025 C
HETATM    3  C8  UNL     1      -1.569  13.391  16.383  1.00  0.00     0.019 C
HETATM    4  C9  UNL     1      -2.344  14.666  16.263  1.00  0.00     0.237 C
HETATM    5  N1  UNL     1      -1.759  15.468  15.215  1.00  0.00    -0.074 N
ATOM      6  H11 UNL     1      -1.206  16.254  15.558  1.00  0.00     0.277 HD
ATOM      7  H12 UNL     1      -2.439  16.021  14.692  1.00  0.00     0.277 HD
HETATM    8  C10 UNL     1      -1.002  14.528  14.390  1.00  0.00     0.238 C
HETATM    9  C11 UNL     1      -0.440  13.523  15.380  1.00  0.00     0.033 C
ENDROOT
BRANCH   1  10
HETATM   10  C2  UNL     1      -0.667  11.857  13.493  1.00  0.00     0.132 C
HETATM   11  C1  UNL     1      -1.924  11.303  12.923  1.00  0.00     0.091 C
HETATM   12  O1  UNL     1       0.260  12.073  12.748  1.00  0.00    -0.298 OA
ENDBRANCH   1  10
BRANCH   1  13
HETATM   13  C4  UNL     1       0.200  11.043  15.616  1.00  0.00     0.002 A
HETATM   14  C5  UNL     1       0.615   9.793  14.998  1.00  0.00     0.006 A
HETATM   15  C6  UNL     1      -0.386   9.811  16.199  1.00  0.00     0.006 A
ENDBRANCH   1  13
TORSDOF 2
ENDMDL