MODEL 5
REMARK VINA RESULT: -4.890257714      1.773      2.390
REMARK  2 active torsions:
REMARK  status: ('A' for Active; 'I' for Inactive)
REMARK    1  A    between atoms: S1_2  and  N1_5
REMARK    2  A    between atoms: N1_5  and  C2_7
ROOT
HETATM    1  C2  UNL     1      -0.779  13.231  14.870  1.00  0.00     0.092 C
HETATM    2  C3  UNL     1      -0.498  14.708  14.814  1.00  0.00     0.026 C
HETATM    3  C4  UNL     1      -1.570  15.552  15.399  1.00  0.00     0.002 C
HETATM    4  C5  UNL     1      -1.720  15.150  16.871  1.00  0.00     0.000 C
HETATM    5  C6  UNL     1      -2.238  13.750  16.863  1.00  0.00     0.002 C
HETATM    6  C7  UNL     1      -1.420  12.773  16.129  1.00  0.00     0.026 C
ENDROOT
BRANCH   1   7
HETATM    7  N1  UNL     1       0.386  12.430  14.668  1.00  0.00    -0.315 N
ATOM      8  H1  UNL     1       1.251  12.589  15.185  1.00  0.00     0.172 HD
BRANCH   7   9
HETATM    9  S1  UNL     1       0.240  11.198  13.512  1.00  0.00     0.223 S
HETATM   10  C1  UNL     1       1.703  10.222  13.335  1.00  0.00     0.185 C
HETATM   11  O1  UNL     1      -0.025  11.845  12.179  1.00  0.00    -0.206 OA
HETATM   12  O2  UNL     1      -0.905  10.265  13.778  1.00  0.00    -0.206 OA
ENDBRANCH   7   9
ENDBRANCH   1   7
TORSDOF 2
ENDMDL