MODEL 1
REMARK VINA RESULT: -5.149961309      0.000      0.000
REMARK  2 active torsions:
REMARK  status: ('A' for Active; 'I' for Inactive)
REMARK    1  A    between atoms: C4_4  and  C5_5
REMARK       I    between atoms: C5_5  and  N1_7
REMARK    2  A    between atoms: N1_7  and  C6_9
ROOT
HETATM    1  C5  UNL     1      -0.782  12.125  14.389  1.00  0.00     0.222 C
HETATM    2  O1  UNL     1      -1.171  12.693  13.351  1.00  0.00    -0.273 OA
HETATM    3  N1  UNL     1      -1.013  12.695  15.656  1.00  0.00    -0.354 N
ATOM      4  H1  UNL     1      -0.692  12.224  16.502  1.00  0.00     0.162 HD
ENDROOT
BRANCH   3   5
HETATM    5  C6  UNL     1      -1.709  13.953  15.740  1.00  0.00     0.110 C
HETATM    6  C7  UNL     1      -2.350  14.162  17.103  1.00  0.00     0.053 C
HETATM    7  C8  UNL     1      -1.748  15.488  17.544  1.00  0.00     0.169 C
HETATM    8  O2  UNL     1      -1.494  16.125  16.318  1.00  0.00    -0.389 OA
HETATM    9  C9  UNL     1      -0.737  15.123  15.673  1.00  0.00     0.192 C
ENDBRANCH   3   5
BRANCH   1  10
HETATM   10  C4  UNL     1      -0.072  10.839  14.295  1.00  0.00     0.082 A
HETATM   11  C2  UNL     1       1.443  10.982  14.461  1.00  0.00    -0.005 A
HETATM   12  C1  UNL     1       2.257  10.210  13.429  1.00  0.00     0.011 C
HETATM   13  C3  UNL     1       0.639  10.268  15.462  1.00  0.00     0.019 A
ENDBRANCH   1  10
TORSDOF 2
ENDMDL