MODEL 3
REMARK VINA RESULT: -4.818083765      2.888      3.976
REMARK  2 active torsions:
REMARK  status: ('A' for Active; 'I' for Inactive)
REMARK    1  A    between atoms: C2_2  and  C3_3
REMARK    2  A    between atoms: C4_9  and  C5_10
ROOT
HETATM    1  C3  UNL     1      -1.262  13.775  14.378  1.00  0.00     0.135 C
HETATM    2  N1  UNL     1      -0.084  14.655  14.283  1.00  0.00    -0.309 N
ATOM      3  H1  UNL     1       0.782  14.685  13.746  1.00  0.00     0.172 HD
HETATM    4  S1  UNL     1      -0.854  15.622  15.512  1.00  0.00     0.234 S
HETATM    5  O1  UNL     1       0.080  16.290  16.439  1.00  0.00    -0.205 OA
HETATM    6  O2  UNL     1      -1.935  16.420  14.920  1.00  0.00    -0.205 OA
HETATM    7  C4  UNL     1      -1.203  13.918  15.842  1.00  0.00     0.159 C
ENDROOT
BRANCH   7   8
HETATM    8  C5  UNL     1      -2.419  13.749  16.659  1.00  0.00    -0.000 C
HETATM    9  C6  UNL     1      -2.425  14.529  17.948  1.00  0.00     0.011 C
HETATM   10  C7  UNL     1      -2.755  12.314  17.001  1.00  0.00     0.011 C
ENDBRANCH   7   8
BRANCH   1  11
HETATM   11  C2  UNL     1      -0.907  12.460  13.795  1.00  0.00    -0.010 C
HETATM   12  C1  UNL     1      -1.769  11.600  13.309  1.00  0.00     0.009 C
ENDBRANCH   1  11
TORSDOF 2
ENDMDL