MODEL 1
REMARK VINA RESULT: -4.605985558      0.000      0.000
REMARK  1 active torsions:
REMARK  status: ('A' for Active; 'I' for Inactive)
REMARK    1  A    between atoms: C3_6  and  C4_7
REMARK       I    between atoms: C4_7  and  N2_9
ROOT
HETATM    1  C1  UNL     1      -1.206  10.985  11.167  1.00  0.00     0.051 C
HETATM    2  C2  UNL     1      -1.574  11.141  12.623  1.00  0.00     0.244 C
HETATM    3  N1  UNL     1      -1.198  12.478  13.027  1.00  0.00    -0.049 N
ATOM      4  H11 UNL     1      -1.846  13.195  12.703  1.00  0.00     0.279 HD
ATOM      5  H12 UNL     1      -0.370  12.828  12.544  1.00  0.00     0.279 HD
HETATM    6  C3  UNL     1      -1.050  12.444  14.475  1.00  0.00     0.287 C
HETATM    7  C7  UNL     1       0.176  11.535  14.696  1.00  0.00     0.119 C
HETATM    8  S1  UNL     1      -0.346  10.159  13.581  1.00  0.00    -0.134 SA
ENDROOT
BRANCH   6   9
HETATM    9  C4  UNL     1      -0.840  13.810  14.937  1.00  0.00     0.250 C
HETATM   10  O1  UNL     1      -0.133  14.604  14.225  1.00  0.00    -0.271 OA
HETATM   11  N2  UNL     1      -1.357  14.378  16.135  1.00  0.00    -0.359 N
HETATM   12  C5  UNL     1      -1.052  15.756  16.519  1.00  0.00     0.152 C
HETATM   13  C6  UNL     1      -2.214  13.627  16.985  1.00  0.00     0.152 C
ENDBRANCH   6   9
TORSDOF 1
ENDMDL