MODEL 4
REMARK VINA RESULT: -4.452818676      2.336      4.011
REMARK  2 active torsions:
REMARK  status: ('A' for Active; 'I' for Inactive)
REMARK       I    between atoms: C2_2  and  N1_4
REMARK    1  A    between atoms: N1_4  and  C3_6
REMARK    2  A    between atoms: C7_10  and  N2_11
ROOT
HETATM    1  C3  UNL     1      -2.483  13.099  16.489  1.00  0.00     0.117 C
HETATM    2  C4  UNL     1      -2.256  14.223  17.528  1.00  0.00     0.027 C
HETATM    3  C5  UNL     1      -1.809  15.325  16.583  1.00  0.00     0.004 C
HETATM    4  C6  UNL     1      -0.922  14.615  15.616  1.00  0.00     0.038 C
HETATM    5  C7  UNL     1      -1.146  13.108  15.836  1.00  0.00     0.244 C
ENDROOT
BRANCH   1   6
HETATM    6  N1  UNL     1      -2.851  11.936  17.210  1.00  0.00    -0.355 N
HETATM    7  C2  UNL     1      -3.655  10.940  16.604  1.00  0.00     0.213 C
HETATM    8  C1  UNL     1      -4.050   9.717  17.344  1.00  0.00     0.117 C
HETATM    9  O1  UNL     1      -4.076  11.042  15.403  1.00  0.00    -0.274 OA
ATOM     10  H1  UNL     1      -2.534  11.815  18.172  1.00  0.00     0.162 HD
ENDBRANCH   1   6
BRANCH   5  11
HETATM   11  N2  UNL     1      -1.057  12.503  14.552  1.00  0.00     0.086 N
HETATM   12  C8  UNL     1       0.250  12.155  14.099  1.00  0.00     0.310 C
HETATM   13  C9  UNL     1      -1.761  13.317  13.588  1.00  0.00     0.310 C
ENDBRANCH   5  11
TORSDOF 2
ENDMDL