MODEL 5
REMARK VINA RESULT: -4.411227812      2.701      4.128
REMARK  3 active torsions:
REMARK  status: ('A' for Active; 'I' for Inactive)
REMARK    1  A    between atoms: C3_3  and  C4_4
REMARK    2  A    between atoms: C4_4  and  N1_5
REMARK    3  A    between atoms: C9_10  and  C10_11
ROOT
HETATM    1  C1  UNL     1      -0.582  15.407  15.710  1.00  0.00     0.112 C
HETATM    2  C2  UNL     1      -0.691  14.014  15.283  1.00  0.00    -0.108 C
HETATM    3  C3  UNL     1      -0.824  12.838  14.909  1.00  0.00    -0.064 C
ENDROOT
BRANCH   3   4
HETATM    4  C4  UNL     1      -1.052  11.428  14.489  1.00  0.00     0.237 A
HETATM    5  C7  UNL     1      -2.401  10.896  14.454  1.00  0.00     0.050 A
HETATM    6  C8  UNL     1      -3.439  11.653  15.259  1.00  0.00     0.014 C
HETATM    7  C9  UNL     1      -1.909  11.451  13.164  1.00  0.00     0.134 A
BRANCH   4   8
HETATM    8  N1  UNL     1       0.131  10.640  14.519  1.00  0.00     0.102 N
HETATM    9  C5  UNL     1       0.399   9.923  15.749  1.00  0.00     0.311 C
HETATM   10  C6  UNL     1       1.347  11.339  14.197  1.00  0.00     0.311 C
ENDBRANCH   4   8
BRANCH   7  11
HETATM   11  C10 UNL     1      -1.393  10.697  12.038  1.00  0.00     0.239 C
HETATM   12  N2  UNL     1      -0.539  11.380  11.110  1.00  0.00    -0.062 NA
HETATM   13  O1  UNL     1      -1.635   9.491  11.805  1.00  0.00    -0.276 OA
ENDBRANCH   7  11
ENDBRANCH   3   4
TORSDOF 3
ENDMDL