MODEL 1
REMARK VINA RESULT: -5.428809847      0.000      0.000
REMARK  3 active torsions:
REMARK  status: ('A' for Active; 'I' for Inactive)
REMARK    1  A    between atoms: C7_7  and  N1_8
REMARK    2  A    between atoms: N1_8  and  C8_10
REMARK    3  A    between atoms: C8_10  and  N2_12
ROOT
HETATM    1  N1  UNL     1      -0.527 -11.743  14.162  1.00  0.00    -0.362 N
ATOM      2  H1  UNL     1      -1.500 -12.038  14.233  1.00  0.00     0.162 HD
ENDROOT
BRANCH   1   3
HETATM    3  C7  UNL     1      -0.105 -11.232  12.913  1.00  0.00     0.087 C
HETATM    4  C2  UNL     1      -0.538  -9.868  12.533  1.00  0.00     0.004 C
HETATM    5  C1  UNL     1       0.277  -8.770  13.180  1.00  0.00     0.012 C
HETATM    6  C3  UNL     1      -0.339  -9.737  11.015  1.00  0.00     0.006 C
HETATM    7  C4  UNL     1       1.076 -10.024  10.617  1.00  0.00     0.001 C
HETATM    8  C5  UNL     1       1.673 -11.225  11.268  1.00  0.00     0.002 C
HETATM    9  C6  UNL     1       1.393 -11.315  12.751  1.00  0.00     0.025 C
ENDBRANCH   1   3
BRANCH   1  10
HETATM   10  C8  UNL     1       0.269 -11.886  15.322  1.00  0.00     0.170 C
HETATM   11  S1  UNL     1       0.455 -10.665  16.386  1.00  0.00    -0.041 SA
BRANCH  10  12
HETATM   12  N2  UNL     1       0.939 -13.100  15.616  1.00  0.00    -0.355 N
HETATM   13  C9  UNL     1       2.030 -13.350  16.533  1.00  0.00     0.128 C
HETATM   14  C10 UNL     1       1.893 -14.786  16.993  1.00  0.00     0.058 C
HETATM   15  C11 UNL     1       1.130 -15.461  15.871  1.00  0.00     0.189 C
HETATM   16  F1  UNL     1       1.941 -16.288  15.120  1.00  0.00    -0.248 F
HETATM   17  C12 UNL     1       0.608 -14.368  14.995  1.00  0.00     0.162 C
ENDBRANCH  10  12
ENDBRANCH   1  10
TORSDOF 3
ENDMDL