MODEL 1
REMARK VINA RESULT: -5.022138671      0.000      0.000
REMARK  3 active torsions:
REMARK  status: ('A' for Active; 'I' for Inactive)
REMARK    1  A    between atoms: C1_2  and  N1_3
REMARK    2  A    between atoms: C1_2  and  N2_11
REMARK    3  A    between atoms: N1_3  and  C2_5
ROOT
HETATM    1  N1  UNL     1      -0.525 -12.052  14.213  1.00  0.00    -0.361 N
ATOM      2  H1  UNL     1      -0.938 -12.900  13.825  1.00  0.00     0.162 HD
ENDROOT
BRANCH   1   3
HETATM    3  C1  UNL     1       0.434 -12.144  15.266  1.00  0.00     0.170 C
HETATM    4  S1  UNL     1       0.997 -10.809  16.050  1.00  0.00    -0.041 SA
BRANCH   3   5
HETATM    5  N2  UNL     1       0.967 -13.393  15.684  1.00  0.00    -0.358 N
HETATM    6  C7  UNL     1       1.885 -13.601  16.814  1.00  0.00     0.125 C
HETATM    7  C8  UNL     1       1.827 -15.064  17.087  1.00  0.00     0.021 C
HETATM    8  C9  UNL     1       1.641 -15.648  15.694  1.00  0.00     0.021 C
HETATM    9  C10 UNL     1       0.698 -14.668  15.068  1.00  0.00     0.125 C
ENDBRANCH   3   5
ENDBRANCH   1   3
BRANCH   1  10
HETATM   10  C2  UNL     1      -0.905 -10.784  13.705  1.00  0.00     0.102 C
HETATM   11  C3  UNL     1      -2.363 -10.496  13.616  1.00  0.00     0.027 C
HETATM   12  C4  UNL     1      -2.378  -9.199  12.791  1.00  0.00     0.004 C
HETATM   13  C5  UNL     1      -1.086  -9.193  12.000  1.00  0.00     0.022 C
HETATM   14  C6  UNL     1      -0.430 -10.529  12.292  1.00  0.00     0.105 C
HETATM   15 CL1  UNL     1       1.318 -10.484  12.145  1.00  0.00    -0.123 Cl
ENDBRANCH   1  10
TORSDOF 3
ENDMDL