MODEL 4
REMARK VINA RESULT: -5.580947430      1.529      2.638
REMARK  1 active torsions:
REMARK  status: ('A' for Active; 'I' for Inactive)
REMARK       I    between atoms: N1_2  and  C3_4
REMARK       I    between atoms: C3_4  and  N2_6
REMARK    1  A    between atoms: N2_6  and  C4_8
ROOT
HETATM    1  C4  UNL     1       1.521 -11.443  15.164  1.00  0.00     0.069 C
HETATM    2  C5  UNL     1       2.105 -11.081  13.814  1.00  0.00     0.039 C
HETATM    3  C6  UNL     1       3.172 -10.047  14.097  1.00  0.00    -0.011 C
HETATM    4  C7  UNL     1       2.501  -8.730  14.285  1.00  0.00     0.009 C
HETATM    5  C8  UNL     1       1.449  -8.733  15.364  1.00  0.00    -0.011 C
HETATM    6  C9  UNL     1       0.167  -9.388  14.931  1.00  0.00     0.044 C
HETATM    7  C10 UNL     1       0.195 -10.812  15.450  1.00  0.00     0.199 C
HETATM    8  F1  UNL     1      -0.903 -11.483  15.038  1.00  0.00    -0.247 F
HETATM    9  C11 UNL     1       2.031  -9.423  16.576  1.00  0.00     0.012 C
HETATM   10  C12 UNL     1       2.489 -10.809  16.175  1.00  0.00     0.017 C
HETATM   11  C13 UNL     1       3.756 -10.623  15.370  1.00  0.00     0.012 C
ENDROOT
BRANCH   1  12
HETATM   12  N2  UNL     1       1.557 -12.859  15.357  1.00  0.00    -0.331 N
HETATM   13  C3  UNL     1       1.635 -13.504  16.632  1.00  0.00     0.318 C
HETATM   14  N1  UNL     1       1.672 -14.907  16.744  1.00  0.00    -0.343 N
HETATM   15  O1  UNL     1       1.673 -12.843  17.707  1.00  0.00    -0.247 OA
HETATM   16  C1  UNL     1       1.633 -15.703  15.551  1.00  0.00     0.154 C
HETATM   17  C2  UNL     1       1.749 -15.533  18.026  1.00  0.00     0.154 C
ATOM     18  H2  UNL     1       1.524 -13.451  14.527  1.00  0.00     0.165 HD
ENDBRANCH   1  12
TORSDOF 1
ENDMDL