MODEL 3
REMARK VINA RESULT: -5.246385461      0.756      1.306
REMARK  3 active torsions:
REMARK  status: ('A' for Active; 'I' for Inactive)
REMARK    1  A    between atoms: C2_2  and  C3_3
REMARK       I    between atoms: C3_3  and  N1_5
REMARK    2  A    between atoms: N1_5  and  C4_7
REMARK    3  A    between atoms: C4_7  and  N2_9
ROOT
HETATM    1  C3  UNL     1      -0.163 -10.212  14.793  1.00  0.00     0.232 C
HETATM    2  O1  UNL     1       0.615  -9.754  13.940  1.00  0.00    -0.272 OA
HETATM    3  N1  UNL     1       0.117 -11.146  15.773  1.00  0.00    -0.303 N
ATOM      4  H1  UNL     1      -0.714 -11.352  16.328  1.00  0.00     0.171 HD
ENDROOT
BRANCH   3   5
HETATM    5  C4  UNL     1       1.192 -11.872  16.209  1.00  0.00     0.176 C
HETATM    6  S1  UNL     1       2.247 -11.012  17.294  1.00  0.00    -0.041 SA
BRANCH   5   7
HETATM    7  N2  UNL     1       1.658 -13.124  15.919  1.00  0.00    -0.358 N
HETATM    8  C5  UNL     1       2.431 -13.908  16.960  1.00  0.00     0.125 C
HETATM    9  C6  UNL     1       1.710 -15.181  17.235  1.00  0.00     0.020 C
HETATM   10  C7  UNL     1       0.905 -15.787  16.167  1.00  0.00     0.003 C
HETATM   11  C8  UNL     1       0.480 -14.925  15.019  1.00  0.00     0.020 C
HETATM   12  C9  UNL     1       1.578 -13.883  14.725  1.00  0.00     0.125 C
ENDBRANCH   5   7
ENDBRANCH   3   5
BRANCH   1  13
HETATM   13  C2  UNL     1      -1.570  -9.627  14.679  1.00  0.00     0.038 A
HETATM   14  C1  UNL     1      -2.178  -9.198  15.971  1.00  0.00     0.025 C
HETATM   15  C10 UNL     1      -2.457 -10.468  13.776  1.00  0.00     0.020 A
HETATM   16  C11 UNL     1      -2.042  -9.107  13.388  1.00  0.00     0.020 A
ENDBRANCH   1  13
TORSDOF 3
ENDMDL