MODEL 1
REMARK VINA RESULT: -6.023697817      0.000      0.000
REMARK  1 active torsions:
REMARK  status: ('A' for Active; 'I' for Inactive)
REMARK       I    between atoms: C2_2  and  N1_4
REMARK    1  A    between atoms: N1_4  and  C3_6
ROOT
HETATM    1  C3  UNL     1       2.079 -12.908  16.166  1.00  0.00     0.097 C
HETATM    2  C4  UNL     1       2.213 -11.441  16.218  1.00  0.00     0.019 C
HETATM    3  C5  UNL     1       3.279 -10.682  15.585  1.00  0.00     0.012 C
HETATM    4  C6  UNL     1       2.628  -9.507  14.871  1.00  0.00    -0.014 C
HETATM    5  C7  UNL     1       2.519  -9.860  13.430  1.00  0.00     0.005 C
HETATM    6  C8  UNL     1       2.123 -11.322  13.208  1.00  0.00     0.009 C
HETATM    7  C9  UNL     1       0.928 -11.578  14.017  1.00  0.00     0.029 A
HETATM    8  C10 UNL     1       0.499 -12.994  14.289  1.00  0.00     0.181 A
HETATM    9  F1  UNL     1       1.470 -13.869  13.826  1.00  0.00    -0.248 F
HETATM   10  C11 UNL     1       0.616 -12.649  15.760  1.00  0.00     0.052 A
HETATM   11  C12 UNL     1       0.958 -11.311  15.441  1.00  0.00    -0.020 A
HETATM   12  C13 UNL     1       0.332 -10.056  15.787  1.00  0.00     0.011 C
HETATM   13  C14 UNL     1       1.404  -8.992  15.523  1.00  0.00     0.005 C
ENDROOT
BRANCH   1  14
HETATM   14  N1  UNL     1       2.103 -13.581  17.452  1.00  0.00    -0.356 N
HETATM   15  C2  UNL     1       1.903 -14.982  17.502  1.00  0.00     0.213 C
HETATM   16  C1  UNL     1       1.924 -15.684  18.805  1.00  0.00     0.117 C
HETATM   17  O1  UNL     1       1.706 -15.643  16.452  1.00  0.00    -0.274 OA
ATOM     18  H1  UNL     1       2.262 -13.051  18.309  1.00  0.00     0.162 HD
ENDBRANCH   1  14
TORSDOF 1
ENDMDL