MODEL 1
REMARK VINA RESULT: -5.102534541      0.000      0.000
REMARK  3 active torsions:
REMARK  status: ('A' for Active; 'I' for Inactive)
REMARK    1  A    between atoms: C1_2  and  N1_3
REMARK    2  A    between atoms: C1_2  and  N2_10
REMARK    3  A    between atoms: N1_3  and  C2_5
ROOT
HETATM    1  S1  UNL     1       1.750 -11.591  13.122  1.00  0.00    -0.041 SA
HETATM    2  C1  UNL     1       0.513 -12.323  13.887  1.00  0.00     0.170 C
ENDROOT
BRANCH   2   3
HETATM    3  N1  UNL     1      -0.834 -11.981  13.586  1.00  0.00    -0.361 N
ATOM      4  H1  UNL     1      -1.515 -12.712  13.379  1.00  0.00     0.162 HD
BRANCH   3   5
HETATM    5  C2  UNL     1      -1.233 -10.600  13.573  1.00  0.00     0.102 C
HETATM    6  C3  UNL     1      -2.752 -10.383  13.569  1.00  0.00     0.028 C
HETATM    7  C4  UNL     1      -2.483  -9.208  14.518  1.00  0.00     0.024 C
HETATM    8  C5  UNL     1      -1.246  -9.991  14.980  1.00  0.00     0.105 C
HETATM    9 CL1  UNL     1       0.151  -8.989  15.358  1.00  0.00    -0.123 Cl
ENDBRANCH   3   5
ENDBRANCH   2   3
BRANCH   2  10
HETATM   10  N2  UNL     1       0.791 -13.306  14.856  1.00  0.00    -0.358 N
HETATM   11  C6  UNL     1       0.595 -14.713  14.594  1.00  0.00     0.125 C
HETATM   12  C7  UNL     1       0.632 -15.499  15.886  1.00  0.00     0.020 C
HETATM   13  C8  UNL     1       1.914 -15.272  16.646  1.00  0.00     0.003 C
HETATM   14  C9  UNL     1       2.439 -13.874  16.486  1.00  0.00     0.020 C
HETATM   15  C10 UNL     1       1.284 -12.922  16.154  1.00  0.00     0.125 C
ENDBRANCH   2  10
TORSDOF 3
ENDMDL