MODEL 5
REMARK VINA RESULT: -6.005582260      0.801      1.477
REMARK  1 active torsions:
REMARK  status: ('A' for Active; 'I' for Inactive)
REMARK       I    between atoms: C1_2  and  N1_4
REMARK       I    between atoms: N1_4  and  C2_6
REMARK    1  A    between atoms: C2_6  and  C3_8
ROOT
HETATM    1  C3  UNL     1       1.180 -11.605  14.962  1.00  0.00     0.042 C
HETATM    2  C4  UNL     1       1.606 -12.009  13.563  1.00  0.00     0.024 C
HETATM    3  C5  UNL     1       1.253 -10.913  12.591  1.00  0.00    -0.013 C
HETATM    4  C6  UNL     1      -0.204 -10.531  12.656  1.00  0.00     0.009 C
HETATM    5  C7  UNL     1      -0.572 -10.119  14.064  1.00  0.00    -0.013 C
HETATM    6  C8  UNL     1       0.242  -8.895  14.402  1.00  0.00     0.009 C
HETATM    7  C9  UNL     1       1.692  -9.280  14.391  1.00  0.00    -0.013 C
HETATM    8  C10 UNL     1       2.057  -9.679  12.980  1.00  0.00     0.009 C
HETATM    9  C11 UNL     1       1.996 -10.404  15.353  1.00  0.00     0.024 C
HETATM   10  C12 UNL     1      -0.301 -11.268  14.987  1.00  0.00     0.024 C
ENDROOT
BRANCH   1  11
HETATM   11  C2  UNL     1       1.388 -12.738  15.893  1.00  0.00     0.234 C
HETATM   12  N1  UNL     1       1.512 -14.043  15.376  1.00  0.00    -0.283 N
HETATM   13  C1  UNL     1       1.714 -15.165  16.250  1.00  0.00     0.321 C
ATOM     14  H1  UNL     1       1.458 -14.193  14.368  1.00  0.00     0.172 HD
HETATM   15  O1  UNL     1       1.824 -16.319  15.795  1.00  0.00    -0.254 OA
HETATM   16 CL1  UNL     1       1.814 -14.959  17.979  1.00  0.00    -0.020 Cl
HETATM   17  O2  UNL     1       1.457 -12.558  17.148  1.00  0.00    -0.272 OA
ENDBRANCH   1  11
TORSDOF 1
ENDMDL