MODEL 3
REMARK VINA RESULT: -4.580474845      2.193      3.322
REMARK  2 active torsions:
REMARK  status: ('A' for Active; 'I' for Inactive)
REMARK    1  A    between atoms: C7_8  and  C8_9
REMARK       I    between atoms: C8_9  and  N2_11
REMARK    2  A    between atoms: N2_11  and  C9_13
ROOT
HETATM    1  C1  UNL     1       1.285 -15.117  16.012  1.00  0.00     0.310 C
HETATM    2  N1  UNL     1       2.146 -13.995  15.696  1.00  0.00     0.090 N
HETATM    3  C2  UNL     1       2.125 -13.018  16.788  1.00  0.00     0.278 C
HETATM    4  C3  UNL     1       1.849 -11.674  16.158  1.00  0.00     0.029 C
HETATM    5  C4  UNL     1       0.372 -11.631  15.837  1.00  0.00     0.009 C
HETATM    6  C5  UNL     1       0.259 -12.815  14.862  1.00  0.00     0.037 C
HETATM    7  C6  UNL     1       1.656 -13.247  14.550  1.00  0.00     0.236 C
HETATM    8  C7  UNL     1       2.420 -11.928  14.755  1.00  0.00     0.117 C
ENDROOT
BRANCH   8   9
HETATM    9  C8  UNL     1       1.994 -10.910  13.789  1.00  0.00     0.225 C
HETATM   10  O1  UNL     1       2.022  -9.717  14.128  1.00  0.00    -0.273 OA
HETATM   11  N2  UNL     1       1.554 -11.245  12.494  1.00  0.00    -0.353 N
ATOM     12  H2  UNL     1       1.543 -12.235  12.249  1.00  0.00     0.163 HD
BRANCH  11  13
HETATM   13  C9  UNL     1       1.125 -10.326  11.498  1.00  0.00     0.022 C
HETATM   14  C10 UNL     1       2.149  -9.245  11.274  1.00  0.00     0.037 C
HETATM   15  C11 UNL     1       1.010 -11.093  10.177  1.00  0.00     0.037 C
HETATM   16  C12 UNL     1      -0.208  -9.694  11.750  1.00  0.00     0.037 C
ENDBRANCH  11  13
ENDBRANCH   8   9
TORSDOF 2
ENDMDL