MODEL 1
REMARK VINA RESULT: -6.037116462      0.000      0.000
REMARK  1 active torsions:
REMARK  status: ('A' for Active; 'I' for Inactive)
REMARK       I    between atoms: C2_5  and  N3_6
REMARK       I    between atoms: C2_5  and  N4_14
REMARK    1  A    between atoms: N3_6  and  C3_8
ROOT
HETATM    1  N1  UNL     1       1.544 -10.770  10.326  1.00  0.00    -0.171 NA
HETATM    2  C1  UNL     1       1.742 -11.161  11.414  1.00  0.00     0.196 C
HETATM    3  N2  UNL     1       2.001 -11.617  12.711  1.00  0.00    -0.126 N
ATOM      4  H2  UNL     1       2.863 -12.135  12.886  1.00  0.00     0.197 HD
HETATM    5  C2  UNL     1       1.206 -11.412  13.679  1.00  0.00     0.685 C
HETATM    6  N3  UNL     1       1.542 -11.909  14.966  1.00  0.00    -0.221 N
ATOM      7  H3  UNL     1       1.441 -11.264  15.748  1.00  0.00     0.178 HD
HETATM    8  N4  UNL     1      -0.023 -10.704  13.548  1.00  0.00    -0.217 N
HETATM    9  C8  UNL     1      -0.064  -9.296  13.191  1.00  0.00     0.141 C
HETATM   10  C9  UNL     1      -1.267  -9.116  12.274  1.00  0.00     0.020 C
HETATM   11  C10 UNL     1      -2.506  -9.262  13.139  1.00  0.00     0.003 C
HETATM   12  C11 UNL     1      -2.386 -10.372  14.128  1.00  0.00     0.020 C
HETATM   13  C12 UNL     1      -1.296 -11.364  13.767  1.00  0.00     0.141 C
ENDROOT
BRANCH   6  14
HETATM   14  C3  UNL     1       2.007 -13.220  15.271  1.00  0.00     0.102 C
HETATM   15  C4  UNL     1       1.304 -14.341  14.577  1.00  0.00     0.028 C
HETATM   16  C5  UNL     1       0.723 -15.227  15.678  1.00  0.00     0.039 C
HETATM   17  C6  UNL     1       1.799 -15.037  16.746  1.00  0.00     0.172 C
HETATM   18  F1  UNL     1       1.434 -15.567  17.950  1.00  0.00    -0.249 F
HETATM   19  C7  UNL     1       1.908 -13.527  16.768  1.00  0.00     0.062 C
ENDBRANCH   6  14
TORSDOF 1
ENDMDL