MODEL 4
REMARK VINA RESULT: -5.768784421      2.337      3.024
REMARK  1 active torsions:
REMARK  status: ('A' for Active; 'I' for Inactive)
REMARK    1  A    between atoms: C7_7  and  N1_8
REMARK       I    between atoms: N1_8  and  C8_10
REMARK       I    between atoms: C8_10  and  N2_12
ROOT
HETATM    1  C1  UNL     1       0.508  -8.732  12.414  1.00  0.00     0.015 C
HETATM    2  C2  UNL     1      -0.947  -8.979  12.604  1.00  0.00    -0.042 C
HETATM    3  C3  UNL     1      -1.727  -8.564  11.406  1.00  0.00     0.015 C
HETATM    4  C4  UNL     1      -1.508  -8.184  13.795  1.00  0.00     0.014 C
HETATM    5  C5  UNL     1      -2.394  -9.111  14.551  1.00  0.00    -0.012 C
HETATM    6  C6  UNL     1      -1.500  -9.963  15.450  1.00  0.00     0.030 C
HETATM    7  C7  UNL     1      -0.591 -10.580  14.394  1.00  0.00     0.091 C
HETATM    8  C12 UNL     1      -1.255 -10.385  13.068  1.00  0.00     0.017 C
HETATM    9  C13 UNL     1      -2.718 -10.187  13.501  1.00  0.00     0.012 C
ENDROOT
BRANCH   7  10
HETATM   10  N1  UNL     1      -0.284 -11.954  14.692  1.00  0.00    -0.338 N
HETATM   11  C8  UNL     1       0.828 -12.379  15.443  1.00  0.00     0.320 C
HETATM   12  O1  UNL     1       1.620 -11.533  15.893  1.00  0.00    -0.247 OA
HETATM   13  N2  UNL     1       1.050 -13.745  15.686  1.00  0.00    -0.303 N
HETATM   14  C9  UNL     1       2.087 -14.473  16.410  1.00  0.00     0.135 C
HETATM   15  C11 UNL     1       0.393 -15.010  15.355  1.00  0.00     0.276 C
HETATM   16  C10 UNL     1       1.714 -15.719  15.640  1.00  0.00     0.079 C
HETATM   17  F1  UNL     1       0.041 -15.136  14.039  1.00  0.00    -0.227 F
ATOM     18  H1  UNL     1      -0.916 -12.670  14.334  1.00  0.00     0.164 HD
ENDBRANCH   7  10
TORSDOF 1
ENDMDL