MODEL 4
REMARK VINA RESULT: -4.864063750      1.197      1.434
REMARK  7 active torsions:
REMARK  status: ('A' for Active; 'I' for Inactive)
REMARK    1  A    between atoms: C3_3  and  N1_4
REMARK    2  A    between atoms: N3_8  and  C5_9
REMARK    3  A    between atoms: C5_9  and  C6_10
REMARK    4  A    between atoms: C7_11  and  C8_12
REMARK    5  A    between atoms: C8_12  and  C9_13
REMARK    6  A    between atoms: C9_13  and  C10_14
REMARK    7  A    between atoms: C10_14  and  O1_15
ROOT
HETATM    1  C1  UNL     1     -20.676   1.748  15.720  1.00  0.00     0.014 C
HETATM    2  C2  UNL     1     -21.668   2.341  16.072  1.00  0.00    -0.097 C
HETATM    3  C3  UNL     1     -22.877   3.066  16.477  1.00  0.00     0.223 C
ENDROOT
BRANCH   3   4
HETATM    4  N1  UNL     1     -24.016   2.628  15.695  1.00  0.00    -0.326 N
HETATM    5  C4  UNL     1     -23.926   1.935  14.554  1.00  0.00     0.201 A
HETATM    6  N2  UNL     1     -25.171   1.687  14.084  1.00  0.00    -0.292 N
HETATM    7  N3  UNL     1     -26.043   2.220  14.923  1.00  0.00    -0.276 N
ATOM      8  H2  UNL     1     -25.396   1.178  13.229  1.00  0.00     0.188 HD
HETATM    9  C11 UNL     1     -25.330   2.798  15.914  1.00  0.00     0.205 A
BRANCH   7  10
HETATM   10  C5  UNL     1     -27.492   2.225  14.861  1.00  0.00     0.244 C
BRANCH  10  11
HETATM   11  C6  UNL     1     -27.995   1.350  15.928  1.00  0.00    -0.071 C
HETATM   12  C7  UNL     1     -28.420   0.612  16.796  1.00  0.00    -0.013 C
BRANCH  12  13
HETATM   13  C8  UNL     1     -28.913  -0.264  17.791  1.00  0.00    -0.013 C
BRANCH  13  14
HETATM   14  C9  UNL     1     -29.315  -1.023  18.640  1.00  0.00    -0.067 C
BRANCH  14  15
HETATM   15  C10 UNL     1     -29.827  -1.956  19.668  1.00  0.00     0.258 C
BRANCH  15  16
HETATM   16  O1  UNL     1     -29.304  -3.230  19.378  1.00  0.00    -0.389 OA
ATOM     17  H1  UNL     1     -29.420  -3.379  18.446  1.00  0.00     0.210 HD
ENDBRANCH  15  16
ENDBRANCH  14  15
ENDBRANCH  13  14
ENDBRANCH  12  13
ENDBRANCH  10  11
ENDBRANCH   7  10
ENDBRANCH   3   4
TORSDOF 7
ENDMDL