MODEL 3
REMARK VINA RESULT: -4.973328946      2.746      5.146
REMARK  2 active torsions:
REMARK  status: ('A' for Active; 'I' for Inactive)
REMARK    1  A    between atoms: N1_3  and  C5_6
REMARK    2  A    between atoms: C5_6  and  C6_7
REMARK       I    between atoms: C6_7  and  N2_9
REMARK       I    between atoms: C7_11  and  N4_13
ROOT
HETATM    1  C1  UNL     1     -22.901   7.791  16.013  1.00  0.00     0.044 C
HETATM    2  C2  UNL     1     -23.485   6.753  16.204  1.00  0.00     0.105 C
HETATM    3  N1  UNL     1     -24.188   5.540  16.426  1.00  0.00    -0.003 N
HETATM    4  C3  UNL     1     -25.560   5.737  16.029  1.00  0.00     0.290 C
HETATM    5  C4  UNL     1     -24.055   5.249  17.835  1.00  0.00     0.290 C
ENDROOT
BRANCH   3   6
HETATM    6  C5  UNL     1     -23.582   4.550  15.592  1.00  0.00     0.355 C
BRANCH   6   7
HETATM    7  C6  UNL     1     -23.622   3.188  16.132  1.00  0.00     0.251 C
HETATM    8  O1  UNL     1     -22.675   2.589  16.703  1.00  0.00    -0.271 OA
HETATM    9  N2  UNL     1     -24.837   2.457  16.008  1.00  0.00    -0.300 N
HETATM   10  C7  UNL     1     -25.146   2.000  14.841  1.00  0.00     0.196 C
ATOM     11  H2  UNL     1     -25.442   2.299  16.814  1.00  0.00     0.171 HD
HETATM   12  N3  UNL     1     -24.318   2.207  13.705  1.00  0.00    -0.063 NA
HETATM   13  N4  UNL     1     -26.347   1.253  14.616  1.00  0.00    -0.323 N
HETATM   14  C8  UNL     1     -27.352   1.811  14.054  1.00  0.00     0.091 C
ATOM     15  H4  UNL     1     -26.402   0.276  14.904  1.00  0.00     0.169 HD
HETATM   16  C9  UNL     1     -28.569   0.970  13.853  1.00  0.00     0.085 C
HETATM   17  N5  UNL     1     -27.298   3.159  13.647  1.00  0.00    -0.088 NA
ENDBRANCH   6   7
ENDBRANCH   3   6
TORSDOF 2
ENDMDL