MODEL 1
REMARK VINA RESULT: -5.658042993      0.000      0.000
REMARK  5 active torsions:
REMARK  status: ('A' for Active; 'I' for Inactive)
REMARK    1  A    between atoms: C2_2  and  C3_3
REMARK    2  A    between atoms: C3_3  and  C4_4
REMARK    3  A    between atoms: C4_4  and  N1_5
REMARK    4  A    between atoms: C4_4  and  C5_9
REMARK    5  A    between atoms: N1_5  and  N2_6
REMARK       I    between atoms: C5_9  and  N3_11
REMARK       I    between atoms: C6_13  and  N5_15
ROOT
HETATM    1  C5  UNL     1     -23.044   2.319  14.547  1.00  0.00     0.286 C
HETATM    2  O1  UNL     1     -22.725   1.445  13.705  1.00  0.00    -0.265 OA
HETATM    3  N3  UNL     1     -22.545   2.374  15.855  1.00  0.00    -0.295 N
ATOM      4  H3  UNL     1     -23.190   2.647  16.595  1.00  0.00     0.171 HD
HETATM    5  C6  UNL     1     -21.330   2.105  16.193  1.00  0.00     0.197 C
HETATM    6  N4  UNL     1     -20.329   1.714  15.282  1.00  0.00    -0.063 NA
HETATM    7  N5  UNL     1     -21.021   2.220  17.581  1.00  0.00    -0.307 N
ATOM      8  H5  UNL     1     -21.558   2.864  18.163  1.00  0.00     0.170 HD
HETATM    9  C7  UNL     1     -20.066   1.517  18.118  1.00  0.00     0.203 C
HETATM   10  N6  UNL     1     -19.786   1.658  19.503  1.00  0.00    -0.066 NA
HETATM   11  N7  UNL     1     -19.277   0.601  17.369  1.00  0.00    -0.066 NA
ENDROOT
BRANCH   1  12
HETATM   12  C4  UNL     1     -23.996   3.344  14.136  1.00  0.00     0.175 C
BRANCH  12  13
HETATM   13  C3  UNL     1     -24.670   4.138  15.189  1.00  0.00     0.080 C
BRANCH  13  14
HETATM   14  C2  UNL     1     -24.362   5.614  15.015  1.00  0.00     0.003 C
HETATM   15  C1  UNL     1     -23.207   5.985  15.920  1.00  0.00     0.005 C
ENDBRANCH  13  14
ENDBRANCH  12  13
BRANCH  12  16
HETATM   16  N1  UNL     1     -24.249   3.562  12.945  1.00  0.00    -0.332 NA
BRANCH  16  17
HETATM   17  N2  UNL     1     -24.351   3.593  11.722  1.00  0.00    -0.280 N
ATOM     18  H22 UNL     1     -24.925   2.751  11.749  1.00  0.00     0.191 HD
ATOM     19  H21 UNL     1     -24.320   3.784  10.720  1.00  0.00     0.191 HD
ENDBRANCH  16  17
ENDBRANCH  12  16
ENDBRANCH   1  12
TORSDOF 5
ENDMDL