MODEL 1
REMARK VINA RESULT: -5.096411572      0.000      0.000
REMARK  3 active torsions:
REMARK  status: ('A' for Active; 'I' for Inactive)
REMARK    1  A    between atoms: C2_4  and  C3_5
REMARK    2  A    between atoms: C2_4  and  N3_10
REMARK    3  A    between atoms: C3_5  and  N2_6
REMARK       I    between atoms: C7_12  and  N5_14
ROOT
HETATM    1  C1  UNL     1     -25.959   3.049  12.587  1.00  0.00     0.147 C
HETATM    2  N1  UNL     1     -25.048   2.476  13.497  1.00  0.00    -0.383 N
ATOM      3  H1  UNL     1     -24.984   1.458  13.473  1.00  0.00     0.160 HD
HETATM    4  C2  UNL     1     -24.297   3.051  14.343  1.00  0.00     0.105 C
ENDROOT
BRANCH   4   5
HETATM    5  C3  UNL     1     -24.279   4.500  14.494  1.00  0.00     0.311 C
BRANCH   5   6
HETATM    6  N2  UNL     1     -24.834   4.979  15.739  1.00  0.00    -0.072 N
HETATM    7  C4  UNL     1     -23.891   4.999  16.815  1.00  0.00     0.272 C
HETATM    8  C5  UNL     1     -25.214   6.381  15.486  1.00  0.00     0.272 C
HETATM    9  C6  UNL     1     -26.017   4.296  16.151  1.00  0.00     0.272 C
ENDBRANCH   5   6
ENDBRANCH   4   5
BRANCH   4  10
HETATM   10  N3  UNL     1     -23.468   2.249  15.145  1.00  0.00    -0.319 N
HETATM   11  C7  UNL     1     -22.351   1.806  14.625  1.00  0.00     0.195 C
HETATM   12  N4  UNL     1     -21.980   2.127  13.278  1.00  0.00    -0.063 NA
HETATM   13  N5  UNL     1     -21.463   0.994  15.359  1.00  0.00    -0.307 N
HETATM   14  C8  UNL     1     -20.650   1.452  16.250  1.00  0.00     0.203 C
ATOM     15  H5  UNL     1     -21.463  -0.009  15.176  1.00  0.00     0.170 HD
HETATM   16  N6  UNL     1     -20.656   2.837  16.496  1.00  0.00    -0.066 NA
HETATM   17  N7  UNL     1     -19.768   0.609  16.972  1.00  0.00    -0.066 NA
ATOM     18  H3  UNL     1     -23.729   2.018  16.104  1.00  0.00     0.169 HD
ENDBRANCH   4  10
TORSDOF 3
ENDMDL