MODEL 1
REMARK VINA RESULT: -5.460008766      0.000      0.000
REMARK  4 active torsions:
REMARK  status: ('A' for Active; 'I' for Inactive)
REMARK    1  A    between atoms: C3_3  and  N1_4
REMARK    2  A    between atoms: N1_4  and  C6_7
REMARK    3  A    between atoms: C10_13  and  C11_14
REMARK    4  A    between atoms: C11_14  and  O1_15
ROOT
HETATM    1  C1  UNL     1     -25.204   4.172  12.058  1.00  0.00     0.013 C
HETATM    2  C2  UNL     1     -25.134   4.122  13.264  1.00  0.00    -0.089 C
HETATM    3  C3  UNL     1     -25.028   4.053  14.707  1.00  0.00     0.330 C
ENDROOT
BRANCH   3   4
HETATM    4  N1  UNL     1     -24.767   2.668  15.142  1.00  0.00    -0.054 N
HETATM    5  C4  UNL     1     -25.599   2.423  16.331  1.00  0.00     0.274 C
HETATM    6  C5  UNL     1     -25.251   1.828  14.103  1.00  0.00     0.274 C
BRANCH   4   7
HETATM    7  C6  UNL     1     -23.399   2.597  15.474  1.00  0.00     0.152 A
HETATM    8  C7  UNL     1     -22.631   1.652  14.543  1.00  0.00     0.070 A
HETATM    9  C8  UNL     1     -21.507   0.954  15.162  1.00  0.00     0.063 C
HETATM   10  C12 UNL     1     -22.270   3.070  14.700  1.00  0.00     0.058 A
HETATM   11  N2  UNL     1     -20.848   1.728  15.925  1.00  0.00    -0.396 N
HETATM   12  C9  UNL     1     -21.430   3.041  15.929  1.00  0.00     0.096 C
ATOM     13  H2  UNL     1     -20.023   1.455  16.459  1.00  0.00     0.159 HD
HETATM   14  C10 UNL     1     -22.769   3.051  16.705  1.00  0.00     0.070 C
BRANCH  14  15
HETATM   15  C11 UNL     1     -22.975   4.418  17.250  1.00  0.00     0.173 C
BRANCH  15  16
HETATM   16  O1  UNL     1     -23.671   4.396  18.482  1.00  0.00    -0.400 OA
ATOM     17  H1  UNL     1     -24.611   4.481  18.361  1.00  0.00     0.209 HD
ENDBRANCH  15  16
ENDBRANCH  14  15
ENDBRANCH   4   7
ENDBRANCH   3   4
TORSDOF 4
ENDMDL