MODEL 1
REMARK VINA RESULT: -5.505638811      0.000      0.000
REMARK  3 active torsions:
REMARK  status: ('A' for Active; 'I' for Inactive)
REMARK    1  A    between atoms: C6_7  and  N2_8
REMARK    2  A    between atoms: N2_8  and  O1_10
REMARK    3  A    between atoms: C8_12  and  N3_13
REMARK       I    between atoms: N3_13  and  C9_15
ROOT
HETATM    1  C1  UNL     1     -21.878   3.043  17.190  1.00  0.00     0.014 C
HETATM    2  C2  UNL     1     -22.238   3.852  15.995  1.00  0.00     0.034 C
HETATM    3  C3  UNL     1     -23.426   4.731  16.311  1.00  0.00     0.245 C
HETATM    4  N1  UNL     1     -24.571   4.078  15.668  1.00  0.00    -0.050 N
HETATM    5  C4  UNL     1     -25.506   5.150  15.291  1.00  0.00     0.274 C
HETATM    6  C5  UNL     1     -25.181   3.202  16.557  1.00  0.00     0.274 C
HETATM    7  C6  UNL     1     -23.984   3.572  14.465  1.00  0.00     0.333 C
HETATM    8  C8  UNL     1     -22.606   3.058  14.777  1.00  0.00     0.143 C
ENDROOT
BRANCH   8   9
HETATM    9  N3  UNL     1     -22.476   1.657  14.905  1.00  0.00    -0.337 N
HETATM   10  C9  UNL     1     -21.227   0.967  14.803  1.00  0.00     0.329 C
HETATM   11  N4  UNL     1     -21.099  -0.442  14.933  1.00  0.00    -0.040 NA
HETATM   12  O2  UNL     1     -20.143   1.599  14.586  1.00  0.00    -0.251 OA
ATOM     13  H3  UNL     1     -23.318   1.108  15.079  1.00  0.00     0.164 HD
ENDBRANCH   8   9
BRANCH   7  14
HETATM   14  N2  UNL     1     -24.798   2.791  13.657  1.00  0.00    -0.268 N
HETATM   15  C7  UNL     1     -25.621   3.184  12.563  1.00  0.00     0.181 C
BRANCH  14  16
HETATM   16  O1  UNL     1     -24.850   1.593  13.872  1.00  0.00    -0.291 OA
ATOM     17  H1  UNL     1     -25.684   1.215  14.127  1.00  0.00     0.244 HD
ENDBRANCH  14  16
ENDBRANCH   7  14
TORSDOF 3
ENDMDL