MODEL 3
REMARK VINA RESULT: -5.654785025      2.449      3.317
REMARK  6 active torsions:
REMARK  status: ('A' for Active; 'I' for Inactive)
REMARK       I    between atoms: N1_2  and  C3_4
REMARK    1  A    between atoms: C3_4  and  C4_6
REMARK    2  A    between atoms: C5_7  and  C6_8
REMARK    3  A    between atoms: C6_8  and  C7_9
REMARK    4  A    between atoms: C6_8  and  N4_15
REMARK    5  A    between atoms: C7_9  and  N2_10
REMARK       I    between atoms: N2_10  and  C8_12
REMARK    6  A    between atoms: N4_15  and  N5_16
ROOT
HETATM    1  C6  UNL     1     -21.507   1.555  15.547  1.00  0.00     0.179 C
ENDROOT
BRANCH   1   2
HETATM    2  C5  UNL     1     -22.780   1.844  14.950  1.00  0.00    -0.025 C
HETATM    3  C4  UNL     1     -23.860   2.103  14.454  1.00  0.00     0.002 C
BRANCH   3   4
HETATM    4  C3  UNL     1     -25.140   2.425  13.882  1.00  0.00     0.298 C
HETATM    5  N1  UNL     1     -26.275   2.461  14.733  1.00  0.00    -0.350 N
HETATM    6  C1  UNL     1     -26.147   2.179  16.148  1.00  0.00     0.153 C
HETATM    7  C2  UNL     1     -27.559   2.782  14.171  1.00  0.00     0.153 C
HETATM    8  O1  UNL     1     -25.251   2.671  12.645  1.00  0.00    -0.258 OA
ENDBRANCH   3   4
ENDBRANCH   1   2
BRANCH   1   9
HETATM    9  C7  UNL     1     -20.820   2.628  16.271  1.00  0.00     0.208 C
BRANCH   9  10
HETATM   10  N2  UNL     1     -20.789   2.449  17.688  1.00  0.00    -0.338 N
HETATM   11  C8  UNL     1     -19.884   1.502  18.236  1.00  0.00     0.329 C
HETATM   12  N3  UNL     1     -19.801   1.270  19.653  1.00  0.00    -0.040 NA
HETATM   13  O2  UNL     1     -19.107   0.813  17.523  1.00  0.00    -0.251 OA
ATOM     14  H2  UNL     1     -21.405   2.991  18.293  1.00  0.00     0.164 HD
ENDBRANCH   9  10
ENDBRANCH   1   9
BRANCH   1  15
HETATM   15  N4  UNL     1     -21.058   0.391  15.412  1.00  0.00    -0.327 NA
BRANCH  15  16
HETATM   16  N5  UNL     1     -20.607  -0.756  15.314  1.00  0.00    -0.279 N
ATOM     17  H52 UNL     1     -20.080   0.023  15.711  1.00  0.00     0.191 HD
ATOM     18  H51 UNL     1     -20.260  -1.710  15.221  1.00  0.00     0.191 HD
ENDBRANCH  15  16
ENDBRANCH   1  15
TORSDOF 6
ENDMDL