MODEL 4
REMARK VINA RESULT: -5.657208514      1.805      2.375
REMARK  5 active torsions:
REMARK  status: ('A' for Active; 'I' for Inactive)
REMARK    1  A    between atoms: C3_4  and  C4_5
REMARK    2  A    between atoms: C4_5  and  N2_7
REMARK    3  A    between atoms: C4_5  and  C7_17
REMARK       I    between atoms: N2_7  and  C6_9
REMARK       I    between atoms: C6_9  and  N3_11
REMARK    4  A    between atoms: N3_11  and  N4_13
REMARK    5  A    between atoms: N4_13  and  N5_14
ROOT
HETATM    1  N2  UNL     1     -23.243   1.515  14.407  1.00  0.00    -0.319 N
ATOM      2  H2  UNL     1     -23.366   0.737  13.759  1.00  0.00     0.166 HD
HETATM    3  C6  UNL     1     -21.958   1.693  14.975  1.00  0.00     0.347 C
HETATM    4  O1  UNL     1     -21.723   2.622  15.782  1.00  0.00    -0.245 OA
HETATM    5  N3  UNL     1     -20.867   0.838  14.665  1.00  0.00    -0.165 N
ATOM      6  H3  UNL     1     -20.289   1.040  13.850  1.00  0.00     0.209 HD
ENDROOT
BRANCH   1   7
HETATM    7  C4  UNL     1     -24.383   2.341  14.671  1.00  0.00     0.141 C
HETATM    8  C5  UNL     1     -24.485   2.793  16.108  1.00  0.00     0.055 C
BRANCH   7   9
HETATM    9  C3  UNL     1     -25.627   1.618  14.228  1.00  0.00     0.097 C
HETATM   10  N1  UNL     1     -26.799   1.971  14.479  1.00  0.00    -0.399 N
HETATM   11  C1  UNL     1     -27.126   3.136  15.239  1.00  0.00     0.148 C
HETATM   12  C2  UNL     1     -27.938   1.196  13.999  1.00  0.00     0.148 C
ENDBRANCH   7   9
BRANCH   7  13
HETATM   13  C7  UNL     1     -24.242   3.589  13.856  1.00  0.00     0.264 C
HETATM   14  N6  UNL     1     -24.315   3.534  12.437  1.00  0.00    -0.059 NA
HETATM   15  O2  UNL     1     -24.059   4.670  14.450  1.00  0.00    -0.274 OA
ENDBRANCH   7  13
ENDBRANCH   1   7
BRANCH   5  16
HETATM   16  N4  UNL     1     -20.606  -0.139  15.363  1.00  0.00    -0.239 NA
BRANCH  16  17
HETATM   17  N5  UNL     1     -20.240  -1.158  15.963  1.00  0.00    -0.260 N
ATOM     18  H52 UNL     1     -20.155  -1.553  15.026  1.00  0.00     0.193 HD
ATOM     19  H51 UNL     1     -19.955  -1.933  16.561  1.00  0.00     0.193 HD
ENDBRANCH  16  17
ENDBRANCH   5  16
TORSDOF 5
ENDMDL