MODEL 3
REMARK VINA RESULT: -4.877003219      0.992      1.000
REMARK  5 active torsions:
REMARK  status: ('A' for Active; 'I' for Inactive)
REMARK    1  A    between atoms: C2_2  and  C3_3
REMARK       I    between atoms: N1_7  and  C7_8
REMARK    2  A    between atoms: C7_8  and  C8_10
REMARK    3  A    between atoms: C9_11  and  C10_12
REMARK    4  A    between atoms: C11_13  and  C12_14
REMARK    5  A    between atoms: C12_14  and  O2_15
ROOT
HETATM    1  C3  UNL     1     -27.076   4.557  11.667  1.00  0.00     0.116 C
HETATM    2  C4  UNL     1     -27.779   3.444  12.437  1.00  0.00     0.037 A
HETATM    3  C5  UNL     1     -28.034   3.379  13.853  1.00  0.00     0.035 A
HETATM    4  C6  UNL     1     -26.943   4.236  13.528  1.00  0.00     0.095 A
HETATM    5  N1  UNL     1     -25.965   4.137  12.498  1.00  0.00    -0.328 N
HETATM    6  C7  UNL     1     -24.623   3.818  12.290  1.00  0.00     0.300 C
HETATM    7  O1  UNL     1     -24.065   3.849  11.140  1.00  0.00    -0.258 OA
ENDROOT
BRANCH   6   8
HETATM    8  C8  UNL     1     -23.735   3.419  13.367  1.00  0.00     0.009 C
HETATM    9  C9  UNL     1     -22.988   3.075  14.250  1.00  0.00    -0.005 C
BRANCH   9  10
HETATM   10  C10 UNL     1     -22.107   2.651  15.271  1.00  0.00    -0.012 C
HETATM   11  C11 UNL     1     -21.343   2.269  16.140  1.00  0.00    -0.067 C
BRANCH  11  12
HETATM   12  C12 UNL     1     -20.423   1.787  17.173  1.00  0.00     0.258 C
BRANCH  12  13
HETATM   13  O2  UNL     1     -20.022   0.464  16.905  1.00  0.00    -0.389 OA
ATOM     14  H2  UNL     1     -19.705   0.384  16.013  1.00  0.00     0.210 HD
ENDBRANCH  12  13
ENDBRANCH  11  12
ENDBRANCH   9  10
ENDBRANCH   6   8
BRANCH   1  15
HETATM   15  C2  UNL     1     -26.825   4.240  10.255  1.00  0.00    -0.012 C
HETATM   16  C1  UNL     1     -27.581   3.455   9.519  1.00  0.00     0.009 C
ENDBRANCH   1  15
TORSDOF 5
ENDMDL