MODEL 4
REMARK VINA RESULT: -4.480614963      2.336      3.177
REMARK  2 active torsions:
REMARK  status: ('A' for Active; 'I' for Inactive)
REMARK    1  A    between atoms: C2_2  and  N1_4
REMARK       I    between atoms: N1_4  and  C5_6
REMARK       I    between atoms: C5_6  and  N3_10
REMARK    2  A    between atoms: C6_12  and  N4_13
ROOT
HETATM    1  N1  UNL     1       2.040 -10.935  14.812  1.00  0.00    -0.218 N
HETATM    2  C4  UNL     1       0.993 -10.474  15.713  1.00  0.00     0.169 C
HETATM    3  C5  UNL     1       3.016 -11.816  15.350  1.00  0.00     0.674 C
HETATM    4  N2  UNL     1       4.202 -11.373  15.571  1.00  0.00    -0.235 N
ATOM      5  H21 UNL     1       4.902 -12.006  15.956  1.00  0.00     0.174 HD
ATOM      6  H22 UNL     1       4.419 -10.400  15.355  1.00  0.00     0.174 HD
HETATM    7  N3  UNL     1       2.711 -13.181  15.653  1.00  0.00    -0.188 N
ATOM      8  H3  UNL     1       3.104 -13.922  15.073  1.00  0.00     0.185 HD
HETATM    9  C6  UNL     1       1.950 -13.487  16.642  1.00  0.00     0.195 C
ENDROOT
BRANCH   1  10
HETATM   10  C2  UNL     1       2.081 -10.505  13.412  1.00  0.00     0.093 C
HETATM   11  C1  UNL     1       1.630 -11.658  12.536  1.00  0.00     0.032 C
HETATM   12  C3  UNL     1       1.157  -9.353  13.153  1.00  0.00     0.032 C
ENDBRANCH   1  10
BRANCH   9  13
HETATM   13  N4  UNL     1       1.626 -14.822  16.971  1.00  0.00    -0.385 N
HETATM   14  C7  UNL     1       0.918 -15.687  16.056  1.00  0.00     0.149 C
HETATM   15  C8  UNL     1       2.009 -15.350  18.256  1.00  0.00     0.149 C
ENDBRANCH   9  13
TORSDOF 2
ENDMDL