MODEL 3
REMARK VINA RESULT: -4.037876246      0.048      1.178
REMARK  3 active torsions:
REMARK  status: ('A' for Active; 'I' for Inactive)
REMARK    1  A    between atoms: C4_4  and  C5_5
REMARK    2  A    between atoms: C5_5  and  N1_6
REMARK    3  A    between atoms: C9_10  and  N2_12
ROOT
HETATM    1  C1  UNL     1       1.602 -12.022  13.067  1.00  0.00     0.018 C
HETATM    2  C2  UNL     1       1.760 -12.112  14.564  1.00  0.00    -0.007 A
HETATM    3  C3  UNL     1       3.068 -11.636  15.090  1.00  0.00     0.018 C
HETATM    4  C4  UNL     1       0.548 -11.787  15.442  1.00  0.00     0.058 A
HETATM    5  C9  UNL     1       0.958 -13.163  15.229  1.00  0.00     0.133 A
HETATM    6  C10 UNL     1       1.652 -13.855  16.411  1.00  0.00     0.047 C
ENDROOT
BRANCH   4   7
HETATM    7  C5  UNL     1      -0.555 -11.113  14.678  1.00  0.00     0.243 C
BRANCH   7   8
HETATM    8  N1  UNL     1      -0.917  -9.829  15.199  1.00  0.00    -0.078 N
HETATM    9  C6  UNL     1      -0.753  -9.754  16.644  1.00  0.00     0.271 C
HETATM   10  C7  UNL     1       0.045  -8.862  14.649  1.00  0.00     0.271 C
HETATM   11  C8  UNL     1      -2.250  -9.407  14.840  1.00  0.00     0.271 C
ENDBRANCH   7   8
ENDBRANCH   4   7
BRANCH   5  12
HETATM   12  N2  UNL     1       0.238 -14.094  14.396  1.00  0.00    -0.070 N
ATOM     13  H23 UNL     1       0.671 -14.120  13.473  1.00  0.00     0.275 HD
ATOM     14  H22 UNL     1       0.419 -15.043  14.723  1.00  0.00     0.275 HD
ATOM     15  H21 UNL     1      -0.768 -13.964  14.290  1.00  0.00     0.275 HD
ENDBRANCH   5  12
TORSDOF 3
ENDMDL