MODEL 3
REMARK VINA RESULT: -3.888455876      1.315      1.864
REMARK  3 active torsions:
REMARK  status: ('A' for Active; 'I' for Inactive)
REMARK    1  A    between atoms: C4_4  and  N1_5
REMARK    2  A    between atoms: N1_5  and  C5_6
REMARK    3  A    between atoms: N1_5  and  C6_9
ROOT
HETATM    1  N1  UNL     1       1.673 -12.164  15.760  1.00  0.00    -0.351 N
ENDROOT
BRANCH   1   2
HETATM    2  C4  UNL     1       1.497 -13.389  16.580  1.00  0.00     0.091 A
HETATM    3  C2  UNL     1       1.654 -14.654  15.751  1.00  0.00     0.006 A
HETATM    4  C1  UNL     1       0.772 -15.834  16.100  1.00  0.00     0.012 C
HETATM    5  C3  UNL     1       2.655 -14.282  16.799  1.00  0.00     0.032 A
ENDBRANCH   1   2
BRANCH   1   6
HETATM    6  C5  UNL     1       0.507 -11.719  15.122  1.00  0.00     0.183 C
HETATM    7  N2  UNL     1       0.024 -12.291  13.935  1.00  0.00    -0.070 NA
HETATM    8  S1  UNL     1      -0.402 -10.468  15.723  1.00  0.00    -0.044 SA
ENDBRANCH   1   6
BRANCH   1   9
HETATM    9  C6  UNL     1       2.969 -11.572  15.711  1.00  0.00     0.078 C
HETATM   10  C7  UNL     1       3.254 -10.859  17.032  1.00  0.00     0.032 C
HETATM   11  C8  UNL     1       3.230 -10.697  14.530  1.00  0.00     0.032 C
ENDBRANCH   1   9
TORSDOF 3
ENDMDL