MODEL 2
REMARK VINA RESULT: -4.866038455      1.424      1.699
REMARK  5 active torsions:
REMARK  status: ('A' for Active; 'I' for Inactive)
REMARK    1  A    between atoms: C2_2  and  C3_3
REMARK    2  A    between atoms: C2_2  and  C9_9
REMARK    3  A    between atoms: C4_4  and  C5_5
REMARK    4  A    between atoms: C6_6  and  C7_7
REMARK    5  A    between atoms: C9_9  and  C11_11
ROOT
HETATM    1  C1  UNL     1       2.978 -12.353  15.407  1.00  0.00     0.029 C
HETATM    2  C2  UNL     1       1.852 -13.006  15.223  1.00  0.00    -0.001 C
ENDROOT
BRANCH   2   3
HETATM    3  C3  UNL     1       0.681 -12.277  14.783  1.00  0.00    -0.057 C
HETATM    4  C4  UNL     1      -0.288 -11.659  14.403  1.00  0.00    -0.010 C
BRANCH   4   5
HETATM    5  C5  UNL     1      -1.413 -10.912  13.951  1.00  0.00    -0.015 C
HETATM    6  C6  UNL     1      -2.358 -10.269  13.555  1.00  0.00    -0.093 C
BRANCH   6   7
HETATM    7  C7  UNL     1      -3.501  -9.478  13.056  1.00  0.00     0.090 C
HETATM    8  C8  UNL     1      -3.537  -8.127  13.779  1.00  0.00     0.018 C
ENDBRANCH   6   7
ENDBRANCH   4   5
ENDBRANCH   2   3
BRANCH   2   9
HETATM    9  C9  UNL     1       1.741 -14.464  15.452  1.00  0.00     0.112 C
HETATM   10  C10 UNL     1       0.461 -14.994  14.843  1.00  0.00     0.025 C
BRANCH   9  11
HETATM   11  C11 UNL     1       1.674 -14.778  16.913  1.00  0.00     0.239 C
HETATM   12  N1  UNL     1       1.323 -16.135  17.235  1.00  0.00    -0.062 NA
HETATM   13  O1  UNL     1       1.906 -13.932  17.805  1.00  0.00    -0.276 OA
ENDBRANCH   9  11
ENDBRANCH   2   9
TORSDOF 5
ENDMDL