MODEL 2
REMARK VINA RESULT: -4.866317855      2.247      4.557
REMARK  2 active torsions:
REMARK  status: ('A' for Active; 'I' for Inactive)
REMARK    1  A    between atoms: C2_2  and  C3_3
REMARK       I    between atoms: N2_5  and  C4_7
REMARK    2  A    between atoms: C4_7  and  C5_9
ROOT
HETATM    1  C3  UNL     1       1.450 -11.807  11.371  1.00  0.00     0.117 C
HETATM    2  N1  UNL     1       1.648 -12.708  10.246  1.00  0.00    -0.083 NA
HETATM    3  N2  UNL     1       1.873 -12.239  12.465  1.00  0.00    -0.315 N
ATOM      4  H2  UNL     1       2.291 -13.166  12.375  1.00  0.00     0.170 HD
HETATM    5  C4  UNL     1       1.916 -11.778  13.762  1.00  0.00     0.236 C
HETATM    6  O1  UNL     1       2.860 -11.047  14.153  1.00  0.00    -0.272 OA
ENDROOT
BRANCH   5   7
HETATM    7  C5  UNL     1       0.847 -12.139  14.726  1.00  0.00     0.068 A
HETATM    8  C6  UNL     1      -0.531 -11.583  14.410  1.00  0.00     0.031 C
HETATM    9  C7  UNL     1       0.917 -13.584  15.125  1.00  0.00    -0.066 A
HETATM   10  C8  UNL     1       0.832 -14.853  14.748  1.00  0.00     0.016 C
HETATM   11  C9  UNL     1       1.123 -12.513  16.094  1.00  0.00     0.033 A
HETATM   12  C10 UNL     1       2.469 -12.331  16.758  1.00  0.00     0.016 C
ENDBRANCH   5   7
BRANCH   1  13
HETATM   13  C2  UNL     1       0.803 -10.550  11.104  1.00  0.00     0.035 C
HETATM   14  C1  UNL     1       1.342  -9.374  10.967  1.00  0.00     0.015 C
ENDBRANCH   1  13
TORSDOF 2
ENDMDL