MODEL 1
REMARK VINA RESULT: -4.422652085      0.000      0.000
REMARK  2 active torsions:
REMARK  status: ('A' for Active; 'I' for Inactive)
REMARK       I    between atoms: N1_2  and  C2_4
REMARK    1  A    between atoms: C2_4  and  C3_6
REMARK    2  A    between atoms: C4_7  and  C5_8
ROOT
HETATM    1  C3  UNL     1       2.479 -12.013  14.663  1.00  0.00     0.091 A
HETATM    2  C4  UNL     1       1.885 -11.025  13.752  1.00  0.00     0.011 A
HETATM    3  C8  UNL     1       1.597 -10.831  15.167  1.00  0.00    -0.030 A
HETATM    4  C9  UNL     1       0.343 -11.262  15.854  1.00  0.00     0.016 C
HETATM    5  C10 UNL     1       2.342  -9.717  15.908  1.00  0.00     0.016 C
ENDROOT
BRANCH   1   6
HETATM    6  C2  UNL     1       1.933 -13.365  14.849  1.00  0.00     0.222 C
HETATM    7  N1  UNL     1       2.155 -14.048  16.077  1.00  0.00    -0.365 N
HETATM    8  C1  UNL     1       1.642 -15.382  16.322  1.00  0.00     0.149 C
ATOM      9  H1  UNL     1       2.691 -13.584  16.809  1.00  0.00     0.161 HD
HETATM   10  O1  UNL     1       1.264 -13.977  13.974  1.00  0.00    -0.273 OA
ENDBRANCH   1   6
BRANCH   2  11
HETATM   11  C5  UNL     1       0.845 -11.436  12.729  1.00  0.00    -0.017 C
HETATM   12  C6  UNL     1       1.577 -11.692  11.435  1.00  0.00     0.010 C
HETATM   13  C7  UNL     1      -0.161 -10.327  12.499  1.00  0.00     0.010 C
ENDBRANCH   2  11
TORSDOF 2
ENDMDL