MODEL 3
REMARK VINA RESULT: -5.062283860      1.084      1.209
REMARK  2 active torsions:
REMARK  status: ('A' for Active; 'I' for Inactive)
REMARK    1  A    between atoms: C4_5  and  N2_6
REMARK    2  A    between atoms: N2_6  and  C5_8
REMARK       I    between atoms: N3_10  and  C7_12
ROOT
HETATM    1  C1  UNL     1       1.866 -15.697  18.710  1.00  0.00     0.221 C
HETATM    2  N1  UNL     1       1.783 -15.654  17.548  1.00  0.00    -0.464 NA
HETATM    3  C2  UNL     1       1.704 -15.616  16.153  1.00  0.00     0.185 A
HETATM    4  C3  UNL     1       0.316 -15.657  15.582  1.00  0.00     0.069 A
HETATM    5  C4  UNL     1       1.064 -14.382  15.498  1.00  0.00     0.121 A
ENDROOT
BRANCH   5   6
HETATM    6  N2  UNL     1       1.617 -13.918  14.250  1.00  0.00    -0.372 N
ATOM      7  H2  UNL     1       2.065 -14.606  13.645  1.00  0.00     0.161 HD
BRANCH   6   8
HETATM    8  C5  UNL     1       1.582 -12.585  13.809  1.00  0.00     0.075 C
HETATM    9  C6  UNL     1       2.415 -11.490  14.352  1.00  0.00     0.089 C
HETATM   10  N3  UNL     1       0.772 -12.273  12.861  1.00  0.00    -0.318 N
HETATM   11  C7  UNL     1       0.668 -10.953  12.351  1.00  0.00     0.218 C
ATOM     12  H3  UNL     1       0.180 -13.002  12.461  1.00  0.00     0.170 HD
HETATM   13  C8  UNL     1       0.999 -10.614  10.945  1.00  0.00     0.117 C
HETATM   14  O1  UNL     1       0.281 -10.031  13.115  1.00  0.00    -0.274 OA
ENDBRANCH   6   8
ENDBRANCH   5   6
TORSDOF 2
ENDMDL