MODEL 5
REMARK VINA RESULT: -3.996296368      2.278      3.301
REMARK  4 active torsions:
REMARK  status: ('A' for Active; 'I' for Inactive)
REMARK    1  A    between atoms: C2_2  and  C3_3
REMARK    2  A    between atoms: C3_3  and  C4_4
REMARK    3  A    between atoms: C6_6  and  N1_7
REMARK    4  A    between atoms: C10_11  and  N2_12
ROOT
HETATM    1  C4  UNL     1       1.190 -12.354  15.103  1.00  0.00     0.086 C
HETATM    2  C5  UNL     1       2.438 -11.761  14.497  1.00  0.00     0.054 C
HETATM    3  C6  UNL     1       2.258 -10.686  15.550  1.00  0.00     0.222 C
HETATM    4  C10 UNL     1       1.594 -11.673  16.379  1.00  0.00     0.229 C
ENDROOT
BRANCH   3   5
HETATM    5  N1  UNL     1       3.469 -10.028  15.787  1.00  0.00    -0.072 N
HETATM    6  C7  UNL     1       3.498  -8.936  14.779  1.00  0.00     0.272 C
HETATM    7  C8  UNL     1       4.699 -10.703  15.658  1.00  0.00     0.272 C
HETATM    8  C9  UNL     1       3.443  -9.296  17.062  1.00  0.00     0.272 C
ENDBRANCH   3   5
BRANCH   4   9
HETATM    9  N2  UNL     1       2.350 -12.421  17.336  1.00  0.00    -0.072 N
ATOM     10  H23 UNL     1       1.978 -12.240  18.269  1.00  0.00     0.274 HD
ATOM     11  H22 UNL     1       2.134 -13.411  17.230  1.00  0.00     0.274 HD
ATOM     12  H21 UNL     1       3.362 -12.300  17.353  1.00  0.00     0.274 HD
ENDBRANCH   4   9
BRANCH   1  13
HETATM   13  C3  UNL     1       0.870 -13.719  15.044  1.00  0.00    -0.176 C
BRANCH  13  14
HETATM   14  C2  UNL     1       0.584 -14.944  14.991  1.00  0.00     0.076 C
HETATM   15  C1  UNL     1       0.906 -15.796  16.225  1.00  0.00     0.017 C
ENDBRANCH  13  14
ENDBRANCH   1  13
TORSDOF 4
ENDMDL