MODEL 2
REMARK VINA RESULT: -4.845374078      1.041      1.659
REMARK  5 active torsions:
REMARK  status: ('A' for Active; 'I' for Inactive)
REMARK    1  A    between atoms: C3_3  and  C4_4
REMARK    2  A    between atoms: C5_5  and  C6_6
REMARK       I    between atoms: C6_6  and  N1_8
REMARK    3  A    between atoms: N1_8  and  C7_10
REMARK    4  A    between atoms: C7_10  and  C8_11
REMARK    5  A    between atoms: C8_11  and  C9_12
ROOT
HETATM    1  C1  UNL     1      -4.432  -8.175  12.428  1.00  0.00     0.113 C
HETATM    2  C2  UNL     1      -3.389  -9.115  12.871  1.00  0.00    -0.097 C
HETATM    3  C3  UNL     1      -2.536  -9.877  13.251  1.00  0.00    -0.015 C
ENDROOT
BRANCH   3   4
HETATM    4  C4  UNL     1      -1.536 -10.758  13.717  1.00  0.00    -0.005 C
HETATM    5  C5  UNL     1      -0.693 -11.519  14.120  1.00  0.00     0.009 C
BRANCH   5   6
HETATM    6  C6  UNL     1       0.350 -12.444  14.592  1.00  0.00     0.301 C
HETATM    7  O1  UNL     1       0.336 -13.540  14.023  1.00  0.00    -0.258 OA
HETATM    8  N1  UNL     1       1.240 -12.071  15.581  1.00  0.00    -0.327 N
ATOM      9  H1  UNL     1       1.082 -11.128  15.936  1.00  0.00     0.169 HD
BRANCH   8  10
HETATM   10  C7  UNL     1       2.316 -12.725  16.196  1.00  0.00     0.088 C
BRANCH  10  11
HETATM   11  C8  UNL     1       2.135 -13.608  17.360  1.00  0.00    -0.006 C
BRANCH  11  12
HETATM   12  C9  UNL     1       2.224 -15.068  17.266  1.00  0.00     0.001 C
HETATM   13  C10 UNL     1       1.893 -15.615  18.699  1.00  0.00     0.013 C
HETATM   14  C11 UNL     1       1.159 -15.674  16.352  1.00  0.00     0.013 C
ENDBRANCH  11  12
ENDBRANCH  10  11
ENDBRANCH   8  10
ENDBRANCH   5   6
ENDBRANCH   3   4
TORSDOF 5
ENDMDL