MODEL 5
REMARK VINA RESULT: -7.668979160      2.552      5.053
REMARK  11 active torsions:
REMARK  status: ('A' for Active; 'I' for Inactive)
REMARK    1  A    between atoms: C2_2  and  C3_3
REMARK       I    between atoms: C3_3  and  N1_5
REMARK    2  A    between atoms: C7_9  and  O2_10
REMARK    3  A    between atoms: C8_12  and  O3_13
REMARK    4  A    between atoms: C9_15  and  C10_16
REMARK    5  A    between atoms: C10_16  and  O4_17
REMARK    6  A    between atoms: C11_19  and  C12_20
REMARK    7  A    between atoms: C12_20  and  C13_21
REMARK    8  A    between atoms: C13_21  and  C14_22
REMARK    9  A    between atoms: C14_22  and  C15_23
REMARK   10  A    between atoms: C15_23  and  C16_24
REMARK       I    between atoms: C16_24  and  N2_26
REMARK   11  A    between atoms: C19_32  and  C20_33
ROOT
HETATM    1  C3  UNL     1      20.822  16.460  11.680  1.00  0.00     0.219 C
HETATM    2  O1  UNL     1      20.076  17.328  12.235  1.00  0.00    -0.273 OA
HETATM    3  N1  UNL     1      21.516  16.667  10.479  1.00  0.00    -0.347 N
HETATM    4  C4  UNL     1      22.376  15.620   9.895  1.00  0.00     0.127 C
HETATM    5  C5  UNL     1      23.483  16.416   9.219  1.00  0.00     0.029 C
HETATM    6  C6  UNL     1      22.657  17.540   8.609  1.00  0.00     0.042 C
HETATM    7  C7  UNL     1      22.193  17.039   7.270  1.00  0.00     0.153 C
HETATM    8  C8  UNL     1      21.297  18.071   6.646  1.00  0.00     0.153 C
HETATM    9  C9  UNL     1      20.758  19.011   7.731  1.00  0.00     0.046 C
HETATM   10  C11 UNL     1      20.338  18.255   8.943  1.00  0.00     0.017 C
HETATM   11  C23 UNL     1      21.595  17.779   9.617  1.00  0.00     0.098 C
ENDROOT
BRANCH  10  12
HETATM   12  C12 UNL     1      19.282  17.292   8.775  1.00  0.00     0.007 C
BRANCH  12  13
HETATM   13  C13 UNL     1      17.919  17.473   9.374  1.00  0.00     0.001 C
BRANCH  13  14
HETATM   14  C14 UNL     1      17.594  18.885   9.713  1.00  0.00     0.009 C
BRANCH  14  15
HETATM   15  C15 UNL     1      16.674  19.051  10.868  1.00  0.00     0.103 C
BRANCH  15  16
HETATM   16  C16 UNL     1      15.373  18.428  10.787  1.00  0.00     0.219 C
HETATM   17  O5  UNL     1      14.474  18.764  10.005  1.00  0.00    -0.273 OA
HETATM   18  N2  UNL     1      15.067  17.333  11.669  1.00  0.00    -0.349 N
HETATM   19  C17 UNL     1      16.011  16.822  12.643  1.00  0.00     0.153 C
HETATM   20  C22 UNL     1      13.778  16.680  11.618  1.00  0.00     0.158 C
HETATM   21  C18 UNL     1      15.367  16.841  14.020  1.00  0.00     0.252 C
HETATM   22  N3  UNL     1      13.987  17.226  13.987  1.00  0.00    -0.068 N
HETATM   23  C19 UNL     1      13.217  16.511  13.009  1.00  0.00     0.203 C
ATOM     24  H32 UNL     1      13.565  17.141  14.911  1.00  0.00     0.277 HD
ATOM     25  H31 UNL     1      13.896  18.233  13.852  1.00  0.00     0.277 HD
BRANCH  23  26
HETATM   26  C20 UNL     1      13.140  15.052  13.414  1.00  0.00     0.030 C
HETATM   27  C21 UNL     1      13.402  14.119  12.268  1.00  0.00     0.007 C
ENDBRANCH  23  26
ENDBRANCH  15  16
ENDBRANCH  14  15
ENDBRANCH  13  14
ENDBRANCH  12  13
ENDBRANCH  10  12
BRANCH   9  28
HETATM   28  C10 UNL     1      19.885  20.012   7.125  1.00  0.00     0.172 C
BRANCH  28  29
HETATM   29  O4  UNL     1      19.301  19.393   5.970  1.00  0.00    -0.400 OA
ATOM     30  H4  UNL     1      19.931  19.493   5.265  1.00  0.00     0.209 HD
ENDBRANCH  28  29
ENDBRANCH   9  28
BRANCH   8  31
HETATM   31  O3  UNL     1      22.056  18.850   5.778  1.00  0.00    -0.393 OA
ATOM     32  H3  UNL     1      22.203  18.356   4.980  1.00  0.00     0.210 HD
ENDBRANCH   8  31
BRANCH   7  33
HETATM   33  O2  UNL     1      23.383  16.940   6.486  1.00  0.00    -0.393 OA
ATOM     34  H2  UNL     1      23.077  16.809   5.596  1.00  0.00     0.210 HD
ENDBRANCH   7  33
BRANCH   1  35
HETATM   35  C2  UNL     1      20.931  15.165  12.387  1.00  0.00     0.098 C
HETATM   36  C1  UNL     1      20.343  15.174  13.756  1.00  0.00     0.014 C
ENDBRANCH   1  35
TORSDOF 11
ENDMDL