MODEL 4
REMARK VINA RESULT: -8.177297523      3.029      7.034
REMARK  10 active torsions:
REMARK  status: ('A' for Active; 'I' for Inactive)
REMARK    1  A    between atoms: C1_2  and  C2_4
REMARK    2  A    between atoms: C6_8  and  C7_9
REMARK    3  A    between atoms: C14_20  and  O4_21
REMARK    4  A    between atoms: C14_20  and  C15_23
REMARK    5  A    between atoms: C16_24  and  C17_25
REMARK    6  A    between atoms: C18_26  and  C19_27
REMARK    7  A    between atoms: C20_28  and  C21_29
REMARK    8  A    between atoms: C21_29  and  C22_30
REMARK    9  A    between atoms: C22_30  and  O5_31
REMARK   10  A    between atoms: C23_33  and  C24_34
ROOT
HETATM    1  C2  UNL     1      21.792  15.101  10.249  1.00  0.00     0.102 C
HETATM    2  C3  UNL     1      20.462  15.867  10.192  1.00  0.00     0.025 C
HETATM    3  C4  UNL     1      20.396  16.631  11.465  1.00  0.00     0.038 C
HETATM    4  C5  UNL     1      21.290  15.883  12.459  1.00  0.00     0.020 C
HETATM    5  C6  UNL     1      20.446  15.466  13.575  1.00  0.00     0.070 C
HETATM    6  C13 UNL     1      19.120  16.129  13.420  1.00  0.00     0.170 C
HETATM    7  O3  UNL     1      18.238  16.117  14.232  1.00  0.00    -0.294 OA
HETATM    8  C14 UNL     1      19.072  16.803  12.099  1.00  0.00     0.140 C
HETATM    9  C23 UNL     1      22.072  14.886  11.701  1.00  0.00     0.106 C
ENDROOT
BRANCH   8  10
HETATM   10  O4  UNL     1      18.884  18.201  12.331  1.00  0.00    -0.378 OA
ATOM     11  H4  UNL     1      18.445  18.295  13.168  1.00  0.00     0.211 HD
ENDBRANCH   8  10
BRANCH   8  12
HETATM   12  C15 UNL     1      17.903  16.349  11.362  1.00  0.00     0.019 C
HETATM   13  C16 UNL     1      16.891  17.044  10.902  1.00  0.00    -0.001 C
BRANCH  13  14
HETATM   14  C17 UNL     1      16.737  18.467  11.044  1.00  0.00    -0.000 C
HETATM   15  C18 UNL     1      17.167  19.318  10.148  1.00  0.00    -0.000 C
BRANCH  15  16
HETATM   16  C19 UNL     1      17.834  18.905   8.939  1.00  0.00    -0.004 C
HETATM   17  C20 UNL     1      19.172  18.993   8.858  1.00  0.00    -0.025 C
BRANCH  17  18
HETATM   18  C21 UNL     1      19.846  18.571   7.623  1.00  0.00     0.053 C
BRANCH  18  19
HETATM   19  C22 UNL     1      19.778  19.764   6.659  1.00  0.00     0.168 C
BRANCH  19  20
HETATM   20  O5  UNL     1      20.435  19.451   5.483  1.00  0.00    -0.401 OA
ATOM     21  H5  UNL     1      20.776  20.244   5.086  1.00  0.00     0.209 HD
ENDBRANCH  19  20
ENDBRANCH  18  19
ENDBRANCH  17  18
ENDBRANCH  15  16
ENDBRANCH  13  14
ENDBRANCH   8  12
BRANCH   5  22
HETATM   22  C7  UNL     1      20.201  14.045  13.870  1.00  0.00     0.026 C
HETATM   23  C8  UNL     1      19.028  13.393  13.207  1.00  0.00     0.034 C
HETATM   24  C9  UNL     1      19.258  11.900  13.240  1.00  0.00    -0.029 C
HETATM   25  C10 UNL     1      19.497  11.184  14.347  1.00  0.00    -0.004 C
HETATM   26  C11 UNL     1      19.601  11.606  15.757  1.00  0.00     0.259 C
HETATM   27  N1  UNL     1      20.616  12.647  15.867  1.00  0.00    -0.072 N
HETATM   28  C12 UNL     1      19.984  13.874  15.383  1.00  0.00     0.238 C
ATOM     29  H12 UNL     1      21.011  12.735  16.804  1.00  0.00     0.277 HD
ATOM     30  H11 UNL     1      21.487  12.421  15.387  1.00  0.00     0.277 HD
ENDBRANCH   5  22
BRANCH   1  31
HETATM   31  C1  UNL     1      22.735  15.882   9.463  1.00  0.00     0.177 C
HETATM   32  O1  UNL     1      22.747  17.101   9.401  1.00  0.00    -0.648 OA
HETATM   33  O2  UNL     1      23.693  15.180   8.732  1.00  0.00    -0.648 OA
ENDBRANCH   1  31
BRANCH   9  34
HETATM   34  C24 UNL     1      23.542  14.980  11.944  1.00  0.00     0.178 C
HETATM   35  O6  UNL     1      24.204  16.048  11.845  1.00  0.00    -0.648 OA
HETATM   36  O7  UNL     1      24.206  13.819  12.298  1.00  0.00    -0.648 OA
ENDBRANCH   9  34
TORSDOF 10
ENDMDL