MODEL 4
REMARK VINA RESULT: -6.756718087      2.425      5.709
REMARK  11 active torsions:
REMARK  status: ('A' for Active; 'I' for Inactive)
REMARK    1  A    between atoms: N1_2  and  C2_4
REMARK    2  A    between atoms: C3_5  and  C4_6
REMARK    3  A    between atoms: C4_6  and  O1_7
REMARK    4  A    between atoms: C4_6  and  N2_9
REMARK    5  A    between atoms: C5_11  and  C7_14
REMARK       I    between atoms: N4_18  and  C10_19
REMARK    6  A    between atoms: C10_19  and  C11_21
REMARK    7  A    between atoms: C11_21  and  N5_22
REMARK    8  A    between atoms: C11_21  and  C16_31
REMARK       I    between atoms: N5_22  and  C12_24
REMARK       I    between atoms: C12_24  and  N6_26
REMARK    9  A    between atoms: N6_26  and  C13_28
REMARK   10  A    between atoms: C20_35  and  C21_36
REMARK   11  A    between atoms: C21_36  and  O5_37
ROOT
HETATM    1  N2  UNL     1      20.923  16.046   9.742  1.00  0.00    -0.329 N
ATOM      2  H2  UNL     1      19.966  16.386   9.652  1.00  0.00     0.168 HD
HETATM    3  C5  UNL     1      21.707  16.706   9.040  1.00  0.00     0.161 C
HETATM    4  C6  UNL     1      21.118  17.794   8.259  1.00  0.00     0.121 C
HETATM    5  N3  UNL     1      20.690  18.653   7.618  1.00  0.00    -0.190 NA
ENDROOT
BRANCH   3   6
HETATM    6  C7  UNL     1      23.128  16.517   8.900  1.00  0.00     0.182 C
HETATM    7  C8  UNL     1      24.195  17.416   9.367  1.00  0.00     0.099 C
HETATM    8  O2  UNL     1      23.485  15.442   8.299  1.00  0.00    -0.290 OA
ENDBRANCH   3   6
BRANCH   1   9
HETATM    9  C4  UNL     1      20.999  14.979  10.609  1.00  0.00     0.124 C
BRANCH   9  10
HETATM   10  C3  UNL     1      19.974  14.190  11.272  1.00  0.00     0.103 C
HETATM   11  C2  UNL     1      20.066  14.216  12.771  1.00  0.00     0.114 C
HETATM   12  C20 UNL     1      19.711  15.689  13.025  1.00  0.00     0.134 C
HETATM   13  N4  UNL     1      18.735  16.044  12.023  1.00  0.00    -0.337 N
HETATM   14  C9  UNL     1      18.563  14.878  11.156  1.00  0.00     0.141 C
HETATM   15  C10 UNL     1      17.997  17.242  11.938  1.00  0.00     0.267 C
HETATM   16  O3  UNL     1      18.644  18.247  12.430  1.00  0.00    -0.266 OA
BRANCH  11  17
HETATM   17  N1  UNL     1      21.223  13.783  13.374  1.00  0.00    -0.418 N
HETATM   18  C1  UNL     1      21.380  12.443  13.771  1.00  0.00     0.140 C
ATOM     19  H1  UNL     1      21.981  14.446  13.538  1.00  0.00     0.153 HD
ENDBRANCH  11  17
BRANCH  12  20
HETATM   20  C21 UNL     1      19.175  15.681  14.437  1.00  0.00     0.191 C
BRANCH  20  21
HETATM   21  O5  UNL     1      20.112  16.072  15.337  1.00  0.00    -0.399 OA
ATOM     22  H5  UNL     1      20.941  16.274  14.920  1.00  0.00     0.209 HD
ENDBRANCH  20  21
ENDBRANCH  12  20
BRANCH  15  23
HETATM   23  C11 UNL     1      16.655  17.454  11.376  1.00  0.00     0.089 C
BRANCH  23  24
HETATM   24  N5  UNL     1      15.534  17.237  12.230  1.00  0.00    -0.307 N
HETATM   25  C12 UNL     1      14.816  16.066  12.522  1.00  0.00     0.320 C
HETATM   26  O4  UNL     1      15.172  14.962  12.000  1.00  0.00    -0.247 OA
HETATM   27  N6  UNL     1      13.680  16.050  13.374  1.00  0.00    -0.339 N
ATOM     28  H6  UNL     1      13.458  16.915  13.867  1.00  0.00     0.164 HD
ATOM     29  H5  UNL     1      15.197  18.072  12.709  1.00  0.00     0.170 HD
BRANCH  27  30
HETATM   30  C13 UNL     1      12.823  14.936  13.603  1.00  0.00     0.078 C
HETATM   31  C14 UNL     1      13.331  14.035  14.747  1.00  0.00     0.032 C
HETATM   32  C15 UNL     1      11.411  15.291  13.897  1.00  0.00     0.032 C
ENDBRANCH  27  30
ENDBRANCH  23  24
BRANCH  23  33
HETATM   33  C16 UNL     1      16.548  18.402  10.245  1.00  0.00    -0.003 C
HETATM   34  C17 UNL     1      17.496  17.904   9.145  1.00  0.00     0.021 C
HETATM   35  C18 UNL     1      15.156  18.230   9.590  1.00  0.00     0.021 C
HETATM   36  C19 UNL     1      16.674  19.860  10.493  1.00  0.00     0.021 C
ENDBRANCH  23  33
ENDBRANCH  15  23
ENDBRANCH   9  10
BRANCH   9  37
HETATM   37  O1  UNL     1      22.217  14.599  10.878  1.00  0.00    -0.349 OA
ATOM     38  H1  UNL     1      22.365  13.668  10.763  1.00  0.00     0.219 HD
ENDBRANCH   9  37
ENDBRANCH   1   9
TORSDOF 11
ENDMDL