MODEL 3
REMARK VINA RESULT: -6.893102640      1.302      2.349
REMARK  13 active torsions:
REMARK  status: ('A' for Active; 'I' for Inactive)
REMARK    1  A    between atoms: C2_2  and  C3_3
REMARK    2  A    between atoms: C3_3  and  N1_4
REMARK    3  A    between atoms: N1_4  and  C4_5
REMARK       I    between atoms: N1_4  and  C7_8
REMARK    4  A    between atoms: C4_5  and  C5_6
REMARK    5  A    between atoms: C7_8  and  C8_10
REMARK    6  A    between atoms: N2_13  and  C11_14
REMARK    7  A    between atoms: C11_14  and  N3_16
REMARK    8  A    between atoms: N3_16  and  C12_18
REMARK    9  A    between atoms: C13_19  and  O2_20
REMARK   10  A    between atoms: C15_23  and  C16_24
REMARK   11  A    between atoms: C16_24  and  O4_25
REMARK   12  A    between atoms: C17_27  and  O5_28
REMARK   13  A    between atoms: C18_30  and  O6_31
ROOT
HETATM    1  C11 UNL     1      17.739  13.158  14.154  1.00  0.00     0.170 C
HETATM    2  S1  UNL     1      16.281  13.910  14.613  1.00  0.00    -0.041 SA
ENDROOT
BRANCH   1   3
HETATM    3  N2  UNL     1      18.353  13.766  13.062  1.00  0.00    -0.358 N
HETATM    4  C10 UNL     1      18.446  15.225  13.015  1.00  0.00     0.126 C
HETATM    5  C9  UNL     1      19.860  15.699  12.751  1.00  0.00     0.034 C
HETATM    6  C8  UNL     1      20.430  15.055  11.505  1.00  0.00     0.081 C
HETATM    7  C20 UNL     1      19.498  14.047  10.914  1.00  0.00     0.034 C
HETATM    8  C19 UNL     1      18.954  13.081  11.966  1.00  0.00     0.126 C
BRANCH   6   9
HETATM    9  C7  UNL     1      20.706  16.102  10.505  1.00  0.00     0.224 C
HETATM   10  N1  UNL     1      21.890  16.184   9.712  1.00  0.00    -0.352 N
HETATM   11  O1  UNL     1      19.810  16.993  10.352  1.00  0.00    -0.273 OA
BRANCH  10  12
HETATM   12  C3  UNL     1      22.960  15.246   9.771  1.00  0.00     0.125 C
BRANCH  12  13
HETATM   13  C2  UNL     1      23.954  15.493  10.886  1.00  0.00     0.015 C
HETATM   14  C1  UNL     1      23.928  14.481  11.979  1.00  0.00     0.006 C
ENDBRANCH  12  13
ENDBRANCH  10  12
BRANCH  10  15
HETATM   15  C4  UNL     1      22.012  17.309   8.774  1.00  0.00     0.125 C
BRANCH  15  16
HETATM   16  C5  UNL     1      22.915  17.021   7.624  1.00  0.00     0.015 C
HETATM   17  C6  UNL     1      22.596  17.751   6.366  1.00  0.00     0.006 C
ENDBRANCH  15  16
ENDBRANCH  10  15
ENDBRANCH   6   9
ENDBRANCH   1   3
BRANCH   1  18
HETATM   18  N3  UNL     1      18.122  12.046  14.914  1.00  0.00    -0.355 N
ATOM     19  H3  UNL     1      18.274  11.187  14.384  1.00  0.00     0.162 HD
BRANCH  18  20
HETATM   20  C12 UNL     1      18.331  11.937  16.324  1.00  0.00     0.170 C
HETATM   21  C13 UNL     1      18.826  10.533  16.695  1.00  0.00     0.284 C
HETATM   22  O3  UNL     1      19.731  10.153  15.710  1.00  0.00    -0.349 OA
HETATM   23  C15 UNL     1      20.943  10.778  16.048  1.00  0.00     0.179 C
HETATM   24  C17 UNL     1      20.823  12.263  16.083  1.00  0.00     0.180 C
HETATM   25  C18 UNL     1      19.569  12.811  16.659  1.00  0.00     0.177 C
BRANCH  21  26
HETATM   26  O2  UNL     1      19.529  10.652  17.888  1.00  0.00    -0.364 OA
HETATM   27  C14 UNL     1      19.088   9.714  18.834  1.00  0.00     0.204 C
ENDBRANCH  21  26
BRANCH  23  28
HETATM   28  C16 UNL     1      21.940  10.407  14.969  1.00  0.00     0.198 C
BRANCH  28  29
HETATM   29  O4  UNL     1      21.191  10.206  13.795  1.00  0.00    -0.398 OA
ATOM     30  H4  UNL     1      21.153   9.266  13.664  1.00  0.00     0.209 HD
ENDBRANCH  28  29
ENDBRANCH  23  28
BRANCH  24  31
HETATM   31  O5  UNL     1      21.068  12.728  14.779  1.00  0.00    -0.390 OA
ATOM     32  H5  UNL     1      21.985  12.971  14.738  1.00  0.00     0.210 HD
ENDBRANCH  24  31
BRANCH  25  33
HETATM   33  O6  UNL     1      19.614  13.006  18.023  1.00  0.00    -0.391 OA
ATOM     34  H6  UNL     1      20.524  13.020  18.297  1.00  0.00     0.210 HD
ENDBRANCH  25  33
ENDBRANCH  18  20
ENDBRANCH   1  18
TORSDOF 13
ENDMDL