MODEL 4
REMARK VINA RESULT: -6.210122931      1.589      1.669
REMARK  11 active torsions:
REMARK  status: ('A' for Active; 'I' for Inactive)
REMARK    1  A    between atoms: C2_2  and  C4_4
REMARK    2  A    between atoms: C4_4  and  N1_5
REMARK    3  A    between atoms: C4_4  and  C13_21
REMARK       I    between atoms: N1_5  and  C5_7
REMARK    4  A    between atoms: C5_7  and  C6_9
REMARK    5  A    between atoms: C6_9  and  C7_10
REMARK    6  A    between atoms: C6_9  and  N2_12
REMARK       I    between atoms: N2_12  and  C8_14
REMARK    7  A    between atoms: C8_14  and  O4_16
REMARK    8  A    between atoms: O4_16  and  C9_17
REMARK    9  A    between atoms: C13_21  and  C14_22
REMARK   10  A    between atoms: C13_21  and  N4_27
REMARK       I    between atoms: C14_22  and  N3_24
REMARK   11  A    between atoms: C20_31  and  N5_32
ROOT
HETATM    1  C4  UNL     1      16.941  14.416  12.924  1.00  0.00     0.130 C
ENDROOT
BRANCH   1   2
HETATM    2  C2  UNL     1      15.605  14.997  12.523  1.00  0.00     0.003 C
HETATM    3  C1  UNL     1      15.579  16.395  12.015  1.00  0.00     0.011 C
HETATM    4  C3  UNL     1      14.818  14.050  11.627  1.00  0.00     0.011 C
ENDBRANCH   1   2
BRANCH   1   5
HETATM    5  N1  UNL     1      17.849  15.589  12.643  1.00  0.00    -0.351 N
HETATM    6  C5  UNL     1      18.961  15.388  11.792  1.00  0.00     0.247 C
HETATM    7  O1  UNL     1      19.151  14.246  11.307  1.00  0.00    -0.271 OA
ATOM      8  H1  UNL     1      17.666  16.503  13.057  1.00  0.00     0.163 HD
BRANCH   6   9
HETATM    9  C6  UNL     1      19.920  16.444  11.429  1.00  0.00     0.240 C
BRANCH   9  10
HETATM   10  C7  UNL     1      20.888  16.688  12.510  1.00  0.00     0.266 C
HETATM   11  O2  UNL     1      20.474  16.692  13.656  1.00  0.00    -0.304 OA
ENDBRANCH   9  10
BRANCH   9  12
HETATM   12  N2  UNL     1      20.566  16.191  10.161  1.00  0.00    -0.317 N
HETATM   13  C8  UNL     1      20.610  17.183   9.176  1.00  0.00     0.362 C
HETATM   14  O3  UNL     1      20.086  18.301   9.399  1.00  0.00    -0.238 OA
ATOM     15  H2  UNL     1      20.994  15.282   9.984  1.00  0.00     0.166 HD
BRANCH  13  16
HETATM   16  O4  UNL     1      21.215  16.995   7.943  1.00  0.00    -0.294 OA
BRANCH  16  17
HETATM   17  C9  UNL     1      22.601  17.204   7.725  1.00  0.00     0.061 C
HETATM   18  C10 UNL     1      23.418  16.007   8.161  1.00  0.00     0.046 C
HETATM   19  C11 UNL     1      23.101  18.401   8.515  1.00  0.00     0.046 C
HETATM   20  C12 UNL     1      22.844  17.437   6.264  1.00  0.00     0.046 C
ENDBRANCH  16  17
ENDBRANCH  13  16
ENDBRANCH   9  12
ENDBRANCH   6   9
ENDBRANCH   1   5
BRANCH   1  21
HETATM   21  C13 UNL     1      17.173  14.102  14.329  1.00  0.00     0.337 C
BRANCH  21  22
HETATM   22  C14 UNL     1      15.906  14.312  15.178  1.00  0.00     0.255 C
HETATM   23  O5  UNL     1      15.031  13.422  15.199  1.00  0.00    -0.271 OA
HETATM   24  N3  UNL     1      15.686  15.477  15.945  1.00  0.00    -0.359 N
HETATM   25  C15 UNL     1      16.593  16.604  16.060  1.00  0.00     0.152 C
HETATM   26  C16 UNL     1      14.407  15.537  16.689  1.00  0.00     0.152 C
ENDBRANCH  21  22
BRANCH  21  27
HETATM   27  N4  UNL     1      17.516  12.769  14.705  1.00  0.00     0.106 N
HETATM   28  C17 UNL     1      18.265  11.909  13.867  1.00  0.00     0.273 C
HETATM   29  C18 UNL     1      19.762  11.980  13.994  1.00  0.00     0.032 C
HETATM   30  C19 UNL     1      20.295  13.241  14.588  1.00  0.00     0.036 C
HETATM   31  C20 UNL     1      19.574  13.540  15.859  1.00  0.00     0.211 C
HETATM   32  C21 UNL     1      18.275  12.821  15.977  1.00  0.00     0.306 C
BRANCH  31  33
HETATM   33  N5  UNL     1      20.449  13.292  16.991  1.00  0.00    -0.073 N
ATOM     34  H53 UNL     1      21.128  12.556  16.797  1.00  0.00     0.274 HD
ATOM     35  H52 UNL     1      21.103  14.060  17.146  1.00  0.00     0.274 HD
ATOM     36  H51 UNL     1      19.892  13.090  17.821  1.00  0.00     0.274 HD
ENDBRANCH  31  33
ENDBRANCH  21  27
ENDBRANCH   1  21
TORSDOF 11
ENDMDL