MODEL 1
REMARK VINA RESULT: -7.730635256      0.000      0.000
REMARK  11 active torsions:
REMARK  status: ('A' for Active; 'I' for Inactive)
REMARK    1  A    between atoms: C3_3  and  C4_4
REMARK    2  A    between atoms: C4_4  and  C5_5
REMARK    3  A    between atoms: C5_5  and  N1_6
REMARK    4  A    between atoms: N1_6  and  C6_8
REMARK    5  A    between atoms: N3_14  and  C9_15
REMARK    6  A    between atoms: C9_15  and  C10_16
REMARK    7  A    between atoms: C10_16  and  N4_17
REMARK    8  A    between atoms: C15_23  and  N5_24
REMARK    9  A    between atoms: C17_32  and  N8_33
REMARK   10  A    between atoms: N8_33  and  C18_35
REMARK   11  A    between atoms: C18_35  and  C19_36
ROOT
HETATM    1  C1  UNL     1      19.848  19.678   6.357  1.00  0.00     0.012 C
HETATM    2  C2  UNL     1      20.136  19.192   7.433  1.00  0.00    -0.117 C
HETATM    3  C3  UNL     1      20.457  18.612   8.731  1.00  0.00     0.104 C
ENDROOT
BRANCH   3   4
HETATM    4  C4  UNL     1      19.272  17.921   9.354  1.00  0.00    -0.014 A
HETATM    5  C21 UNL     1      17.888  18.251   9.011  1.00  0.00     0.013 A
HETATM    6  C22 UNL     1      18.460  18.581  10.397  1.00  0.00     0.013 A
BRANCH   4   7
HETATM    7  C5  UNL     1      19.546  16.416   9.624  1.00  0.00     0.131 C
BRANCH   7   8
HETATM    8  N1  UNL     1      20.769  16.326  10.323  1.00  0.00    -0.372 N
ATOM      9  H1  UNL     1      21.427  17.094  10.192  1.00  0.00     0.161 HD
BRANCH   8  10
HETATM   10  C6  UNL     1      21.133  15.396  11.092  1.00  0.00     0.146 A
HETATM   11  N2  UNL     1      20.140  14.668  11.722  1.00  0.00    -0.332 N
HETATM   12  C7  UNL     1      20.396  13.662  12.556  1.00  0.00     0.148 A
ATOM     13  H2  UNL     1      19.167  14.913  11.539  1.00  0.00     0.168 HD
HETATM   14  C8  UNL     1      19.377  12.941  13.181  1.00  0.00     0.292 A
HETATM   15  C16 UNL     1      21.686  13.281  12.846  1.00  0.00     0.155 A
HETATM   16  O1  UNL     1      18.200  13.273  12.929  1.00  0.00    -0.265 OA
HETATM   17  N3  UNL     1      19.637  11.927  14.021  1.00  0.00    -0.144 N
HETATM   18  C15 UNL     1      20.906  11.589  14.275  1.00  0.00     0.682 A
HETATM   19  N6  UNL     1      21.946  12.259  13.693  1.00  0.00    -0.174 N
ATOM     20  H6  UNL     1      22.910  11.991  13.895  1.00  0.00     0.186 HD
HETATM   21  N7  UNL     1      22.661  13.975  12.244  1.00  0.00    -0.323 N
HETATM   22  C17 UNL     1      22.419  15.009  11.386  1.00  0.00     0.147 A
ATOM     23  H7  UNL     1      23.629  13.719  12.437  1.00  0.00     0.169 HD
BRANCH  17  24
HETATM   24  C9  UNL     1      18.576  11.183  14.664  1.00  0.00     0.181 C
BRANCH  24  25
HETATM   25  C10 UNL     1      18.047  11.844  15.887  1.00  0.00     0.293 C
BRANCH  25  26
HETATM   26  N4  UNL     1      17.471  10.863  16.774  1.00  0.00     0.094 N
HETATM   27  C11 UNL     1      18.004   9.531  16.511  1.00  0.00     0.298 C
HETATM   28  C12 UNL     1      19.024   9.139  17.570  1.00  0.00     0.198 C
HETATM   29  O2  UNL     1      19.818  10.237  17.848  1.00  0.00    -0.388 OA
HETATM   30  C13 UNL     1      19.054  11.119  18.627  1.00  0.00     0.198 C
HETATM   31  C14 UNL     1      17.612  11.137  18.169  1.00  0.00     0.298 C
ENDBRANCH  25  26
ENDBRANCH  24  25
ENDBRANCH  17  24
BRANCH  18  32
HETATM   32  N5  UNL     1      21.121  10.612  15.086  1.00  0.00    -0.234 N
ATOM     33  H52 UNL     1      21.711   9.826  14.814  1.00  0.00     0.174 HD
ATOM     34  H51 UNL     1      20.685  10.649  16.008  1.00  0.00     0.174 HD
ENDBRANCH  18  32
BRANCH  22  35
HETATM   35  N8  UNL     1      23.394  15.641  10.836  1.00  0.00    -0.373 N
ATOM     36  H8  UNL     1      23.650  16.540  11.243  1.00  0.00     0.161 HD
BRANCH  35  37
HETATM   37  C18 UNL     1      24.157  15.197   9.703  1.00  0.00     0.121 C
BRANCH  37  38
HETATM   38  C19 UNL     1      23.983  16.139   8.517  1.00  0.00     0.015 C
HETATM   39  C20 UNL     1      23.933  17.563   9.033  1.00  0.00     0.006 C
ENDBRANCH  37  38
ENDBRANCH  35  37
ENDBRANCH  22  35
ENDBRANCH   8  10
ENDBRANCH   7   8
ENDBRANCH   4   7
ENDBRANCH   3   4
TORSDOF 11
ENDMDL