MODEL 2
REMARK VINA RESULT: -7.497843715      1.230      2.327
REMARK  10 active torsions:
REMARK  status: ('A' for Active; 'I' for Inactive)
REMARK    1  A    between atoms: C2_2  and  N1_4
REMARK    2  A    between atoms: N1_4  and  C4_6
REMARK    3  A    between atoms: C4_6  and  C5_7
REMARK    4  A    between atoms: C4_6  and  C19_33
REMARK       I    between atoms: C5_7  and  N2_9
REMARK    5  A    between atoms: N2_9  and  C6_11
REMARK    6  A    between atoms: C6_11  and  C7_12
REMARK    7  A    between atoms: C6_11  and  C12_19
REMARK       I    between atoms: C7_12  and  N3_14
REMARK    8  A    between atoms: C12_19  and  C14_21
REMARK       I    between atoms: C14_21  and  N4_23
REMARK    9  A    between atoms: N4_23  and  C15_25
REMARK   10  A    between atoms: C18_30  and  O6_31
ROOT
HETATM    1  C6  UNL     1      18.735  15.311  11.814  1.00  0.00     0.189 C
ENDROOT
BRANCH   1   2
HETATM    2  N2  UNL     1      19.925  15.574  11.058  1.00  0.00    -0.345 N
HETATM    3  C5  UNL     1      20.899  16.561  11.218  1.00  0.00     0.241 C
HETATM    4  O1  UNL     1      20.827  17.408  12.132  1.00  0.00    -0.271 OA
ATOM      5  H2  UNL     1      20.085  14.937  10.277  1.00  0.00     0.163 HD
BRANCH   3   6
HETATM    6  C4  UNL     1      22.096  16.659  10.301  1.00  0.00     0.173 C
BRANCH   6   7
HETATM    7  N1  UNL     1      21.557  16.780   8.955  1.00  0.00    -0.406 N
ATOM      8  H1  UNL     1      20.966  16.061   8.537  1.00  0.00     0.154 HD
BRANCH   7   9
HETATM    9  C2  UNL     1      21.910  17.965   8.265  1.00  0.00     0.069 C
HETATM   10  C1  UNL     1      22.478  17.533   6.905  1.00  0.00     0.031 C
HETATM   11  C3  UNL     1      20.759  18.893   7.991  1.00  0.00     0.031 C
ENDBRANCH   7   9
ENDBRANCH   6   7
BRANCH   6  12
HETATM   12  C19 UNL     1      22.869  15.372  10.338  1.00  0.00     0.009 C
HETATM   13  C20 UNL     1      24.099  15.346   9.480  1.00  0.00     0.012 C
HETATM   14  C21 UNL     1      23.238  15.032  11.789  1.00  0.00     0.012 C
ENDBRANCH   6  12
ENDBRANCH   3   6
ENDBRANCH   1   2
BRANCH   1  15
HETATM   15  C7  UNL     1      18.722  13.977  12.412  1.00  0.00     0.243 C
HETATM   16  O2  UNL     1      18.541  12.973  11.684  1.00  0.00    -0.271 OA
HETATM   17  N3  UNL     1      18.916  13.786  13.796  1.00  0.00    -0.346 N
HETATM   18  C8  UNL     1      19.170  14.579  15.001  1.00  0.00     0.128 C
HETATM   19  C10 UNL     1      18.950  12.617  14.696  1.00  0.00     0.084 C
HETATM   20  C9  UNL     1      19.916  13.390  15.551  1.00  0.00     0.045 C
HETATM   21  C11 UNL     1      17.640  12.354  15.376  1.00  0.00     0.032 C
ENDBRANCH   1  15
BRANCH   1  22
HETATM   22  C12 UNL     1      17.479  15.508  10.961  1.00  0.00     0.106 C
HETATM   23  C13 UNL     1      16.233  15.486  11.844  1.00  0.00     0.022 C
BRANCH  22  24
HETATM   24  C14 UNL     1      17.526  16.747  10.163  1.00  0.00     0.224 C
HETATM   25  O3  UNL     1      18.284  16.848   9.172  1.00  0.00    -0.273 OA
HETATM   26  N4  UNL     1      16.722  17.886  10.464  1.00  0.00    -0.351 N
ATOM     27  H4  UNL     1      16.095  17.833  11.266  1.00  0.00     0.163 HD
BRANCH  26  28
HETATM   28  C15 UNL     1      16.745  19.097   9.707  1.00  0.00     0.149 C
HETATM   29  C16 UNL     1      16.126  20.274  10.461  1.00  0.00     0.141 C
HETATM   30  C17 UNL     1      15.624  21.090   9.314  1.00  0.00     0.263 C
HETATM   31  O4  UNL     1      15.184  22.270   9.395  1.00  0.00    -0.265 OA
HETATM   32  O5  UNL     1      15.712  20.353   8.131  1.00  0.00    -0.288 OA
HETATM   33  C18 UNL     1      15.798  18.991   8.532  1.00  0.00     0.289 C
BRANCH  33  34
HETATM   34  O6  UNL     1      14.554  18.563   8.991  1.00  0.00    -0.369 OA
ATOM     35  H6  UNL     1      14.352  17.724   8.595  1.00  0.00     0.212 HD
ENDBRANCH  33  34
ENDBRANCH  26  28
ENDBRANCH  22  24
ENDBRANCH   1  22
TORSDOF 10
ENDMDL