MODEL 3
REMARK VINA RESULT: -7.822350970      1.552      2.230
REMARK  10 active torsions:
REMARK  status: ('A' for Active; 'I' for Inactive)
REMARK    1  A    between atoms: S1_2  and  C1_4
REMARK    2  A    between atoms: S1_2  and  N2_21
REMARK    3  A    between atoms: C1_4  and  C2_5
REMARK    4  A    between atoms: C2_5  and  C3_6
REMARK    5  A    between atoms: C10_17  and  C11_18
REMARK    6  A    between atoms: C11_18  and  O4_19
REMARK    7  A    between atoms: N2_21  and  C12_23
REMARK    8  A    between atoms: C12_23  and  C13_24
REMARK    9  A    between atoms: C13_24  and  O5_25
REMARK   10  A    between atoms: C13_24  and  C14_27
ROOT
HETATM    1  O1  UNL     1      24.181  15.514   8.084  1.00  0.00    -0.206 OA
HETATM    2  S1  UNL     1      23.332  16.229   9.079  1.00  0.00     0.230 S
HETATM    3  O2  UNL     1      24.202  17.578   9.316  1.00  0.00    -0.206 OA
ENDROOT
BRANCH   2   4
HETATM    4  C1  UNL     1      23.289  15.489  10.607  1.00  0.00     0.164 C
BRANCH   4   5
HETATM    5  C2  UNL     1      22.239  14.371  10.491  1.00  0.00     0.027 C
BRANCH   5   6
HETATM    6  C3  UNL     1      21.237  14.348  11.641  1.00  0.00    -0.028 C
HETATM    7  C4  UNL     1      21.334  15.601  12.445  1.00  0.00     0.036 C
HETATM    8  C5  UNL     1      20.005  15.944  13.031  1.00  0.00     0.169 C
HETATM    9  O3  UNL     1      19.576  14.903  13.806  1.00  0.00    -0.382 OA
HETATM   10  C6  UNL     1      18.987  13.860  13.196  1.00  0.00     0.183 C
HETATM   11  C7  UNL     1      18.769  13.908  11.735  1.00  0.00     0.218 C
HETATM   12  C9  UNL     1      19.859  12.686  12.874  1.00  0.00     0.224 C
HETATM   13  C8  UNL     1      19.884  14.453  10.911  1.00  0.00     0.046 C
HETATM   14  N1  UNL     1      18.963  12.454  11.738  1.00  0.00    -0.061 N
ATOM     15  H12 UNL     1      18.179  11.805  11.794  1.00  0.00     0.278 HD
ATOM     16  H11 UNL     1      19.268  11.949  10.905  1.00  0.00     0.278 HD
HETATM   17  C10 UNL     1      21.273  13.069  12.350  1.00  0.00     0.051 C
BRANCH  17  18
HETATM   18  C11 UNL     1      22.223  12.967  13.504  1.00  0.00     0.171 C
BRANCH  18  19
HETATM   19  O4  UNL     1      22.220  11.777  14.196  1.00  0.00    -0.400 OA
ATOM     20  H4  UNL     1      22.704  11.060  13.805  1.00  0.00     0.209 HD
ENDBRANCH  18  19
ENDBRANCH  17  18
ENDBRANCH   5   6
ENDBRANCH   4   5
ENDBRANCH   2   4
BRANCH   2  21
HETATM   21  N2  UNL     1      21.947  16.839   8.262  1.00  0.00    -0.293 N
ATOM     22  H2  UNL     1      21.751  16.724   7.268  1.00  0.00     0.177 HD
BRANCH  21  23
HETATM   23  C12 UNL     1      21.150  17.502   9.153  1.00  0.00     0.132 C
BRANCH  23  24
HETATM   24  C13 UNL     1      19.990  18.133   8.413  1.00  0.00     0.064 C
BRANCH  24  25
HETATM   25  O5  UNL     1      20.363  19.336   7.903  1.00  0.00    -0.363 OA
ATOM     26  H5  UNL     1      21.200  19.256   7.460  1.00  0.00     0.217 HD
ENDBRANCH  24  25
BRANCH  24  27
HETATM   27  C14 UNL     1      18.621  17.938   8.737  1.00  0.00     0.050 C
HETATM   28  C15 UNL     1      17.922  19.285   8.348  1.00  0.00     0.014 C
HETATM   29  C16 UNL     1      16.448  19.203   8.512  1.00  0.00     0.033 C
HETATM   30  C17 UNL     1      16.132  19.036   9.980  1.00  0.00     0.121 C
HETATM   31  C18 UNL     1      15.863  17.601  10.317  1.00  0.00     0.032 C
HETATM   32  O6  UNL     1      17.087  19.638  10.762  1.00  0.00    -0.385 OA
HETATM   33  C19 UNL     1      17.127  16.798  10.264  1.00  0.00     0.010 C
HETATM   34  C20 UNL     1      18.359  17.673  10.161  1.00  0.00     0.020 C
HETATM   35  C21 UNL     1      18.220  18.904  10.993  1.00  0.00     0.173 C
ENDBRANCH  24  27
ENDBRANCH  23  24
ENDBRANCH  21  23
ENDBRANCH   2  21
TORSDOF 10
ENDMDL