MODEL 1
REMARK VINA RESULT: -7.609253971      0.000      0.000
REMARK  11 active torsions:
REMARK  status: ('A' for Active; 'I' for Inactive)
REMARK    1  A    between atoms: O1_2  and  C2_3
REMARK       I    between atoms: C2_3  and  N1_5
REMARK    2  A    between atoms: C5_8  and  C6_9
REMARK    3  A    between atoms: C6_9  and  C7_10
REMARK    4  A    between atoms: C7_10  and  N2_11
REMARK    5  A    between atoms: C7_10  and  C15_24
REMARK    6  A    between atoms: N2_11  and  C8_13
REMARK    7  A    between atoms: C8_13  and  O3_14
REMARK    8  A    between atoms: C8_13  and  C9_16
REMARK    9  A    between atoms: C9_16  and  C10_18
REMARK   10  A    between atoms: C10_18  and  N3_19
REMARK       I    between atoms: C15_24  and  N4_26
REMARK   11  A    between atoms: N4_26  and  C16_28
ROOT
HETATM    1  C7  UNL     1      21.165  12.644  13.438  1.00  0.00     0.172 C
ENDROOT
BRANCH   1   2
HETATM    2  C6  UNL     1      22.434  13.335  13.038  1.00  0.00     0.039 C
BRANCH   2   3
HETATM    3  C5  UNL     1      22.417  14.482  12.137  1.00  0.00    -0.009 C
HETATM    4  C4  UNL     1      23.779  14.925  11.684  1.00  0.00     0.024 C
HETATM    5  C3  UNL     1      23.773  15.175  10.165  1.00  0.00     0.128 C
HETATM    6  N1  UNL     1      22.573  15.900   9.804  1.00  0.00    -0.328 N
HETATM    7  C2  UNL     1      22.590  17.202   9.258  1.00  0.00     0.362 C
HETATM    8  C21 UNL     1      21.311  15.241  10.024  1.00  0.00     0.128 C
HETATM    9  O2  UNL     1      23.667  17.810   9.052  1.00  0.00    -0.238 OA
HETATM   10  C20 UNL     1      21.583  14.049  10.907  1.00  0.00     0.024 C
BRANCH   7  11
HETATM   11  O1  UNL     1      21.407  17.832   8.940  1.00  0.00    -0.309 OA
HETATM   12  C1  UNL     1      21.251  18.466   7.703  1.00  0.00     0.215 C
ENDBRANCH   7  11
ENDBRANCH   2   3
ENDBRANCH   1   2
BRANCH   1  13
HETATM   13  N2  UNL     1      20.079  13.488  13.714  1.00  0.00    -0.378 N
ATOM     14  H2  UNL     1      20.176  14.337  14.270  1.00  0.00     0.157 HD
BRANCH  13  15
HETATM   15  C8  UNL     1      18.810  13.073  13.154  1.00  0.00     0.287 C
BRANCH  15  16
HETATM   16  O3  UNL     1      18.179  12.354  14.236  1.00  0.00    -0.370 OA
ATOM     17  H3  UNL     1      18.029  11.489  13.873  1.00  0.00     0.212 HD
ENDBRANCH  15  16
BRANCH  15  18
HETATM   18  C9  UNL     1      17.888  14.181  12.843  1.00  0.00     0.202 C
HETATM   19  O4  UNL     1      16.902  13.995  12.164  1.00  0.00    -0.291 OA
BRANCH  18  20
HETATM   20  C10 UNL     1      18.142  15.540  13.352  1.00  0.00     0.355 C
BRANCH  20  21
HETATM   21  N3  UNL     1      18.525  16.456  12.293  1.00  0.00     0.095 N
HETATM   22  C11 UNL     1      19.699  17.211  12.570  1.00  0.00     0.273 C
HETATM   23  C12 UNL     1      19.547  18.550  11.909  1.00  0.00     0.032 C
HETATM   24  C13 UNL     1      18.242  18.448  11.149  1.00  0.00     0.032 C
HETATM   25  C14 UNL     1      17.507  17.434  12.017  1.00  0.00     0.273 C
ENDBRANCH  20  21
ENDBRANCH  18  20
ENDBRANCH  15  18
ENDBRANCH  13  15
ENDBRANCH   1  13
BRANCH   1  26
HETATM   26  C15 UNL     1      21.581  11.734  14.566  1.00  0.00     0.240 C
HETATM   27  O5  UNL     1      20.820  11.449  15.484  1.00  0.00    -0.271 OA
HETATM   28  N4  UNL     1      22.886  11.168  14.600  1.00  0.00    -0.353 N
ATOM     29  H4  UNL     1      23.532  11.390  13.843  1.00  0.00     0.163 HD
BRANCH  28  30
HETATM   30  C16 UNL     1      23.339  10.297  15.652  1.00  0.00     0.111 C
HETATM   31  C17 UNL     1      24.838  10.400  15.895  1.00  0.00     0.054 C
HETATM   32  C18 UNL     1      25.355   9.807  14.612  1.00  0.00     0.234 C
HETATM   33  N5  UNL     1      24.374   8.866  14.164  1.00  0.00    -0.073 N
HETATM   34  C19 UNL     1      23.292   8.857  15.126  1.00  0.00     0.257 C
ATOM     35  H52 UNL     1      24.056   9.051  13.213  1.00  0.00     0.277 HD
ATOM     36  H51 UNL     1      24.763   7.938  13.998  1.00  0.00     0.277 HD
ENDBRANCH  28  30
ENDBRANCH   1  26
TORSDOF 11
ENDMDL