MODEL 5
REMARK VINA RESULT: -7.855136889      3.028      8.475
REMARK  9 active torsions:
REMARK  status: ('A' for Active; 'I' for Inactive)
REMARK    1  A    between atoms: C5_9  and  C6_10
REMARK       I    between atoms: C6_10  and  N3_12
REMARK    2  A    between atoms: N3_12  and  C7_14
REMARK    3  A    between atoms: C7_14  and  C8_15
REMARK    4  A    between atoms: C7_14  and  C15_22
REMARK    5  A    between atoms: C8_15  and  C9_16
REMARK    6  A    between atoms: C15_22  and  O2_23
REMARK    7  A    between atoms: C15_22  and  C16_25
REMARK    8  A    between atoms: C16_25  and  C17_26
REMARK       I    between atoms: C17_26  and  N4_28
REMARK    9  A    between atoms: C21_32  and  C22_33
ROOT
HETATM    1  C7  UNL     1      18.590  14.650  12.525  1.00  0.00     0.019 C
ENDROOT
BRANCH   1   2
HETATM    2  N3  UNL     1      18.772  14.061  13.794  1.00  0.00    -0.330 N
HETATM    3  C6  UNL     1      18.885  12.701  14.151  1.00  0.00     0.257 C
HETATM    4  O1  UNL     1      18.852  11.774  13.320  1.00  0.00    -0.271 OA
ATOM      5  H3  UNL     1      18.830  14.720  14.572  1.00  0.00     0.168 HD
BRANCH   3   6
HETATM    6  C5  UNL     1      19.052  12.302  15.574  1.00  0.00     0.339 C
HETATM    7  N1  UNL     1      19.278  10.908  15.748  1.00  0.00     0.101 N
HETATM    8  C1  UNL     1      18.024  10.328  16.259  1.00  0.00     0.311 C
HETATM    9  C2  UNL     1      20.280  10.633  16.766  1.00  0.00     0.300 C
HETATM   10  C3  UNL     1      20.196  11.610  17.916  1.00  0.00     0.262 C
HETATM   11  N2  UNL     1      20.287  12.985  17.496  1.00  0.00    -0.071 N
HETATM   12  C4  UNL     1      20.302  13.039  16.068  1.00  0.00     0.277 C
ATOM     13  H22 UNL     1      19.549  13.562  17.898  1.00  0.00     0.277 HD
ATOM     14  H21 UNL     1      21.086  13.464  17.911  1.00  0.00     0.277 HD
ENDBRANCH   3   6
ENDBRANCH   1   2
BRANCH   1  15
HETATM   15  C8  UNL     1      17.203  14.574  11.923  1.00  0.00     0.060 C
BRANCH  15  16
HETATM   16  C9  UNL     1      16.184  15.311  12.757  1.00  0.00    -0.009 C
HETATM   17  C10 UNL     1      15.139  14.271  13.153  1.00  0.00     0.005 C
HETATM   18  C11 UNL     1      14.117  14.054  12.069  1.00  0.00     0.000 C
HETATM   19  C12 UNL     1      13.178  15.252  12.051  1.00  0.00     0.000 C
HETATM   20  C13 UNL     1      14.026  16.442  12.446  1.00  0.00     0.000 C
HETATM   21  C14 UNL     1      15.425  16.323  11.888  1.00  0.00     0.005 C
ENDBRANCH  15  16
ENDBRANCH   1  15
BRANCH   1  22
HETATM   22  C15 UNL     1      19.610  14.391  11.482  1.00  0.00     0.172 C
BRANCH  22  23
HETATM   23  O2  UNL     1      19.283  13.316  10.653  1.00  0.00    -0.389 OA
ATOM     24  H2  UNL     1      19.212  13.561   9.737  1.00  0.00     0.210 HD
ENDBRANCH  22  23
BRANCH  22  25
HETATM   25  C16 UNL     1      19.873  15.587  10.591  1.00  0.00     0.140 C
BRANCH  25  26
HETATM   26  C17 UNL     1      21.353  15.852  10.591  1.00  0.00     0.223 C
HETATM   27  O3  UNL     1      22.009  15.444  11.578  1.00  0.00    -0.273 OA
HETATM   28  N4  UNL     1      21.983  16.530   9.529  1.00  0.00    -0.337 N
HETATM   29  C18 UNL     1      21.288  17.030   8.356  1.00  0.00     0.127 C
HETATM   30  C21 UNL     1      23.387  16.831   9.438  1.00  0.00     0.188 C
HETATM   31  C19 UNL     1      22.176  18.088   7.759  1.00  0.00     0.022 C
HETATM   32  C20 UNL     1      23.500  18.030   8.516  1.00  0.00     0.038 C
BRANCH  30  33
HETATM   33  C22 UNL     1      24.172  15.696   8.886  1.00  0.00     0.196 C
HETATM   34  O4  UNL     1      24.646  14.872   9.698  1.00  0.00    -0.646 OA
HETATM   35  O5  UNL     1      24.402  15.514   7.530  1.00  0.00    -0.646 OA
ENDBRANCH  30  33
ENDBRANCH  25  26
ENDBRANCH  22  25
ENDBRANCH   1  22
TORSDOF 9
ENDMDL