MODEL 4
REMARK VINA RESULT: -5.026355974      1.210      1.492
REMARK  7 active torsions:
REMARK  status: ('A' for Active; 'I' for Inactive)
REMARK    1  A    between atoms: C2_2  and  C4_4
REMARK    2  A    between atoms: C4_4  and  N1_5
REMARK    3  A    between atoms: C4_4  and  C5_9
REMARK    4  A    between atoms: C5_9  and  O1_10
REMARK    5  A    between atoms: C5_9  and  C6_12
REMARK    6  A    between atoms: C6_12  and  N2_13
REMARK    7  A    between atoms: N2_13  and  C7_14
ROOT
HETATM    1  C5  UNL     1     -11.966   9.124  41.156  1.00  0.00     0.201 C
ENDROOT
BRANCH   1   2
HETATM    2  C4  UNL     1     -11.992   9.409  39.685  1.00  0.00     0.221 C
BRANCH   2   3
HETATM    3  C2  UNL     1     -10.957   8.688  38.880  1.00  0.00     0.011 C
HETATM    4  C1  UNL     1     -11.032   8.990  37.407  1.00  0.00     0.011 C
HETATM    5  C3  UNL     1     -11.287   7.195  39.025  1.00  0.00     0.011 C
ENDBRANCH   2   3
BRANCH   2   6
HETATM    6  N1  UNL     1     -11.945  10.843  39.417  1.00  0.00    -0.072 N
ATOM      7  H13 UNL     1     -12.704  11.138  38.801  1.00  0.00     0.274 HD
ATOM      8  H12 UNL     1     -12.196  11.391  40.240  1.00  0.00     0.274 HD
ATOM      9  H11 UNL     1     -11.032  11.110  39.047  1.00  0.00     0.274 HD
ENDBRANCH   2   6
ENDBRANCH   1   2
BRANCH   1  10
HETATM   10  O1  UNL     1     -13.106   8.583  41.681  1.00  0.00    -0.387 OA
ATOM     11  H1  UNL     1     -12.986   7.828  42.246  1.00  0.00     0.210 HD
ENDBRANCH   1  10
BRANCH   1  12
HETATM   12  C6  UNL     1     -11.510  10.394  41.881  1.00  0.00     0.193 C
BRANCH  12  13
HETATM   13  N2  UNL     1     -12.357  10.945  42.723  1.00  0.00    -0.386 NA
BRANCH  13  14
HETATM   14  C7  UNL     1     -13.111  11.461  43.481  1.00  0.00     0.250 C
HETATM   15  N3  UNL     1     -13.065  11.447  44.952  1.00  0.00    -0.349 N
HETATM   16  C8  UNL     1     -14.389  11.824  45.358  1.00  0.00     0.143 C
ATOM     17  H3  UNL     1     -12.270  11.220  45.550  1.00  0.00     0.163 HD
HETATM   18  C9  UNL     1     -14.659  12.948  44.346  1.00  0.00     0.143 C
HETATM   19  N4  UNL     1     -14.300  12.259  43.133  1.00  0.00    -0.349 N
ATOM     20  H4  UNL     1     -14.767  12.311  42.228  1.00  0.00     0.163 HD
ENDBRANCH  13  14
ENDBRANCH  12  13
ENDBRANCH   1  12
TORSDOF 7
ENDMDL