MODEL 1
REMARK VINA RESULT: -4.807666778      0.000      0.000
REMARK  7 active torsions:
REMARK  status: ('A' for Active; 'I' for Inactive)
REMARK    1  A    between atoms: N1_1  and  C1_5
REMARK    2  A    between atoms: C1_5  and  C2_6
REMARK    3  A    between atoms: C2_6  and  C3_7
REMARK    4  A    between atoms: C3_7  and  N2_8
REMARK    5  A    between atoms: N2_8  and  C4_10
REMARK    6  A    between atoms: C4_10  and  C5_11
REMARK    7  A    between atoms: C8_15  and  N3_16
ROOT
HETATM    1  C5  UNL     1     -11.605   9.387  39.564  1.00  0.00     0.029 C
HETATM    2  C6  UNL     1     -12.452   8.833  38.438  1.00  0.00     0.174 C
HETATM    3  O1  UNL     1     -12.207   9.429  37.218  1.00  0.00    -0.389 OA
HETATM    4  C7  UNL     1     -10.907   9.026  36.838  1.00  0.00     0.200 C
HETATM    5  C8  UNL     1      -9.985   9.797  37.780  1.00  0.00     0.207 C
HETATM    6  C9  UNL     1     -10.169   9.263  39.182  1.00  0.00     0.043 C
ENDROOT
BRANCH   1   7
HETATM    7  C4  UNL     1     -11.951   8.542  40.788  1.00  0.00     0.120 C
BRANCH   7   8
HETATM    8  N2  UNL     1     -12.186   9.328  41.943  1.00  0.00    -0.421 N
ATOM      9  H2  UNL     1     -12.181   8.916  42.875  1.00  0.00     0.153 HD
BRANCH   8  10
HETATM   10  C3  UNL     1     -12.428  10.706  41.751  1.00  0.00     0.115 C
BRANCH  10  11
HETATM   11  C2  UNL     1     -12.090  11.609  42.908  1.00  0.00     0.046 C
BRANCH  11  12
HETATM   12  C1  UNL     1     -12.277  10.921  44.240  1.00  0.00     0.231 C
BRANCH  12  13
HETATM   13  N1  UNL     1     -13.320  11.481  45.043  1.00  0.00    -0.079 N
ATOM     14  H13 UNL     1     -12.935  12.137  45.723  1.00  0.00     0.274 HD
ATOM     15  H12 UNL     1     -13.892  12.120  44.491  1.00  0.00     0.274 HD
ATOM     16  H11 UNL     1     -13.905  10.787  45.508  1.00  0.00     0.274 HD
ENDBRANCH  12  13
ENDBRANCH  11  12
ENDBRANCH  10  11
ENDBRANCH   8  10
ENDBRANCH   7   8
ENDBRANCH   1   7
BRANCH   5  17
HETATM   17  N3  UNL     1     -10.328  11.184  37.646  1.00  0.00    -0.073 N
ATOM     18  H33 UNL     1     -10.364  11.499  36.676  1.00  0.00     0.274 HD
ATOM     19  H32 UNL     1     -11.300  11.384  37.882  1.00  0.00     0.274 HD
ATOM     20  H31 UNL     1      -9.660  11.706  38.214  1.00  0.00     0.274 HD
ENDBRANCH   5  17
TORSDOF 7
ENDMDL