MODEL 4
REMARK VINA RESULT: -5.107263341      1.226      1.565
REMARK  6 active torsions:
REMARK  status: ('A' for Active; 'I' for Inactive)
REMARK    1  A    between atoms: O1_2  and  C2_3
REMARK    2  A    between atoms: C2_3  and  C3_4
REMARK    3  A    between atoms: C3_4  and  C4_5
REMARK    4  A    between atoms: C4_5  and  C5_6
REMARK    5  A    between atoms: C5_6  and  N1_7
REMARK    6  A    between atoms: C7_14  and  N5_15
ROOT
HETATM    1  N1  UNL     1     -10.882   9.262  40.138  1.00  0.00    -0.122 N
HETATM    2  N2  UNL     1     -11.181  10.064  41.137  1.00  0.00    -0.257 N
ATOM      3  H2  UNL     1     -10.695  10.935  41.348  1.00  0.00     0.190 HD
HETATM    4  C6  UNL     1     -12.230   9.565  41.848  1.00  0.00     0.222 A
HETATM    5  N3  UNL     1     -12.848  10.126  42.989  1.00  0.00    -0.061 NA
HETATM    6  N4  UNL     1     -12.568   8.426  41.251  1.00  0.00    -0.161 N
ATOM      7  H4  UNL     1     -13.323   7.804  41.541  1.00  0.00     0.187 HD
HETATM    8  C7  UNL     1     -11.745   8.229  40.198  1.00  0.00     0.695 A
ENDROOT
BRANCH   1   9
HETATM    9  C5  UNL     1      -9.830   9.441  39.152  1.00  0.00     0.168 C
BRANCH   9  10
HETATM   10  C4  UNL     1     -10.367  10.335  38.074  1.00  0.00     0.024 C
BRANCH  10  11
HETATM   11  C3  UNL     1     -10.386   9.676  36.719  1.00  0.00     0.028 C
BRANCH  11  12
HETATM   12  C2  UNL     1      -9.243  10.066  35.850  1.00  0.00     0.167 C
BRANCH  12  13
HETATM   13  O1  UNL     1      -9.508  11.183  35.056  1.00  0.00    -0.396 OA
HETATM   14  C1  UNL     1      -8.615  12.220  35.341  1.00  0.00     0.201 C
ENDBRANCH  12  13
ENDBRANCH  11  12
ENDBRANCH  10  11
ENDBRANCH   9  10
ENDBRANCH   1   9
BRANCH   8  15
HETATM   15  N5  UNL     1     -11.784   7.221  39.389  1.00  0.00    -0.233 N
ATOM     16  H52 UNL     1     -11.966   6.253  39.652  1.00  0.00     0.174 HD
ATOM     17  H51 UNL     1     -11.637   7.255  38.379  1.00  0.00     0.174 HD
ENDBRANCH   8  15
TORSDOF 6
ENDMDL