MODEL 4
REMARK VINA RESULT: -4.589195932      2.257      4.050
REMARK  6 active torsions:
REMARK  status: ('A' for Active; 'I' for Inactive)
REMARK    1  A    between atoms: C2_2  and  C3_3
REMARK    2  A    between atoms: C3_3  and  N1_4
REMARK    3  A    between atoms: N1_4  and  C4_7
REMARK    4  A    between atoms: C4_7  and  C5_8
REMARK    5  A    between atoms: C5_8  and  N2_9
REMARK    6  A    between atoms: N2_9  and  C6_11
ROOT
HETATM    1  C6  UNL     1     -12.888  11.602  43.804  1.00  0.00     0.709 A
HETATM    2  N3  UNL     1     -12.406  10.972  44.916  1.00  0.00    -0.020 N
ATOM      3  H3  UNL     1     -11.504  10.500  44.978  1.00  0.00     0.203 HD
HETATM    4  C7  UNL     1     -13.283  11.066  45.902  1.00  0.00     0.705 A
HETATM    5  N4  UNL     1     -13.234  10.616  47.119  1.00  0.00    -0.233 N
ATOM      6  H41 UNL     1     -13.911  10.689  47.879  1.00  0.00     0.174 HD
ATOM      7  H42 UNL     1     -12.430  10.093  47.466  1.00  0.00     0.174 HD
HETATM    8  N5  UNL     1     -14.341  11.755  45.445  1.00  0.00    -0.116 N
ATOM      9  H5  UNL     1     -15.182  11.991  45.972  1.00  0.00     0.206 HD
HETATM   10  N6  UNL     1     -14.086  12.074  44.166  1.00  0.00    -0.114 N
HETATM   11  C8  UNL     1     -14.984  12.828  43.298  1.00  0.00     0.198 C
ENDROOT
BRANCH   1  12
HETATM   12  N2  UNL     1     -12.227  11.654  42.709  1.00  0.00    -0.223 N
ATOM     13  H2  UNL     1     -11.437  12.298  42.701  1.00  0.00     0.177 HD
BRANCH  12  14
HETATM   14  C5  UNL     1     -12.446  10.937  41.506  1.00  0.00     0.165 C
BRANCH  14  15
HETATM   15  C4  UNL     1     -11.754   9.585  41.624  1.00  0.00     0.252 C
BRANCH  15  16
HETATM   16  N1  UNL     1     -10.779   9.417  40.558  1.00  0.00    -0.071 N
ATOM     17  H12 UNL     1     -10.373   8.481  40.560  1.00  0.00     0.277 HD
ATOM     18  H11 UNL     1      -9.929   9.952  40.734  1.00  0.00     0.277 HD
BRANCH  16  19
HETATM   19  C3  UNL     1     -11.367   9.747  39.276  1.00  0.00     0.259 C
BRANCH  19  20
HETATM   20  C2  UNL     1     -10.983   8.689  38.313  1.00  0.00    -0.010 C
HETATM   21  C1  UNL     1     -10.996   8.939  36.997  1.00  0.00     0.008 C
ENDBRANCH  19  20
ENDBRANCH  16  19
ENDBRANCH  15  16
ENDBRANCH  14  15
ENDBRANCH  12  14
ENDBRANCH   1  12
TORSDOF 6
ENDMDL