MODEL 3
REMARK VINA RESULT: -4.782216847      3.103      6.628
REMARK  7 active torsions:
REMARK  status: ('A' for Active; 'I' for Inactive)
REMARK    1  A    between atoms: O1_2  and  C2_3
REMARK    2  A    between atoms: C2_3  and  C3_4
REMARK    3  A    between atoms: C3_4  and  O2_5
REMARK    4  A    between atoms: O2_5  and  N1_6
REMARK    5  A    between atoms: N1_6  and  N2_8
REMARK    6  A    between atoms: N2_8  and  C4_10
REMARK    7  A    between atoms: C7_15  and  N4_16
ROOT
HETATM    1  C4  UNL     1     -11.680  10.609  38.360  1.00  0.00     0.138 A
HETATM    2  C5  UNL     1     -11.878   9.276  37.979  1.00  0.00     0.068 A
HETATM    3  C6  UNL     1     -11.126   8.691  36.992  1.00  0.00     0.110 A
HETATM    4  N3  UNL     1     -10.179   9.420  36.383  1.00  0.00    -0.202 N
ATOM      5  H3  UNL     1      -9.614   8.993  35.648  1.00  0.00     0.183 HD
HETATM    6  C7  UNL     1      -9.955  10.716  36.725  1.00  0.00     0.677 A
HETATM    7  N5  UNL     1     -10.714  11.262  37.700  1.00  0.00    -0.176 N
ATOM      8  H5  UNL     1     -10.539  12.235  37.951  1.00  0.00     0.186 HD
ENDROOT
BRANCH   1   9
HETATM    9  N2  UNL     1     -12.405  11.125  39.291  1.00  0.00    -0.265 N
ATOM     10  H2  UNL     1     -13.374  11.384  39.104  1.00  0.00     0.190 HD
BRANCH   9  11
HETATM   11  N1  UNL     1     -11.859  11.327  40.555  1.00  0.00    -0.206 N
ATOM     12  H1  UNL     1     -10.991  10.842  40.781  1.00  0.00     0.216 HD
BRANCH  11  13
HETATM   13  O2  UNL     1     -12.397  12.120  41.499  1.00  0.00    -0.263 OA
BRANCH  13  14
HETATM   14  C3  UNL     1     -12.886  11.423  42.590  1.00  0.00     0.229 C
BRANCH  14  15
HETATM   15  C2  UNL     1     -12.210  10.062  42.578  1.00  0.00     0.195 C
BRANCH  15  16
HETATM   16  O1  UNL     1     -13.008   9.165  41.916  1.00  0.00    -0.394 OA
HETATM   17  C1  UNL     1     -12.229   8.055  41.528  1.00  0.00     0.201 C
ENDBRANCH  15  16
ENDBRANCH  14  15
ENDBRANCH  13  14
ENDBRANCH  11  13
ENDBRANCH   9  11
ENDBRANCH   1   9
BRANCH   6  18
HETATM   18  N4  UNL     1      -9.035  11.374  36.112  1.00  0.00    -0.234 N
ATOM     19  H42 UNL     1      -8.682  12.269  36.450  1.00  0.00     0.174 HD
ATOM     20  H41 UNL     1      -8.641  10.990  35.254  1.00  0.00     0.174 HD
ENDBRANCH   6  18
TORSDOF 7
ENDMDL