MODEL 4
REMARK VINA RESULT: -4.096118616      1.650      2.147
REMARK  7 active torsions:
REMARK  status: ('A' for Active; 'I' for Inactive)
REMARK    1  A    between atoms: C2_2  and  C3_3
REMARK    2  A    between atoms: C2_2  and  N2_9
REMARK    3  A    between atoms: C3_3  and  C4_4
REMARK    4  A    between atoms: C4_4  and  N1_5
REMARK    5  A    between atoms: N2_9  and  C5_12
REMARK    6  A    between atoms: C5_12  and  C6_13
REMARK    7  A    between atoms: C9_19  and  N4_20
ROOT
HETATM    1  C5  UNL     1     -11.229   9.639  41.085  1.00  0.00     0.241 C
ENDROOT
BRANCH   1   2
HETATM    2  N2  UNL     1     -12.350   9.809  41.961  1.00  0.00    -0.071 N
ATOM      3  H22 UNL     1     -12.386   9.055  42.647  1.00  0.00     0.277 HD
ATOM      4  H21 UNL     1     -13.223   9.632  41.465  1.00  0.00     0.277 HD
BRANCH   2   5
HETATM    5  C2  UNL     1     -12.391  11.094  42.617  1.00  0.00     0.183 C
HETATM    6  C1  UNL     1     -11.982  10.888  44.068  1.00  0.00     0.040 C
BRANCH   5   7
HETATM    7  C3  UNL     1     -13.795  11.639  42.523  1.00  0.00     0.059 C
BRANCH   7   8
HETATM    8  C4  UNL     1     -14.227  12.372  43.753  1.00  0.00     0.231 C
BRANCH   8   9
HETATM    9  N1  UNL     1     -14.092  13.793  43.703  1.00  0.00    -0.079 N
ATOM     10  H13 UNL     1     -13.876  14.090  42.751  1.00  0.00     0.274 HD
ATOM     11  H12 UNL     1     -15.004  14.233  43.827  1.00  0.00     0.274 HD
ATOM     12  H11 UNL     1     -13.419  14.194  44.356  1.00  0.00     0.274 HD
ENDBRANCH   8   9
ENDBRANCH   7   8
ENDBRANCH   5   7
ENDBRANCH   2   5
ENDBRANCH   1   2
BRANCH   1  13
HETATM   13  C6  UNL     1     -11.614   9.067  39.745  1.00  0.00     0.069 C
HETATM   14  C7  UNL     1     -10.449   8.587  38.921  1.00  0.00     0.240 C
HETATM   15  N3  UNL     1     -10.946   8.552  37.545  1.00  0.00    -0.073 N
HETATM   16  C8  UNL     1     -12.114   9.411  37.495  1.00  0.00     0.265 C
ATOM     17  H32 UNL     1     -10.236   8.800  36.856  1.00  0.00     0.277 HD
ATOM     18  H31 UNL     1     -11.129   7.606  37.209  1.00  0.00     0.277 HD
HETATM   19  C9  UNL     1     -12.103  10.189  38.810  1.00  0.00     0.216 C
BRANCH  19  20
HETATM   20  N4  UNL     1     -11.168  11.256  38.687  1.00  0.00    -0.073 N
ATOM     21  H43 UNL     1     -11.404  11.860  37.899  1.00  0.00     0.274 HD
ATOM     22  H42 UNL     1     -11.278  11.926  39.448  1.00  0.00     0.274 HD
ATOM     23  H41 UNL     1     -10.202  10.932  38.623  1.00  0.00     0.274 HD
ENDBRANCH  19  20
ENDBRANCH   1  13
TORSDOF 7
ENDMDL