MODEL 1
REMARK VINA RESULT: -4.877565386      0.000      0.000
REMARK  5 active torsions:
REMARK  status: ('A' for Active; 'I' for Inactive)
REMARK    1  A    between atoms: C2_2  and  N1_3
REMARK    2  A    between atoms: N1_3  and  C3_5
REMARK    3  A    between atoms: C3_5  and  C4_6
REMARK    4  A    between atoms: C4_6  and  N2_7
REMARK    5  A    between atoms: N2_7  and  C5_10
ROOT
HETATM    1  C5  UNL     1     -11.596   9.572  39.780  1.00  0.00     0.291 C
HETATM    2  C6  UNL     1     -12.185   8.354  40.446  1.00  0.00     0.099 C
HETATM    3  C7  UNL     1     -12.107   8.449  41.916  1.00  0.00     0.067 C
HETATM    4  N3  UNL     1     -12.109   9.550  42.550  1.00  0.00    -0.342 N
ATOM      5  H3  UNL     1     -12.056   9.562  43.569  1.00  0.00     0.167 HD
HETATM    6  C8  UNL     1     -12.187  10.772  41.811  1.00  0.00     0.174 C
HETATM    7  N4  UNL     1     -12.204  11.939  42.371  1.00  0.00    -0.371 N
ATOM      8  H41 UNL     1     -12.259  12.810  41.843  1.00  0.00     0.159 HD
ATOM      9  H42 UNL     1     -12.153  11.968  43.388  1.00  0.00     0.159 HD
HETATM   10  N5  UNL     1     -12.258  10.731  40.387  1.00  0.00    -0.334 N
ATOM     11  H5  UNL     1     -12.730  11.449  39.837  1.00  0.00     0.164 HD
ENDROOT
BRANCH   1  12
HETATM   12  N2  UNL     1     -10.166   9.647  39.913  1.00  0.00    -0.052 N
ATOM     13  H22 UNL     1      -9.816   9.036  40.652  1.00  0.00     0.279 HD
ATOM     14  H21 UNL     1      -9.864  10.540  40.303  1.00  0.00     0.279 HD
BRANCH  12  15
HETATM   15  C4  UNL     1      -9.548   9.375  38.654  1.00  0.00     0.253 C
BRANCH  15  16
HETATM   16  C3  UNL     1     -10.458   9.738  37.461  1.00  0.00     0.141 C
BRANCH  16  17
HETATM   17  N1  UNL     1      -9.892  10.828  36.805  1.00  0.00    -0.420 N
ATOM     18  H1  UNL     1     -10.075  11.765  37.164  1.00  0.00     0.153 HD
BRANCH  17  19
HETATM   19  C2  UNL     1      -9.087  10.689  35.682  1.00  0.00     0.109 C
HETATM   20  C1  UNL     1      -8.902  12.063  35.013  1.00  0.00     0.026 C
ENDBRANCH  17  19
ENDBRANCH  16  17
ENDBRANCH  15  16
ENDBRANCH  12  15
ENDBRANCH   1  12
TORSDOF 5
ENDMDL