MODEL 2
REMARK VINA RESULT: -4.965521648      2.401      5.297
REMARK  7 active torsions:
REMARK  status: ('A' for Active; 'I' for Inactive)
REMARK    1  A    between atoms: N1_2  and  C2_4
REMARK    2  A    between atoms: C2_4  and  C3_5
REMARK    3  A    between atoms: C3_5  and  O1_6
REMARK    4  A    between atoms: C3_5  and  C4_8
REMARK    5  A    between atoms: C4_8  and  N2_9
REMARK    6  A    between atoms: C4_8  and  C5_13
REMARK    7  A    between atoms: C5_13  and  C7_15
ROOT
HETATM    1  C4  UNL     1     -10.817   9.104  38.533  1.00  0.00     0.245 C
ENDROOT
BRANCH   1   2
HETATM    2  C3  UNL     1     -10.797   9.598  37.125  1.00  0.00     0.089 C
BRANCH   2   3
HETATM    3  C2  UNL     1      -9.680  10.587  36.893  1.00  0.00     0.117 C
BRANCH   3   4
HETATM    4  N1  UNL     1      -9.137  10.666  35.599  1.00  0.00    -0.401 N
HETATM    5  C1  UNL     1      -8.886  11.975  35.066  1.00  0.00     0.145 C
ATOM      6  H1  UNL     1      -8.929   9.826  35.059  1.00  0.00     0.158 HD
ENDBRANCH   3   4
ENDBRANCH   2   3
BRANCH   2   7
HETATM    7  O1  UNL     1     -11.027   8.697  36.143  1.00  0.00    -0.361 OA
ATOM      8  H1  UNL     1     -11.483   7.901  36.391  1.00  0.00     0.217 HD
ENDBRANCH   2   7
ENDBRANCH   1   2
BRANCH   1   9
HETATM    9  N2  UNL     1      -9.479   9.244  39.129  1.00  0.00    -0.069 N
ATOM     10  H23 UNL     1      -9.096   8.347  39.428  1.00  0.00     0.275 HD
ATOM     11  H22 UNL     1      -8.772   9.482  38.433  1.00  0.00     0.275 HD
ATOM     12  H21 UNL     1      -9.509   9.921  39.892  1.00  0.00     0.275 HD
ENDBRANCH   1   9
BRANCH   1  13
HETATM   13  C5  UNL     1     -11.812   9.701  39.456  1.00  0.00     0.026 C
HETATM   14  C6  UNL     1     -12.293  11.062  39.014  1.00  0.00     0.013 C
BRANCH  13  15
HETATM   15  C7  UNL     1     -11.284   9.760  40.887  1.00  0.00     0.043 C
HETATM   16  C8  UNL     1     -11.924  10.812  41.742  1.00  0.00     0.239 C
HETATM   17  N3  UNL     1     -12.879   9.809  42.236  1.00  0.00    -0.074 N
HETATM   18  C9  UNL     1     -11.940   8.792  41.840  1.00  0.00     0.239 C
ATOM     19  H32 UNL     1     -13.233   9.851  43.192  1.00  0.00     0.277 HD
ATOM     20  H31 UNL     1     -13.842   9.793  41.898  1.00  0.00     0.277 HD
ENDBRANCH  13  15
ENDBRANCH   1  13
TORSDOF 7
ENDMDL