MODEL 2
REMARK VINA RESULT: -6.841914556      2.301      3.394
REMARK  7 active torsions:
REMARK  status: ('A' for Active; 'I' for Inactive)
REMARK    1  A    between atoms: N1_1  and  S1_4
REMARK    2  A    between atoms: S1_4  and  N2_6
REMARK    3  A    between atoms: S1_4  and  N8_21
REMARK       I    between atoms: N2_6  and  C1_8
REMARK       I    between atoms: C1_8  and  N3_10
REMARK    4  A    between atoms: N3_10  and  C2_12
REMARK       I    between atoms: N8_21  and  C3_23
REMARK    5  A    between atoms: C3_23  and  C4_25
REMARK    6  A    between atoms: C4_25  and  O4_26
REMARK    7  A    between atoms: C4_25  and  C5_28
ROOT
HETATM    1  S1  UNL     1     -47.520  70.756 -13.882  1.00  0.00     0.202 S
HETATM    2  O1  UNL     1     -47.030  69.924 -12.719  1.00  0.00    -0.206 OA
ENDROOT
BRANCH   1   3
HETATM    3  N1  UNL     1     -48.206  69.844 -14.921  1.00  0.00    -0.328 N
ATOM      4  H12 UNL     1     -47.735  69.438 -15.730  1.00  0.00     0.168 HD
ATOM      5  H11 UNL     1     -49.187  69.715 -14.672  1.00  0.00     0.168 HD
ENDBRANCH   1   3
BRANCH   1   6
HETATM    6  N2  UNL     1     -48.614  71.924 -13.242  1.00  0.00    -0.236 N
HETATM    7  C1  UNL     1     -49.212  72.864 -14.111  1.00  0.00     0.348 C
HETATM    8  O2  UNL     1     -48.923  72.818 -15.348  1.00  0.00    -0.245 OA
HETATM    9  N3  UNL     1     -50.122  73.862 -13.677  1.00  0.00    -0.138 N
ATOM     10  H3  UNL     1     -50.998  74.024 -14.174  1.00  0.00     0.189 HD
ATOM     11  H2  UNL     1     -48.828  71.937 -12.244  1.00  0.00     0.183 HD
BRANCH   9  12
HETATM   12  C2  UNL     1     -49.810  74.559 -12.635  1.00  0.00     0.717 A
HETATM   13  N4  UNL     1     -49.820  74.165 -11.353  1.00  0.00    -0.115 N
HETATM   14  N5  UNL     1     -49.435  75.188 -10.633  1.00  0.00    -0.213 N
ATOM     15  H4  UNL     1     -50.080  73.243 -11.004  1.00  0.00     0.207 HD
HETATM   16  N6  UNL     1     -49.180  76.216 -11.397  1.00  0.00    -0.213 N
ATOM     17  H5  UNL     1     -49.346  75.183  -9.617  1.00  0.00     0.210 HD
HETATM   18  N7  UNL     1     -49.409  75.842 -12.644  1.00  0.00    -0.115 N
ATOM     19  H6  UNL     1     -48.865  77.135 -11.089  1.00  0.00     0.210 HD
ATOM     20  H7  UNL     1     -49.298  76.428 -13.472  1.00  0.00     0.207 HD
ENDBRANCH   9  12
ENDBRANCH   1   6
BRANCH   1  21
HETATM   21  N8  UNL     1     -46.158  71.590 -14.586  1.00  0.00    -0.252 N
HETATM   22  C3  UNL     1     -45.922  71.592 -15.973  1.00  0.00     0.268 C
HETATM   23  O3  UNL     1     -46.699  70.984 -16.735  1.00  0.00    -0.269 OA
ATOM     24  H8  UNL     1     -45.515  72.091 -13.974  1.00  0.00     0.181 HD
BRANCH  22  25
HETATM   25  C4  UNL     1     -44.762  72.305 -16.536  1.00  0.00     0.299 C
BRANCH  25  26
HETATM   26  O4  UNL     1     -44.036  71.418 -17.331  1.00  0.00    -0.377 OA
ATOM     27  H4  UNL     1     -43.179  71.290 -16.940  1.00  0.00     0.211 HD
ENDBRANCH  25  26
BRANCH  25  28
HETATM   28  C5  UNL     1     -43.899  72.891 -15.488  1.00  0.00     0.269 C
HETATM   29  N9  UNL     1     -44.398  73.896 -14.621  1.00  0.00    -0.059 NA
HETATM   30  O5  UNL     1     -42.722  72.485 -15.379  1.00  0.00    -0.273 OA
ENDBRANCH  25  28
ENDBRANCH  22  25
ENDBRANCH   1  21
TORSDOF 7
ENDMDL