MODEL 3
REMARK VINA RESULT: -7.122293553      2.651      4.407
REMARK  5 active torsions:
REMARK  status: ('A' for Active; 'I' for Inactive)
REMARK    1  A    between atoms: N1_1  and  N2_4
REMARK       I    between atoms: N2_4  and  C1_6
REMARK    2  A    between atoms: C1_6  and  C2_8
REMARK    3  A    between atoms: C2_8  and  N3_9
REMARK       I    between atoms: N3_9  and  C3_11
REMARK    4  A    between atoms: C3_11  and  C4_13
REMARK    5  A    between atoms: C4_13  and  N4_14
ROOT
HETATM    1  N4  UNL     1     -49.400  74.320 -15.325  1.00  0.00    -0.273 N
HETATM    2  C5  UNL     1     -48.721  73.444 -14.563  1.00  0.00     0.160 A
HETATM    3  C6  UNL     1     -47.749  72.850 -15.344  1.00  0.00     0.151 A
HETATM    4  N5  UNL     1     -47.855  73.381 -16.581  1.00  0.00    -0.300 N
ATOM      5  H5  UNL     1     -47.276  73.148 -17.388  1.00  0.00     0.171 HD
HETATM    6  C7  UNL     1     -48.860  74.271 -16.556  1.00  0.00     0.329 A
HETATM    7  O3  UNL     1     -49.208  74.945 -17.583  1.00  0.00    -0.246 OA
HETATM    8  C8  UNL     1     -46.775  71.836 -14.942  1.00  0.00     0.280 C
HETATM    9  O4  UNL     1     -45.766  71.741 -15.688  1.00  0.00    -0.265 OA
HETATM   10  N6  UNL     1     -46.841  70.955 -13.815  1.00  0.00    -0.272 N
ATOM     11  H6  UNL     1     -46.183  70.176 -13.810  1.00  0.00     0.173 HD
HETATM   12  C9  UNL     1     -47.721  71.046 -12.701  1.00  0.00     0.341 C
HETATM   13  O5  UNL     1     -47.766  70.016 -11.980  1.00  0.00    -0.245 OA
HETATM   14  N7  UNL     1     -48.527  72.157 -12.342  1.00  0.00    -0.250 N
ATOM     15  H7  UNL     1     -48.807  72.209 -11.363  1.00  0.00     0.192 HD
HETATM   16  N8  UNL     1     -48.983  73.188 -13.169  1.00  0.00    -0.279 N
ATOM     17  H8  UNL     1     -49.597  73.864 -12.716  1.00  0.00     0.189 HD
ENDROOT
BRANCH   1  18
HETATM   18  C4  UNL     1     -50.485  75.132 -14.871  1.00  0.00     0.238 C
BRANCH  18  19
HETATM   19  C3  UNL     1     -50.070  76.442 -14.346  1.00  0.00     0.236 C
HETATM   20  N3  UNL     1     -50.232  76.822 -12.991  1.00  0.00    -0.351 N
ATOM     21  H3  UNL     1     -50.656  76.162 -12.340  1.00  0.00     0.163 HD
HETATM   22  O2  UNL     1     -49.547  77.262 -15.138  1.00  0.00    -0.272 OA
BRANCH  20  23
HETATM   23  C2  UNL     1     -49.818  78.108 -12.506  1.00  0.00     0.227 C
BRANCH  23  24
HETATM   24  C1  UNL     1     -50.096  78.284 -11.062  1.00  0.00     0.253 C
HETATM   25  N2  UNL     1     -50.580  77.178 -10.312  1.00  0.00    -0.275 N
ATOM     26  H2  UNL     1     -50.726  76.285 -10.783  1.00  0.00     0.189 HD
HETATM   27  O1  UNL     1     -49.920  79.377 -10.466  1.00  0.00    -0.270 OA
BRANCH  25  28
HETATM   28  N1  UNL     1     -50.861  77.280  -8.945  1.00  0.00    -0.343 N
ATOM     29  H12 UNL     1     -51.534  77.985  -8.644  1.00  0.00     0.176 HD
ATOM     30  H11 UNL     1     -50.414  76.673  -8.257  1.00  0.00     0.176 HD
ENDBRANCH  25  28
ENDBRANCH  23  24
ENDBRANCH  20  23
ENDBRANCH  18  19
ENDBRANCH   1  18
TORSDOF 5
ENDMDL