MODEL 4
REMARK VINA RESULT: -7.576039780      1.306      2.014
REMARK  9 active torsions:
REMARK  status: ('A' for Active; 'I' for Inactive)
REMARK    1  A    between atoms: C1_4  and  O1_5
REMARK    2  A    between atoms: C1_4  and  N2_7
REMARK    3  A    between atoms: N2_7  and  C2_9
REMARK    4  A    between atoms: C2_9  and  O2_10
REMARK    5  A    between atoms: C2_9  and  C3_12
REMARK    6  A    between atoms: C3_12  and  N3_13
REMARK    7  A    between atoms: C3_12  and  C9_29
REMARK    8  A    between atoms: N3_13  and  C4_15
REMARK       I    between atoms: C9_29  and  N8_31
REMARK    9  A    between atoms: N8_31  and  N9_33
ROOT
HETATM    1  C3  UNL     1     -48.014  71.656 -13.858  1.00  0.00     0.241 C
ENDROOT
BRANCH   1   2
HETATM    2  C2  UNL     1     -48.969  72.745 -13.403  1.00  0.00     0.253 C
BRANCH   2   3
HETATM    3  N2  UNL     1     -49.821  73.182 -14.501  1.00  0.00    -0.328 N
ATOM      4  H2  UNL     1     -50.811  73.361 -14.327  1.00  0.00     0.165 HD
BRANCH   3   5
HETATM    5  C1  UNL     1     -49.298  73.362 -15.809  1.00  0.00     0.212 C
HETATM    6  N1  UNL     1     -49.890  72.814 -16.809  1.00  0.00    -0.366 N
ATOM      7  H12 UNL     1     -49.514  72.943 -17.748  1.00  0.00     0.159 HD
ATOM      8  H11 UNL     1     -50.731  72.254 -16.669  1.00  0.00     0.159 HD
BRANCH   5   9
HETATM    9  O1  UNL     1     -48.159  74.121 -15.998  1.00  0.00    -0.333 OA
ATOM     10  H1  UNL     1     -47.608  74.356 -15.261  1.00  0.00     0.220 HD
ENDBRANCH   5   9
ENDBRANCH   3   5
ENDBRANCH   2   3
BRANCH   2  11
HETATM   11  O2  UNL     1     -49.806  72.295 -12.387  1.00  0.00    -0.374 OA
ATOM     12  H2  UNL     1     -49.266  71.818 -11.768  1.00  0.00     0.212 HD
ENDBRANCH   2  11
ENDBRANCH   1   2
BRANCH   1  13
HETATM   13  N3  UNL     1     -46.666  72.094 -13.780  1.00  0.00    -0.208 N
ATOM     14  H3  UNL     1     -46.343  72.413 -12.867  1.00  0.00     0.178 HD
BRANCH  13  15
HETATM   15  C4  UNL     1     -45.810  72.131 -14.736  1.00  0.00     0.683 A
HETATM   16  N4  UNL     1     -44.608  72.701 -14.554  1.00  0.00    -0.154 N
HETATM   17  C5  UNL     1     -43.751  72.711 -15.590  1.00  0.00     0.290 A
ATOM     18  H4  UNL     1     -44.354  73.114 -13.656  1.00  0.00     0.187 HD
HETATM   19  O3  UNL     1     -42.628  73.246 -15.411  1.00  0.00    -0.265 OA
HETATM   20  C6  UNL     1     -44.095  72.153 -16.805  1.00  0.00     0.147 A
HETATM   21  N5  UNL     1     -43.459  72.018 -17.994  1.00  0.00    -0.345 N
HETATM   22  C8  UNL     1     -45.332  71.565 -16.996  1.00  0.00     0.154 A
HETATM   23  C7  UNL     1     -44.272  71.380 -18.858  1.00  0.00     0.182 A
ATOM     24  H5  UNL     1     -42.516  72.346 -18.202  1.00  0.00     0.167 HD
HETATM   25  N6  UNL     1     -45.441  71.093 -18.253  1.00  0.00    -0.336 N
ATOM     26  H6  UNL     1     -46.244  70.616 -18.663  1.00  0.00     0.168 HD
HETATM   27  N7  UNL     1     -46.159  71.577 -15.935  1.00  0.00    -0.174 N
ATOM     28  H7  UNL     1     -47.083  71.156 -16.030  1.00  0.00     0.186 HD
ENDBRANCH  13  15
ENDBRANCH   1  13
BRANCH   1  29
HETATM   29  C9  UNL     1     -48.263  70.390 -13.130  1.00  0.00     0.263 C
HETATM   30  O4  UNL     1     -47.638  70.121 -12.055  1.00  0.00    -0.269 OA
HETATM   31  N8  UNL     1     -49.203  69.433 -13.604  1.00  0.00    -0.275 N
ATOM     32  H8  UNL     1     -49.719  69.621 -14.464  1.00  0.00     0.189 HD
BRANCH  31  33
HETATM   33  N9  UNL     1     -49.433  68.238 -12.909  1.00  0.00    -0.343 N
ATOM     34  H92 UNL     1     -48.634  67.752 -12.501  1.00  0.00     0.176 HD
ATOM     35  H91 UNL     1     -50.374  67.859 -12.810  1.00  0.00     0.176 HD
ENDBRANCH  31  33
ENDBRANCH   1  29
TORSDOF 9
ENDMDL