MODEL 2
REMARK VINA RESULT: -7.032950161      3.065      4.021
REMARK  6 active torsions:
REMARK  status: ('A' for Active; 'I' for Inactive)
REMARK       I    between atoms: C2_2  and  N1_4
REMARK    1  A    between atoms: N1_4  and  C3_6
REMARK    2  A    between atoms: C3_6  and  C4_7
REMARK    3  A    between atoms: C3_6  and  C8_23
REMARK    4  A    between atoms: C4_7  and  N2_8
REMARK    5  A    between atoms: C7_17  and  N5_18
REMARK    6  A    between atoms: N5_18  and  N6_20
REMARK       I    between atoms: C8_23  and  N7_25
ROOT
HETATM    1  N2  UNL     1     -48.627  72.359 -14.758  1.00  0.00    -0.265 N
HETATM    2  N3  UNL     1     -49.165  72.118 -15.924  1.00  0.00    -0.247 N
ATOM      3  H3  UNL     1     -49.503  72.889 -16.500  1.00  0.00     0.192 HD
HETATM    4  C5  UNL     1     -49.275  70.843 -16.365  1.00  0.00     0.342 A
HETATM    5  O2  UNL     1     -49.799  70.667 -17.490  1.00  0.00    -0.245 OA
HETATM    6  N4  UNL     1     -48.829  69.845 -15.600  1.00  0.00    -0.271 N
ATOM      7  H4  UNL     1     -48.916  68.888 -15.941  1.00  0.00     0.174 HD
HETATM    8  C6  UNL     1     -48.264  70.056 -14.381  1.00  0.00     0.296 A
HETATM    9  O3  UNL     1     -47.876  69.038 -13.741  1.00  0.00    -0.264 OA
HETATM   10  C7  UNL     1     -48.155  71.347 -13.937  1.00  0.00     0.206 A
ENDROOT
BRANCH   1  11
HETATM   11  C4  UNL     1     -48.472  73.692 -14.297  1.00  0.00     0.186 C
BRANCH  11  12
HETATM   12  C3  UNL     1     -49.674  74.552 -14.178  1.00  0.00     0.197 C
BRANCH  12  13
HETATM   13  N1  UNL     1     -49.588  75.187 -12.827  1.00  0.00    -0.346 N
HETATM   14  C2  UNL     1     -49.920  74.456 -11.675  1.00  0.00     0.214 C
HETATM   15  C1  UNL     1     -49.836  75.108 -10.351  1.00  0.00     0.117 C
HETATM   16  O1  UNL     1     -50.283  73.266 -11.780  1.00  0.00    -0.274 OA
ATOM     17  H1  UNL     1     -49.287  76.158 -12.742  1.00  0.00     0.163 HD
ENDBRANCH  12  13
BRANCH  12  18
HETATM   18  C8  UNL     1     -49.822  75.664 -15.121  1.00  0.00     0.248 C
HETATM   19  O4  UNL     1     -49.738  75.477 -16.350  1.00  0.00    -0.271 OA
HETATM   20  N7  UNL     1     -50.057  76.971 -14.627  1.00  0.00    -0.302 N
HETATM   21  C9  UNL     1     -49.694  78.063 -15.152  1.00  0.00     0.203 C
ATOM     22  H7  UNL     1     -50.575  77.039 -13.751  1.00  0.00     0.171 HD
HETATM   23  N8  UNL     1     -50.015  79.298 -14.518  1.00  0.00    -0.066 NA
HETATM   24  N9  UNL     1     -48.966  78.071 -16.373  1.00  0.00    -0.066 NA
ENDBRANCH  12  18
ENDBRANCH  11  12
ENDBRANCH   1  11
BRANCH  10  25
HETATM   25  N5  UNL     1     -47.686  71.633 -12.812  1.00  0.00    -0.286 N
ATOM     26  H5  UNL     1     -47.492  72.627 -12.687  1.00  0.00     0.188 HD
BRANCH  25  27
HETATM   27  N6  UNL     1     -47.389  70.886 -11.742  1.00  0.00    -0.343 N
ATOM     28  H62 UNL     1     -47.614  71.354 -10.865  1.00  0.00     0.176 HD
ATOM     29  H61 UNL     1     -46.987  69.954 -11.644  1.00  0.00     0.176 HD
ENDBRANCH  25  27
ENDBRANCH  10  25
TORSDOF 6
ENDMDL