MODEL 3
REMARK VINA RESULT: -6.818173909      2.432      4.183
REMARK  9 active torsions:
REMARK  status: ('A' for Active; 'I' for Inactive)
REMARK    1  A    between atoms: C2_2  and  N1_3
REMARK    2  A    between atoms: C2_2  and  C6_16
REMARK    3  A    between atoms: N1_3  and  C3_5
REMARK    4  A    between atoms: C6_16  and  O4_18
REMARK    5  A    between atoms: O4_18  and  C7_19
REMARK    6  A    between atoms: C7_19  and  N5_20
REMARK    7  A    between atoms: C7_19  and  C8_24
REMARK    8  A    between atoms: C8_24  and  N6_26
REMARK    9  A    between atoms: C8_24  and  C10_30
ROOT
HETATM    1  C6  UNL     1     -48.534  73.104 -15.746  1.00  0.00     0.283 C
HETATM    2  O3  UNL     1     -47.633  73.722 -16.352  1.00  0.00    -0.263 OA
ENDROOT
BRANCH   1   3
HETATM    3  C2  UNL     1     -49.908  73.633 -15.661  1.00  0.00     0.179 C
HETATM    4  C1  UNL     1     -50.415  73.805 -17.081  1.00  0.00     0.043 C
BRANCH   3   5
HETATM    5  N1  UNL     1     -49.900  74.866 -14.934  1.00  0.00    -0.357 N
ATOM      6  H1  UNL     1     -49.905  75.733 -15.471  1.00  0.00     0.162 HD
BRANCH   5   7
HETATM    7  C3  UNL     1     -49.886  74.956 -13.646  1.00  0.00     0.186 A
HETATM    8  N2  UNL     1     -50.206  73.931 -12.842  1.00  0.00    -0.277 N
HETATM    9  N3  UNL     1     -50.180  74.064 -11.537  1.00  0.00    -0.250 N
ATOM     10  H2  UNL     1     -50.473  73.035 -13.250  1.00  0.00     0.189 HD
HETATM   11  C4  UNL     1     -49.825  75.253 -11.016  1.00  0.00     0.341 A
ATOM     12  H3  UNL     1     -50.423  73.282 -10.930  1.00  0.00     0.192 HD
HETATM   13  O1  UNL     1     -49.801  75.378  -9.757  1.00  0.00    -0.245 OA
HETATM   14  N4  UNL     1     -49.496  76.311 -11.761  1.00  0.00    -0.271 N
HETATM   15  C5  UNL     1     -49.527  76.164 -13.094  1.00  0.00     0.294 A
ATOM     16  H4  UNL     1     -49.232  77.199 -11.333  1.00  0.00     0.174 HD
HETATM   17  O2  UNL     1     -49.227  77.128 -13.865  1.00  0.00    -0.264 OA
ENDBRANCH   5   7
ENDBRANCH   3   5
ENDBRANCH   1   3
BRANCH   1  18
HETATM   18  O4  UNL     1     -48.227  71.898 -15.147  1.00  0.00    -0.283 OA
BRANCH  18  19
HETATM   19  C7  UNL     1     -47.648  71.829 -13.836  1.00  0.00     0.372 C
BRANCH  19  20
HETATM   20  N5  UNL     1     -46.264  72.152 -13.975  1.00  0.00    -0.049 N
ATOM     21  H53 UNL     1     -45.744  72.078 -13.101  1.00  0.00     0.277 HD
ATOM     22  H52 UNL     1     -45.739  71.449 -14.496  1.00  0.00     0.277 HD
ATOM     23  H51 UNL     1     -46.217  73.080 -14.394  1.00  0.00     0.277 HD
ENDBRANCH  19  20
BRANCH  19  24
HETATM   24  C8  UNL     1     -47.883  70.418 -13.352  1.00  0.00     0.248 C
HETATM   25  C9  UNL     1     -47.611  69.436 -14.472  1.00  0.00     0.061 C
BRANCH  24  26
HETATM   26  N6  UNL     1     -46.929  70.148 -12.293  1.00  0.00    -0.058 N
ATOM     27  H63 UNL     1     -46.617  70.995 -11.816  1.00  0.00     0.276 HD
ATOM     28  H62 UNL     1     -47.351  69.687 -11.488  1.00  0.00     0.276 HD
ATOM     29  H61 UNL     1     -46.159  69.615 -12.697  1.00  0.00     0.276 HD
ENDBRANCH  24  26
BRANCH  24  30
HETATM   30  C10 UNL     1     -49.252  70.204 -12.856  1.00  0.00     0.271 C
HETATM   31  N7  UNL     1     -49.791  68.913 -12.837  1.00  0.00    -0.060 NA
HETATM   32  O5  UNL     1     -49.940  71.164 -12.454  1.00  0.00    -0.274 OA
ENDBRANCH  24  30
ENDBRANCH  19  24
ENDBRANCH  18  19
ENDBRANCH   1  18
TORSDOF 9
ENDMDL