MODEL 5
REMARK VINA RESULT: -6.813766212      2.138      7.131
REMARK  6 active torsions:
REMARK  status: ('A' for Active; 'I' for Inactive)
REMARK    1  A    between atoms: N1_2  and  N2_3
REMARK    2  A    between atoms: C2_5  and  O1_6
REMARK    3  A    between atoms: C2_5  and  C3_8
REMARK    4  A    between atoms: C3_8  and  N3_9
REMARK    5  A    between atoms: C3_8  and  C10_27
REMARK       I    between atoms: N3_9  and  C4_11
REMARK    6  A    between atoms: C4_11  and  C5_13
ROOT
HETATM    1  N3  UNL     1     -50.463  74.672 -13.415  1.00  0.00    -0.335 N
ATOM      2  H3  UNL     1     -51.084  74.101 -12.841  1.00  0.00     0.164 HD
HETATM    3  C4  UNL     1     -49.506  74.120 -14.355  1.00  0.00     0.269 C
HETATM    4  O2  UNL     1     -48.827  74.901 -15.057  1.00  0.00    -0.266 OA
ENDROOT
BRANCH   3   5
HETATM    5  C5  UNL     1     -49.348  72.690 -14.468  1.00  0.00     0.108 C
HETATM    6  C6  UNL     1     -48.957  72.002 -13.325  1.00  0.00     0.094 C
HETATM    7  C7  UNL     1     -48.279  70.773 -13.320  1.00  0.00     0.217 C
HETATM    8  O3  UNL     1     -47.824  70.524 -12.171  1.00  0.00    -0.284 OA
HETATM    9  C8  UNL     1     -48.052  69.854 -14.308  1.00  0.00     0.154 C
HETATM   10  N4  UNL     1     -47.546  68.706 -14.033  1.00  0.00    -0.382 N
HETATM   11  N5  UNL     1     -48.370  70.032 -15.632  1.00  0.00    -0.292 N
ATOM     12  H42 UNL     1     -47.310  68.574 -13.050  1.00  0.00     0.157 HD
ATOM     13  H41 UNL     1     -47.376  68.020 -14.769  1.00  0.00     0.157 HD
HETATM   14  C9  UNL     1     -49.071  71.023 -16.210  1.00  0.00     0.326 C
ATOM     15  H5  UNL     1     -48.027  69.310 -16.266  1.00  0.00     0.172 HD
HETATM   16  O4  UNL     1     -49.234  70.934 -17.476  1.00  0.00    -0.247 OA
HETATM   17  N6  UNL     1     -49.629  72.123 -15.687  1.00  0.00    -0.304 N
ATOM     18  H6  UNL     1     -50.339  72.588 -16.253  1.00  0.00     0.171 HD
ENDBRANCH   3   5
BRANCH   1  19
HETATM   19  C3  UNL     1     -50.440  76.111 -13.378  1.00  0.00     0.262 C
BRANCH  19  20
HETATM   20  C2  UNL     1     -50.063  76.697 -12.120  1.00  0.00     0.161 C
HETATM   21  N2  UNL     1     -50.847  77.387 -11.257  1.00  0.00    -0.286 N
ATOM     22  H2  UNL     1     -51.826  77.548 -11.494  1.00  0.00     0.184 HD
BRANCH  21  23
HETATM   23  N1  UNL     1     -50.343  77.889 -10.032  1.00  0.00    -0.144 NA
HETATM   24  C1  UNL     1     -50.992  77.176  -8.940  1.00  0.00     0.159 C
ENDBRANCH  21  23
BRANCH  20  25
HETATM   25  O1  UNL     1     -48.788  76.498 -11.752  1.00  0.00    -0.347 OA
ATOM     26  H1  UNL     1     -48.619  76.413 -10.821  1.00  0.00     0.219 HD
ENDBRANCH  20  25
ENDBRANCH  19  20
BRANCH  19  27
HETATM   27  C10 UNL     1     -51.914  76.548 -13.630  1.00  0.00     0.205 C
HETATM   28  O5  UNL     1     -52.755  75.639 -13.529  1.00  0.00    -0.646 OA
HETATM   29  O6  UNL     1     -52.211  77.859 -13.946  1.00  0.00    -0.646 OA
ENDBRANCH  19  27
ENDBRANCH   1  19
TORSDOF 6
ENDMDL