MODEL 4
REMARK VINA RESULT: -7.309221728      0.819      1.072
REMARK  8 active torsions:
REMARK  status: ('A' for Active; 'I' for Inactive)
REMARK    1  A    between atoms: C1_2  and  C2_3
REMARK    2  A    between atoms: C1_2  and  C3_8
REMARK    3  A    between atoms: C2_3  and  O2_4
REMARK    4  A    between atoms: C2_3  and  O3_6
REMARK    5  A    between atoms: C3_8  and  N1_9
REMARK    6  A    between atoms: C3_8  and  C6_20
REMARK    7  A    between atoms: N1_9  and  C4_11
REMARK    8  A    between atoms: N7_29  and  O7_30
ROOT
HETATM    1  C3  UNL     1     -47.215  71.997 -14.509  1.00  0.00     0.244 C
ENDROOT
BRANCH   1   2
HETATM    2  C1  UNL     1     -47.598  70.622 -14.150  1.00  0.00     0.211 C
HETATM    3  O1  UNL     1     -48.038  69.891 -15.018  1.00  0.00    -0.290 OA
BRANCH   2   4
HETATM    4  C2  UNL     1     -47.479  70.078 -12.789  1.00  0.00     0.328 C
BRANCH   4   5
HETATM    5  O2  UNL     1     -48.523  69.277 -12.377  1.00  0.00    -0.365 OA
ATOM      6  H2  UNL     1     -48.275  68.505 -11.882  1.00  0.00     0.213 HD
ENDBRANCH   4   5
BRANCH   4   7
HETATM    7  O3  UNL     1     -47.357  71.115 -11.850  1.00  0.00    -0.365 OA
ATOM      8  H3  UNL     1     -46.550  71.026 -11.357  1.00  0.00     0.213 HD
ENDBRANCH   4   7
ENDBRANCH   2   4
ENDBRANCH   1   2
BRANCH   1   9
HETATM    9  N1  UNL     1     -48.222  72.742 -15.195  1.00  0.00    -0.206 N
ATOM     10  H1  UNL     1     -48.295  72.624 -16.205  1.00  0.00     0.179 HD
BRANCH   9  11
HETATM   11  C4  UNL     1     -49.045  73.553 -14.624  1.00  0.00     0.697 A
HETATM   12  N2  UNL     1     -50.277  73.830 -15.090  1.00  0.00    -0.128 N
HETATM   13  N3  UNL     1     -50.880  74.697 -14.289  1.00  0.00    -0.237 N
ATOM     14  H2  UNL     1     -50.686  73.431 -15.935  1.00  0.00     0.205 HD
HETATM   15  C5  UNL     1     -50.043  75.005 -13.276  1.00  0.00     0.353 A
ATOM     16  H3  UNL     1     -51.821  75.070 -14.417  1.00  0.00     0.192 HD
HETATM   17  O4  UNL     1     -50.284  75.798 -12.329  1.00  0.00    -0.245 OA
HETATM   18  N4  UNL     1     -48.913  74.285 -13.504  1.00  0.00    -0.139 N
ATOM     19  H4  UNL     1     -48.084  74.299 -12.909  1.00  0.00     0.189 HD
ENDBRANCH   9  11
ENDBRANCH   1   9
BRANCH   1  20
HETATM   20  C6  UNL     1     -46.015  71.992 -15.405  1.00  0.00     0.150 A
HETATM   21  N5  UNL     1     -45.995  71.265 -16.536  1.00  0.00    -0.294 N
HETATM   22  C7  UNL     1     -44.889  71.292 -17.309  1.00  0.00     0.329 A
ATOM     23  H5  UNL     1     -46.803  70.702 -16.805  1.00  0.00     0.172 HD
HETATM   24  O5  UNL     1     -44.866  70.606 -18.377  1.00  0.00    -0.246 OA
HETATM   25  N6  UNL     1     -43.796  72.023 -16.993  1.00  0.00    -0.258 N
HETATM   26  C8  UNL     1     -43.854  72.738 -15.855  1.00  0.00     0.356 A
ATOM     27  H6  UNL     1     -42.969  72.033 -17.589  1.00  0.00     0.175 HD
HETATM   28  O6  UNL     1     -42.866  73.442 -15.504  1.00  0.00    -0.244 OA
HETATM   29  N7  UNL     1     -44.951  72.734 -15.052  1.00  0.00    -0.157 N
BRANCH  29  30
HETATM   30  O7  UNL     1     -45.004  73.466 -13.890  1.00  0.00    -0.277 OA
ATOM     31  H7  UNL     1     -44.590  73.120 -13.107  1.00  0.00     0.245 HD
ENDBRANCH  29  30
ENDBRANCH   1  20
TORSDOF 8
ENDMDL