MODEL 1
REMARK VINA RESULT: -7.278150976      0.000      0.000
REMARK  6 active torsions:
REMARK  status: ('A' for Active; 'I' for Inactive)
REMARK    1  A    between atoms: C3_3  and  N1_4
REMARK    2  A    between atoms: C3_3  and  C5_11
REMARK    3  A    between atoms: N1_4  and  N2_6
REMARK    4  A    between atoms: N7_18  and  C8_19
REMARK    5  A    between atoms: C8_19  and  C9_20
REMARK       I    between atoms: C9_20  and  N8_22
REMARK    6  A    between atoms: N8_22  and  N9_24
ROOT
HETATM    1  C1  UNL     1     -49.538  69.281 -12.758  1.00  0.00     0.014 C
HETATM    2  C2  UNL     1     -49.052  70.309 -13.156  1.00  0.00    -0.085 C
HETATM    3  C3  UNL     1     -48.442  71.522 -13.609  1.00  0.00     0.219 C
ENDROOT
BRANCH   3   4
HETATM    4  N1  UNL     1     -47.010  71.286 -13.883  1.00  0.00    -0.313 N
ATOM      5  H1  UNL     1     -46.639  70.345 -14.012  1.00  0.00     0.182 HD
BRANCH   4   6
HETATM    6  N2  UNL     1     -46.190  72.413 -13.956  1.00  0.00    -0.279 N
HETATM    7  C4  UNL     1     -45.463  72.689 -14.969  1.00  0.00     0.215 C
HETATM    8  N3  UNL     1     -45.461  71.838 -16.090  1.00  0.00    -0.065 NA
HETATM    9  N4  UNL     1     -44.660  73.845 -14.973  1.00  0.00    -0.065 NA
ATOM     10  H2  UNL     1     -46.170  73.049 -13.159  1.00  0.00     0.189 HD
ENDBRANCH   4   6
ENDBRANCH   3   4
BRANCH   3  11
HETATM   11  C5  UNL     1     -49.103  72.280 -14.640  1.00  0.00     0.087 A
HETATM   12  C6  UNL     1     -49.196  71.752 -15.921  1.00  0.00     0.135 A
HETATM   13  N5  UNL     1     -48.605  70.490 -16.168  1.00  0.00    -0.082 NA
HETATM   14  N6  UNL     1     -49.816  72.423 -16.907  1.00  0.00    -0.296 N
HETATM   15  C7  UNL     1     -50.369  73.633 -16.679  1.00  0.00     0.331 A
ATOM     16  H6  UNL     1     -49.870  72.012 -17.839  1.00  0.00     0.171 HD
HETATM   17  O1  UNL     1     -50.940  74.225 -17.634  1.00  0.00    -0.246 OA
HETATM   18  N7  UNL     1     -50.301  74.178 -15.453  1.00  0.00    -0.257 N
HETATM   19  C10 UNL     1     -49.669  73.498 -14.446  1.00  0.00     0.264 A
HETATM   20  O3  UNL     1     -49.643  74.061 -13.340  1.00  0.00    -0.267 OA
BRANCH  18  21
HETATM   21  C8  UNL     1     -50.896  75.467 -15.238  1.00  0.00     0.241 C
BRANCH  21  22
HETATM   22  C9  UNL     1     -52.256  75.391 -14.676  1.00  0.00     0.254 C
HETATM   23  O2  UNL     1     -52.481  75.841 -13.537  1.00  0.00    -0.270 OA
HETATM   24  N8  UNL     1     -53.293  74.808 -15.434  1.00  0.00    -0.275 N
ATOM     25  H8  UNL     1     -53.082  74.447 -16.364  1.00  0.00     0.189 HD
BRANCH  24  26
HETATM   26  N9  UNL     1     -54.606  74.709 -14.950  1.00  0.00    -0.343 N
ATOM     27  H92 UNL     1     -55.340  75.206 -15.455  1.00  0.00     0.176 HD
ATOM     28  H91 UNL     1     -54.839  74.163 -14.120  1.00  0.00     0.176 HD
ENDBRANCH  24  26
ENDBRANCH  21  22
ENDBRANCH  18  21
ENDBRANCH   3  11
TORSDOF 6
ENDMDL