MODEL 5
REMARK VINA RESULT: -7.257845290      1.077      1.168
REMARK  7 active torsions:
REMARK  status: ('A' for Active; 'I' for Inactive)
REMARK    1  A    between atoms: N1_1  and  C1_4
REMARK    2  A    between atoms: C4_12  and  N4_13
REMARK    3  A    between atoms: N4_13  and  N5_15
REMARK    4  A    between atoms: C5_17  and  C6_18
REMARK    5  A    between atoms: C6_18  and  O2_19
REMARK    6  A    between atoms: C6_18  and  C7_21
REMARK    7  A    between atoms: C7_21  and  C8_23
ROOT
HETATM    1  C1  UNL     1     -49.935  78.126 -13.001  1.00  0.00     0.679 A
HETATM    2  N2  UNL     1     -49.787  77.550 -14.208  1.00  0.00    -0.154 N
ATOM      3  H2  UNL     1     -49.766  78.145 -15.037  1.00  0.00     0.187 HD
HETATM    4  C2  UNL     1     -49.665  76.219 -14.361  1.00  0.00     0.289 A
HETATM    5  O1  UNL     1     -49.526  75.695 -15.510  1.00  0.00    -0.265 OA
HETATM    6  C3  UNL     1     -49.695  75.428 -13.232  1.00  0.00     0.150 A
HETATM    7  N3  UNL     1     -49.579  74.091 -13.323  1.00  0.00    -0.182 N
ATOM      8  H3  UNL     1     -49.468  73.667 -14.245  1.00  0.00     0.184 HD
HETATM    9  C4  UNL     1     -49.606  73.292 -12.235  1.00  0.00     0.700 A
HETATM   10  N7  UNL     1     -49.753  73.890 -11.049  1.00  0.00    -0.153 N
ATOM     11  H7  UNL     1     -49.774  73.297 -10.220  1.00  0.00     0.187 HD
HETATM   12  C9  UNL     1     -49.876  75.210 -10.871  1.00  0.00     0.289 A
HETATM   13  O5  UNL     1     -50.015  75.754  -9.738  1.00  0.00    -0.265 OA
HETATM   14  C10 UNL     1     -49.848  76.016 -11.990  1.00  0.00     0.150 A
HETATM   15  N8  UNL     1     -49.962  77.345 -11.914  1.00  0.00    -0.184 N
ATOM     16  H8  UNL     1     -50.074  77.779 -10.997  1.00  0.00     0.184 HD
ENDROOT
BRANCH   9  17
HETATM   17  N4  UNL     1     -49.490  72.009 -12.364  1.00  0.00    -0.132 N
ATOM     18  H4  UNL     1     -50.257  71.461 -12.756  1.00  0.00     0.205 HD
BRANCH  17  19
HETATM   19  N5  UNL     1     -48.318  71.382 -11.966  1.00  0.00    -0.299 N
HETATM   20  C5  UNL     1     -47.731  70.576 -12.777  1.00  0.00     0.120 C
ATOM     21  H5  UNL     1     -47.928  71.558 -11.041  1.00  0.00     0.186 HD
BRANCH  20  22
HETATM   22  C6  UNL     1     -48.300  70.320 -14.120  1.00  0.00     0.237 C
BRANCH  22  23
HETATM   23  O2  UNL     1     -48.025  69.061 -14.589  1.00  0.00    -0.382 OA
ATOM     24  H2  UNL     1     -48.721  68.439 -14.415  1.00  0.00     0.211 HD
ENDBRANCH  22  23
BRANCH  22  25
HETATM   25  C7  UNL     1     -47.851  71.370 -15.052  1.00  0.00     0.247 C
HETATM   26  O3  UNL     1     -47.209  72.344 -14.603  1.00  0.00    -0.284 OA
BRANCH  25  27
HETATM   27  C8  UNL     1     -48.156  71.256 -16.456  1.00  0.00     0.303 C
HETATM   28  N6  UNL     1     -49.397  70.688 -16.855  1.00  0.00    -0.054 NA
HETATM   29  O4  UNL     1     -47.348  71.647 -17.331  1.00  0.00    -0.268 OA
ENDBRANCH  25  27
ENDBRANCH  22  25
ENDBRANCH  20  22
ENDBRANCH  17  19
ENDBRANCH   9  17
BRANCH   1  30
HETATM   30  N1  UNL     1     -50.051  79.401 -12.849  1.00  0.00    -0.234 N
ATOM     31  H12 UNL     1     -50.501  79.943 -13.587  1.00  0.00     0.174 HD
ATOM     32  H11 UNL     1     -49.712  79.889 -12.019  1.00  0.00     0.174 HD
ENDBRANCH   1  30
TORSDOF 7
ENDMDL