MODEL 3
REMARK VINA RESULT: -6.657790420      1.667      2.172
REMARK  8 active torsions:
REMARK  status: ('A' for Active; 'I' for Inactive)
REMARK    1  A    between atoms: N1_1  and  C1_4
REMARK       I    between atoms: N4_10  and  C3_12
REMARK    2  A    between atoms: C3_12  and  C4_14
REMARK    3  A    between atoms: C4_14  and  C5_16
REMARK    4  A    between atoms: C5_16  and  N5_17
REMARK    5  A    between atoms: C5_16  and  C6_21
REMARK    6  A    between atoms: C7_24  and  N7_25
REMARK    7  A    between atoms: N7_25  and  C8_27
REMARK    8  A    between atoms: C8_27  and  C9_28
ROOT
HETATM    1  C1  UNL     1     -48.220  69.893 -13.539  1.00  0.00     0.692 A
HETATM    2  N2  UNL     1     -49.392  70.479 -13.235  1.00  0.00    -0.131 N
ATOM      3  H2  UNL     1     -50.183  69.909 -12.934  1.00  0.00     0.205 HD
HETATM    4  N3  UNL     1     -49.522  71.787 -13.326  1.00  0.00    -0.268 N
ATOM      5  H3  UNL     1     -50.413  72.225 -13.094  1.00  0.00     0.189 HD
HETATM    6  C2  UNL     1     -48.469  72.560 -13.727  1.00  0.00     0.168 A
HETATM    7  N4  UNL     1     -48.582  73.828 -13.819  1.00  0.00    -0.302 N
ATOM      8  H4  UNL     1     -47.802  74.413 -14.119  1.00  0.00     0.171 HD
HETATM    9  C3  UNL     1     -49.870  74.400 -13.477  1.00  0.00     0.295 C
HETATM   10  O1  UNL     1     -50.748  74.385 -14.387  1.00  0.00    -0.264 OA
HETATM   11  C7  UNL     1     -47.256  71.983 -14.046  1.00  0.00     0.163 A
HETATM   12  N8  UNL     1     -47.155  70.650 -13.944  1.00  0.00    -0.172 N
ATOM     13  H8  UNL     1     -46.272  70.193 -14.172  1.00  0.00     0.186 HD
ENDROOT
BRANCH  11  14
HETATM   14  N7  UNL     1     -46.289  72.737 -14.420  1.00  0.00    -0.363 N
ATOM     15  H7  UNL     1     -46.225  73.661 -13.992  1.00  0.00     0.161 HD
BRANCH  14  16
HETATM   16  C8  UNL     1     -45.294  72.394 -15.384  1.00  0.00     0.234 C
BRANCH  16  17
HETATM   17  C9  UNL     1     -44.031  73.105 -15.006  1.00  0.00     0.191 C
HETATM   18  O4  UNL     1     -42.909  72.766 -15.467  1.00  0.00    -0.647 OA
HETATM   19  O5  UNL     1     -44.167  74.162 -14.117  1.00  0.00    -0.647 OA
ENDBRANCH  16  17
ENDBRANCH  14  16
ENDBRANCH  11  14
BRANCH   9  20
HETATM   20  C4  UNL     1     -50.044  74.927 -12.167  1.00  0.00     0.256 C
HETATM   21  O2  UNL     1     -49.857  74.132 -11.172  1.00  0.00    -0.284 OA
BRANCH  20  22
HETATM   22  C5  UNL     1     -50.421  76.301 -11.808  1.00  0.00     0.350 C
BRANCH  22  23
HETATM   23  N5  UNL     1     -50.379  76.491 -10.394  1.00  0.00    -0.059 N
ATOM     24  H53 UNL     1     -51.081  77.163 -10.084  1.00  0.00     0.275 HD
ATOM     25  H52 UNL     1     -50.719  75.670  -9.893  1.00  0.00     0.275 HD
ATOM     26  H51 UNL     1     -49.443  76.758 -10.088  1.00  0.00     0.275 HD
ENDBRANCH  22  23
BRANCH  22  27
HETATM   27  C6  UNL     1     -49.576  77.309 -12.524  1.00  0.00     0.269 C
HETATM   28  N6  UNL     1     -49.151  78.481 -11.869  1.00  0.00    -0.060 NA
HETATM   29  O3  UNL     1     -49.273  77.065 -13.713  1.00  0.00    -0.274 OA
ENDBRANCH  22  27
ENDBRANCH  20  22
ENDBRANCH   9  20
BRANCH   1  30
HETATM   30  N1  UNL     1     -48.068  68.615 -13.460  1.00  0.00    -0.233 N
ATOM     31  H12 UNL     1     -48.159  68.173 -12.545  1.00  0.00     0.174 HD
ATOM     32  H11 UNL     1     -47.860  68.053 -14.285  1.00  0.00     0.174 HD
ENDBRANCH   1  30
TORSDOF 8
ENDMDL