MODEL 2
REMARK VINA RESULT: -6.601525814      0.254      1.669
REMARK  7 active torsions:
REMARK  status: ('A' for Active; 'I' for Inactive)
REMARK    1  A    between atoms: N1_1  and  C1_5
REMARK    2  A    between atoms: C4_14  and  N4_15
REMARK    3  A    between atoms: C4_14  and  C5_19
REMARK    4  A    between atoms: C5_19  and  O3_20
REMARK    5  A    between atoms: C5_19  and  C6_22
REMARK    6  A    between atoms: C6_22  and  C7_23
REMARK    7  A    between atoms: C7_23  and  N5_24
ROOT
HETATM    1  C1  UNL     1     -47.606  70.158 -14.990  1.00  0.00     0.334 C
HETATM    2  N2  UNL     1     -47.557  69.018 -14.116  1.00  0.00    -0.312 N
ATOM      3  H2  UNL     1     -46.778  68.363 -14.175  1.00  0.00     0.166 HD
HETATM    4  C2  UNL     1     -48.589  68.808 -13.174  1.00  0.00     0.324 C
HETATM    5  O1  UNL     1     -48.944  67.661 -12.796  1.00  0.00    -0.247 OA
HETATM    6  N3  UNL     1     -49.218  70.012 -12.666  1.00  0.00    -0.277 N
ATOM      7  H3  UNL     1     -49.972  69.944 -11.982  1.00  0.00     0.173 HD
HETATM    8  C3  UNL     1     -48.785  71.285 -13.121  1.00  0.00     0.268 C
HETATM    9  O2  UNL     1     -49.291  72.308 -12.627  1.00  0.00    -0.270 OA
HETATM   10  C4  UNL     1     -47.748  71.413 -14.167  1.00  0.00     0.273 C
ENDROOT
BRANCH  10  11
HETATM   11  N4  UNL     1     -46.474  71.542 -13.444  1.00  0.00    -0.055 N
ATOM     12  H43 UNL     1     -46.094  70.655 -13.117  1.00  0.00     0.276 HD
ATOM     13  H42 UNL     1     -45.686  71.796 -14.040  1.00  0.00     0.276 HD
ATOM     14  H41 UNL     1     -46.659  72.212 -12.697  1.00  0.00     0.276 HD
ENDBRANCH  10  11
BRANCH  10  15
HETATM   15  C5  UNL     1     -47.880  72.656 -14.998  1.00  0.00     0.169 C
BRANCH  15  16
HETATM   16  O3  UNL     1     -47.782  73.748 -14.131  1.00  0.00    -0.392 OA
ATOM     17  H3  UNL     1     -47.409  74.469 -14.625  1.00  0.00     0.210 HD
ENDBRANCH  15  16
BRANCH  15  18
HETATM   18  C6  UNL     1     -49.172  72.693 -15.799  1.00  0.00     0.055 C
BRANCH  18  19
HETATM   19  C7  UNL     1     -49.599  74.129 -15.945  1.00  0.00     0.141 C
BRANCH  19  20
HETATM   20  N5  UNL     1     -50.972  74.373 -15.682  1.00  0.00    -0.251 N
HETATM   21  C8  UNL     1     -51.901  74.153 -16.634  1.00  0.00     0.334 A
HETATM   22  O4  UNL     1     -51.500  73.730 -17.744  1.00  0.00    -0.246 OA
HETATM   23  N6  UNL     1     -53.185  74.397 -16.337  1.00  0.00    -0.260 N
HETATM   24  C9  UNL     1     -53.561  74.849 -15.133  1.00  0.00     0.332 A
ATOM     25  H6  UNL     1     -53.898  74.234 -17.048  1.00  0.00     0.175 HD
HETATM   26  O5  UNL     1     -54.772  75.069 -14.880  1.00  0.00    -0.246 OA
HETATM   27  N7  UNL     1     -52.628  75.069 -14.178  1.00  0.00    -0.260 N
HETATM   28  C10 UNL     1     -51.320  74.827 -14.460  1.00  0.00     0.334 A
ATOM     29  H7  UNL     1     -52.903  75.413 -13.258  1.00  0.00     0.175 HD
HETATM   30  O6  UNL     1     -50.490  75.047 -13.542  1.00  0.00    -0.246 OA
ENDBRANCH  19  20
ENDBRANCH  18  19
ENDBRANCH  15  18
ENDBRANCH  10  15
BRANCH   1  31
HETATM   31  N1  UNL     1     -46.389  70.251 -15.741  1.00  0.00    -0.055 N
ATOM     32  H13 UNL     1     -46.227  71.195 -16.092  1.00  0.00     0.276 HD
ATOM     33  H12 UNL     1     -45.564  70.170 -15.145  1.00  0.00     0.276 HD
ATOM     34  H11 UNL     1     -46.389  69.558 -16.489  1.00  0.00     0.276 HD
ENDBRANCH   1  31
TORSDOF 7
ENDMDL