MODEL 1
REMARK VINA RESULT: -6.282099251      0.000      0.000
REMARK  10 active torsions:
REMARK  status: ('A' for Active; 'I' for Inactive)
REMARK    1  A    between atoms: C3_5  and  C4_6
REMARK    2  A    between atoms: C4_6  and  N2_7
REMARK    3  A    between atoms: C6_14  and  N5_15
REMARK    4  A    between atoms: C7_18  and  N6_19
REMARK    5  A    between atoms: N6_19  and  C8_21
REMARK    6  A    between atoms: C8_21  and  C9_22
REMARK    7  A    between atoms: C8_21  and  C10_27
REMARK    8  A    between atoms: C9_22  and  N7_23
REMARK    9  A    between atoms: C10_27  and  O2_28
REMARK   10  A    between atoms: N8_30  and  N9_31
ROOT
HETATM    1  C1  UNL     1     -49.276  71.248 -19.202  1.00  0.00     0.049 C
HETATM    2  C2  UNL     1     -48.278  71.604 -18.417  1.00  0.00     0.094 A
HETATM    3  N1  UNL     1     -47.836  70.804 -17.446  1.00  0.00    -0.348 N
ATOM      4  H1  UNL     1     -48.296  69.902 -17.326  1.00  0.00     0.166 HD
HETATM    5  C3  UNL     1     -46.809  71.113 -16.602  1.00  0.00     0.097 A
HETATM    6  C7  UNL     1     -46.207  72.370 -16.809  1.00  0.00     0.155 A
HETATM    7  N8  UNL     1     -46.633  73.196 -17.777  1.00  0.00    -0.206 N
HETATM    8  C11 UNL     1     -47.660  72.807 -18.570  1.00  0.00     0.293 A
HETATM    9  O3  UNL     1     -48.038  73.611 -19.477  1.00  0.00    -0.264 OA
ENDROOT
BRANCH   5  10
HETATM   10  C4  UNL     1     -46.478  70.251 -15.689  1.00  0.00     0.168 C
BRANCH  10  11
HETATM   11  N2  UNL     1     -47.118  69.786 -14.538  1.00  0.00    -0.092 N
HETATM   12  N3  UNL     1     -47.922  68.742 -14.441  1.00  0.00    -0.230 N
HETATM   13  C5  UNL     1     -48.278  68.582 -13.132  1.00  0.00     0.354 A
ATOM     14  H3  UNL     1     -48.227  68.152 -15.216  1.00  0.00     0.193 HD
HETATM   15  O1  UNL     1     -49.034  67.690 -12.666  1.00  0.00    -0.245 OA
HETATM   16  N4  UNL     1     -47.676  69.557 -12.415  1.00  0.00    -0.139 N
HETATM   17  C6  UNL     1     -46.961  70.291 -13.308  1.00  0.00     0.701 A
ATOM     18  H4  UNL     1     -47.744  69.710 -11.409  1.00  0.00     0.189 HD
BRANCH  17  19
HETATM   19  N5  UNL     1     -46.256  71.301 -12.963  1.00  0.00    -0.233 N
ATOM     20  H52 UNL     1     -45.399  71.565 -13.450  1.00  0.00     0.174 HD
ATOM     21  H51 UNL     1     -46.436  71.955 -12.202  1.00  0.00     0.174 HD
ENDBRANCH  17  19
ENDBRANCH  10  11
ENDBRANCH   5  10
BRANCH   6  22
HETATM   22  N6  UNL     1     -45.250  72.640 -16.030  1.00  0.00    -0.365 N
ATOM     23  H6  UNL     1     -45.542  72.772 -15.063  1.00  0.00     0.161 HD
BRANCH  22  24
HETATM   24  C8  UNL     1     -43.866  72.794 -16.220  1.00  0.00     0.132 C
BRANCH  24  25
HETATM   25  C9  UNL     1     -43.162  71.593 -16.841  1.00  0.00     0.256 C
BRANCH  25  26
HETATM   26  N7  UNL     1     -42.954  71.689 -18.245  1.00  0.00    -0.077 N
ATOM     27  H73 UNL     1     -43.019  70.768 -18.676  1.00  0.00     0.274 HD
ATOM     28  H72 UNL     1     -43.749  72.148 -18.690  1.00  0.00     0.274 HD
ATOM     29  H71 UNL     1     -42.083  72.146 -18.515  1.00  0.00     0.274 HD
ENDBRANCH  25  26
ENDBRANCH  24  25
BRANCH  24  30
HETATM   30  C10 UNL     1     -43.205  73.051 -14.833  1.00  0.00     0.190 C
BRANCH  30  31
HETATM   31  O2  UNL     1     -44.240  73.331 -13.909  1.00  0.00    -0.399 OA
ATOM     32  H2  UNL     1     -43.833  73.567 -13.083  1.00  0.00     0.209 HD
ENDBRANCH  30  31
ENDBRANCH  24  30
ENDBRANCH  22  24
ENDBRANCH   6  22
BRANCH   7  33
HETATM   33  N9  UNL     1     -46.081  74.475 -18.030  1.00  0.00    -0.334 N
ATOM     34  H92 UNL     1     -45.409  74.543 -18.794  1.00  0.00     0.177 HD
ATOM     35  H91 UNL     1     -46.321  75.316 -17.504  1.00  0.00     0.177 HD
ENDBRANCH   7  33
TORSDOF 10
ENDMDL