MODEL 2
REMARK VINA RESULT: -6.416344241      3.383      6.102
REMARK  8 active torsions:
REMARK  status: ('A' for Active; 'I' for Inactive)
REMARK    1  A    between atoms: N1_1  and  C1_5
REMARK    2  A    between atoms: C1_5  and  C2_6
REMARK    3  A    between atoms: C2_6  and  N2_7
REMARK    4  A    between atoms: C6_21  and  N5_22
REMARK       I    between atoms: N5_22  and  C7_24
REMARK    5  A    between atoms: C7_24  and  C8_26
REMARK    6  A    between atoms: C8_26  and  N6_27
REMARK    7  A    between atoms: C8_26  and  C9_31
REMARK       I    between atoms: C9_31  and  N7_33
REMARK    8  A    between atoms: N7_33  and  N8_35
ROOT
HETATM    1  C2  UNL     1     -50.181  75.538 -12.523  1.00  0.00     0.255 C
HETATM    2  C3  UNL     1     -49.208  76.553 -12.950  1.00  0.00     0.266 C
HETATM    3  O1  UNL     1     -48.328  76.848 -12.117  1.00  0.00    -0.270 OA
HETATM    4  N3  UNL     1     -49.129  77.246 -14.176  1.00  0.00    -0.277 N
ATOM      5  H3  UNL     1     -48.471  78.024 -14.220  1.00  0.00     0.173 HD
HETATM    6  C4  UNL     1     -49.874  76.972 -15.362  1.00  0.00     0.329 C
HETATM    7  O2  UNL     1     -49.772  77.773 -16.328  1.00  0.00    -0.247 OA
HETATM    8  N4  UNL     1     -50.749  75.857 -15.584  1.00  0.00    -0.277 N
ATOM      9  H4  UNL     1     -51.363  75.902 -16.397  1.00  0.00     0.173 HD
HETATM   10  C5  UNL     1     -50.836  74.689 -14.766  1.00  0.00     0.251 C
HETATM   11  O3  UNL     1     -51.556  73.793 -15.274  1.00  0.00    -0.271 OA
HETATM   12  C6  UNL     1     -50.253  74.346 -13.463  1.00  0.00     0.224 C
ENDROOT
BRANCH  12  13
HETATM   13  N5  UNL     1     -48.992  73.671 -13.586  1.00  0.00    -0.343 N
HETATM   14  C7  UNL     1     -48.795  72.329 -13.116  1.00  0.00     0.258 C
HETATM   15  O4  UNL     1     -49.756  71.725 -12.580  1.00  0.00    -0.271 OA
ATOM     16  H5  UNL     1     -48.211  74.160 -14.022  1.00  0.00     0.163 HD
BRANCH  14  17
HETATM   17  C8  UNL     1     -47.519  71.617 -13.228  1.00  0.00     0.367 C
BRANCH  17  18
HETATM   18  N6  UNL     1     -46.919  71.751 -14.542  1.00  0.00    -0.058 N
ATOM     19  H63 UNL     1     -47.465  72.380 -15.131  1.00  0.00     0.275 HD
ATOM     20  H62 UNL     1     -46.050  72.283 -14.495  1.00  0.00     0.275 HD
ATOM     21  H61 UNL     1     -46.775  70.852 -15.001  1.00  0.00     0.275 HD
ENDBRANCH  17  18
BRANCH  17  22
HETATM   22  C9  UNL     1     -47.657  70.161 -12.889  1.00  0.00     0.275 C
HETATM   23  O5  UNL     1     -46.869  69.680 -12.009  1.00  0.00    -0.269 OA
HETATM   24  N7  UNL     1     -48.606  69.326 -13.494  1.00  0.00    -0.274 N
ATOM     25  H7  UNL     1     -49.245  69.697 -14.198  1.00  0.00     0.189 HD
BRANCH  24  26
HETATM   26  N8  UNL     1     -48.670  67.968 -13.119  1.00  0.00    -0.343 N
ATOM     27  H82 UNL     1     -49.386  67.664 -12.460  1.00  0.00     0.176 HD
ATOM     28  H81 UNL     1     -47.998  67.309 -13.514  1.00  0.00     0.176 HD
ENDBRANCH  24  26
ENDBRANCH  17  22
ENDBRANCH  14  17
ENDBRANCH  12  13
BRANCH   1  29
HETATM   29  C1  UNL     1     -49.923  75.076 -11.112  1.00  0.00     0.281 C
BRANCH  29  30
HETATM   30  N1  UNL     1     -50.113  76.036 -10.116  1.00  0.00    -0.076 N
ATOM     31  H13 UNL     1     -50.065  76.971 -10.520  1.00  0.00     0.274 HD
ATOM     32  H12 UNL     1     -51.083  76.023  -9.801  1.00  0.00     0.274 HD
ATOM     33  H11 UNL     1     -49.486  75.970  -9.314  1.00  0.00     0.274 HD
ENDBRANCH  29  30
ENDBRANCH   1  29
BRANCH   1  34
HETATM   34  N2  UNL     1     -51.528  76.124 -12.527  1.00  0.00    -0.057 N
ATOM     35  H23 UNL     1     -52.211  75.570 -12.010  1.00  0.00     0.276 HD
ATOM     36  H22 UNL     1     -51.602  76.972 -11.964  1.00  0.00     0.276 HD
ATOM     37  H21 UNL     1     -51.777  76.265 -13.506  1.00  0.00     0.276 HD
ENDBRANCH   1  34
TORSDOF 8
ENDMDL