MODEL 5
REMARK VINA RESULT: -6.252633943      3.243      6.835
REMARK  9 active torsions:
REMARK  status: ('A' for Active; 'I' for Inactive)
REMARK    1  A    between atoms: N1_1  and  N2_4
REMARK       I    between atoms: C1_6  and  N3_7
REMARK       I    between atoms: C1_6  and  N5_12
REMARK    2  A    between atoms: N3_7  and  N4_9
REMARK    3  A    between atoms: N5_12  and  N6_14
REMARK    4  A    between atoms: N6_14  and  S1_16
REMARK    5  A    between atoms: S1_16  and  C2_19
REMARK    6  A    between atoms: C3_24  and  N9_25
REMARK    7  A    between atoms: N9_25  and  C4_27
REMARK    8  A    between atoms: C4_27  and  C5_28
REMARK    9  A    between atoms: C5_28  and  O3_29
ROOT
HETATM    1  S1  UNL     1     -49.361  76.672 -13.260  1.00  0.00     0.299 S
HETATM    2  O1  UNL     1     -48.570  77.434 -12.234  1.00  0.00    -0.197 OA
HETATM    3  O2  UNL     1     -48.870  76.972 -14.658  1.00  0.00    -0.197 OA
ENDROOT
BRANCH   1   4
HETATM    4  N6  UNL     1     -51.038  77.051 -13.178  1.00  0.00    -0.207 N
ATOM      5  H6  UNL     1     -51.442  77.987 -13.133  1.00  0.00     0.201 HD
BRANCH   4   6
HETATM    6  N5  UNL     1     -51.746  75.848 -13.185  1.00  0.00    -0.120 N
HETATM    7  C1  UNL     1     -52.380  75.415 -14.370  1.00  0.00     0.725 C
HETATM    8  N2  UNL     1     -53.327  74.563 -14.302  1.00  0.00    -0.136 N
HETATM    9  N3  UNL     1     -51.958  75.928 -15.611  1.00  0.00    -0.136 N
ATOM     10  H2  UNL     1     -53.626  74.197 -13.398  1.00  0.00     0.205 HD
ATOM     11  H3  UNL     1     -52.443  76.734 -16.002  1.00  0.00     0.205 HD
ATOM     12  H5  UNL     1     -51.805  75.284 -12.337  1.00  0.00     0.206 HD
BRANCH   8  13
HETATM   13  N1  UNL     1     -53.950  74.138 -15.471  1.00  0.00    -0.331 N
ATOM     14  H12 UNL     1     -54.944  73.909 -15.452  1.00  0.00     0.177 HD
ATOM     15  H11 UNL     1     -53.406  74.062 -16.330  1.00  0.00     0.177 HD
ENDBRANCH   8  13
BRANCH   9  16
HETATM   16  N4  UNL     1     -50.883  75.362 -16.332  1.00  0.00    -0.331 N
ATOM     17  H42 UNL     1     -51.075  74.997 -17.265  1.00  0.00     0.177 HD
ATOM     18  H41 UNL     1     -49.939  75.311 -15.949  1.00  0.00     0.177 HD
ENDBRANCH   9  16
ENDBRANCH   4   6
ENDBRANCH   1   4
BRANCH   1  19
HETATM   19  C2  UNL     1     -49.179  74.946 -13.028  1.00  0.00     0.234 A
HETATM   20  N7  UNL     1     -48.675  74.124 -13.956  1.00  0.00    -0.270 N
HETATM   21  N8  UNL     1     -48.545  72.825 -13.762  1.00  0.00    -0.131 N
ATOM     22  H7  UNL     1     -48.379  74.518 -14.849  1.00  0.00     0.188 HD
HETATM   23  C3  UNL     1     -48.919  72.238 -12.603  1.00  0.00     0.695 A
ATOM     24  H8  UNL     1     -48.151  72.249 -14.506  1.00  0.00     0.205 HD
HETATM   25  N10 UNL     1     -49.431  73.022 -11.639  1.00  0.00    -0.152 N
HETATM   26  C6  UNL     1     -49.561  74.340 -11.841  1.00  0.00     0.301 A
ATOM     27  H10 UNL     1     -49.723  72.612 -10.752  1.00  0.00     0.187 HD
HETATM   28  O4  UNL     1     -50.045  75.040 -10.917  1.00  0.00    -0.264 OA
BRANCH  23  29
HETATM   29  N9  UNL     1     -48.804  70.989 -12.391  1.00  0.00    -0.223 N
ATOM     30  H9  UNL     1     -48.706  70.638 -11.438  1.00  0.00     0.177 HD
BRANCH  29  31
HETATM   31  C4  UNL     1     -48.815  70.072 -13.505  1.00  0.00     0.164 C
BRANCH  31  32
HETATM   32  C5  UNL     1     -49.318  68.742 -12.967  1.00  0.00     0.184 C
BRANCH  32  33
HETATM   33  O3  UNL     1     -48.348  67.765 -13.178  1.00  0.00    -0.399 OA
ATOM     34  H3  UNL     1     -48.767  66.963 -13.469  1.00  0.00     0.209 HD
ENDBRANCH  32  33
ENDBRANCH  31  32
ENDBRANCH  29  31
ENDBRANCH  23  29
ENDBRANCH   1  19
TORSDOF 9
ENDMDL