MODEL 2
REMARK VINA RESULT: -7.523438329      3.496      7.365
REMARK  6 active torsions:
REMARK  status: ('A' for Active; 'I' for Inactive)
REMARK    1  A    between atoms: N1_1  and  N2_4
REMARK    2  A    between atoms: C3_11  and  N4_12
REMARK    3  A    between atoms: C5_19  and  N7_20
REMARK    4  A    between atoms: N7_20  and  N8_22
REMARK    5  A    between atoms: N8_22  and  C6_24
REMARK    6  A    between atoms: C6_24  and  C7_25
ROOT
HETATM    1  N4  UNL     1     -45.791  71.880 -15.009  1.00  0.00    -0.204 N
ATOM      2  H4  UNL     1     -46.260  72.435 -15.725  1.00  0.00     0.179 HD
HETATM    3  C4  UNL     1     -46.532  71.670 -14.030  1.00  0.00     0.708 A
HETATM    4  N5  UNL     1     -46.315  71.005 -12.907  1.00  0.00    -0.117 N
ATOM      5  H5  UNL     1     -45.444  70.535 -12.664  1.00  0.00     0.206 HD
HETATM    6  N6  UNL     1     -47.417  71.042 -12.131  1.00  0.00    -0.116 N
ATOM      7  H6  UNL     1     -47.522  70.611 -11.212  1.00  0.00     0.206 HD
HETATM    8  C5  UNL     1     -48.348  71.750 -12.788  1.00  0.00     0.726 A
HETATM    9  N13 UNL     1     -47.815  72.138 -13.951  1.00  0.00    -0.018 N
ATOM     10  H13 UNL     1     -48.289  72.693 -14.664  1.00  0.00     0.203 HD
ENDROOT
BRANCH   8  11
HETATM   11  N7  UNL     1     -49.545  71.987 -12.328  1.00  0.00    -0.134 N
ATOM     12  H7  UNL     1     -50.095  71.220 -11.942  1.00  0.00     0.205 HD
BRANCH  11  13
HETATM   13  N8  UNL     1     -50.083  73.266 -12.354  1.00  0.00    -0.315 N
ATOM     14  H8  UNL     1     -50.724  73.530 -13.102  1.00  0.00     0.181 HD
BRANCH  13  15
HETATM   15  C6  UNL     1     -49.746  74.226 -11.333  1.00  0.00     0.216 C
BRANCH  15  16
HETATM   16  C7  UNL     1     -49.724  75.575 -11.912  1.00  0.00     0.099 C
HETATM   17  N9  UNL     1     -49.412  75.687 -13.183  1.00  0.00    -0.377 N
HETATM   18  C8  UNL     1     -49.294  76.816 -14.059  1.00  0.00     0.140 C
ATOM     19  H9  UNL     1     -49.216  74.795 -13.636  1.00  0.00     0.160 HD
HETATM   20  C9  UNL     1     -50.182  77.971 -13.738  1.00  0.00     0.142 C
HETATM   21  N10 UNL     1     -49.917  78.572 -12.447  1.00  0.00    -0.363 N
HETATM   22  C10 UNL     1     -49.853  78.029 -11.276  1.00  0.00     0.189 C
ATOM     23  H10 UNL     1     -49.756  79.579 -12.465  1.00  0.00     0.162 HD
HETATM   24  N11 UNL     1     -49.575  78.842 -10.143  1.00  0.00    -0.064 NA
HETATM   25  N12 UNL     1     -50.047  76.626 -11.012  1.00  0.00    -0.319 N
ATOM     26  H12 UNL     1     -50.447  76.366 -10.110  1.00  0.00     0.169 HD
ENDBRANCH  15  16
ENDBRANCH  13  15
ENDBRANCH  11  13
ENDBRANCH   8  11
BRANCH   1  27
HETATM   27  C3  UNL     1     -44.486  71.553 -15.380  1.00  0.00     0.261 C
HETATM   28  C1  UNL     1     -44.032  71.702 -16.774  1.00  0.00     0.131 C
HETATM   29  N2  UNL     1     -43.758  70.943 -17.756  1.00  0.00    -0.293 N
HETATM   30  N3  UNL     1     -44.005  73.096 -16.572  1.00  0.00    -0.311 N
ATOM     31  H2  UNL     1     -43.865  69.935 -17.641  1.00  0.00     0.187 HD
HETATM   32  C2  UNL     1     -43.631  72.800 -15.232  1.00  0.00     0.254 C
ATOM     33  H3  UNL     1     -44.175  73.932 -17.130  1.00  0.00     0.170 HD
HETATM   34  O1  UNL     1     -42.935  73.304 -14.339  1.00  0.00    -0.270 OA
BRANCH  29  35
HETATM   35  N1  UNL     1     -43.320  71.432 -18.984  1.00  0.00    -0.344 N
ATOM     36  H12 UNL     1     -43.321  72.444 -19.118  1.00  0.00     0.176 HD
ATOM     37  H11 UNL     1     -43.002  70.822 -19.737  1.00  0.00     0.176 HD
ENDBRANCH  29  35
ENDBRANCH   1  27
TORSDOF 6
ENDMDL