MODEL 2
REMARK VINA RESULT: -6.518468533      3.083      5.679
REMARK  9 active torsions:
REMARK  status: ('A' for Active; 'I' for Inactive)
REMARK    1  A    between atoms: C3_4  and  C4_5
REMARK       I    between atoms: C4_5  and  N2_7
REMARK    2  A    between atoms: N2_7  and  C5_9
REMARK    3  A    between atoms: C5_9  and  C6_10
REMARK    4  A    between atoms: C5_9  and  C7_13
REMARK    5  A    between atoms: C7_13  and  N4_14
REMARK    6  A    between atoms: C7_13  and  C8_18
REMARK    7  A    between atoms: C9_23  and  N7_24
REMARK    8  A    between atoms: N7_24  and  N8_26
REMARK    9  A    between atoms: C10_31  and  N10_32
ROOT
HETATM    1  N1  UNL     1     -48.670  75.705 -16.238  1.00  0.00    -0.191 NA
HETATM    2  C1  UNL     1     -48.913  75.655 -15.107  1.00  0.00     0.106 C
HETATM    3  C2  UNL     1     -49.217  75.621 -13.707  1.00  0.00     0.121 A
HETATM    4  C3  UNL     1     -49.301  74.449 -12.987  1.00  0.00     0.141 A
HETATM    5  N6  UNL     1     -49.595  74.591 -11.680  1.00  0.00    -0.183 N
ATOM      6  H6  UNL     1     -49.669  73.749 -11.109  1.00  0.00     0.184 HD
HETATM    7  C9  UNL     1     -49.798  75.792 -11.084  1.00  0.00     0.698 A
HETATM    8  N9  UNL     1     -49.709  76.913 -11.810  1.00  0.00    -0.174 N
ATOM      9  H9  UNL     1     -49.862  77.816 -11.363  1.00  0.00     0.186 HD
HETATM   10  C10 UNL     1     -49.423  76.861 -13.104  1.00  0.00     0.138 A
ENDROOT
BRANCH   4  11
HETATM   11  C4  UNL     1     -49.086  73.159 -13.613  1.00  0.00     0.271 C
HETATM   12  O1  UNL     1     -49.893  72.785 -14.499  1.00  0.00    -0.266 OA
HETATM   13  N2  UNL     1     -48.003  72.302 -13.268  1.00  0.00    -0.340 N
ATOM     14  H2  UNL     1     -47.347  72.605 -12.549  1.00  0.00     0.163 HD
BRANCH  13  15
HETATM   15  C5  UNL     1     -47.801  71.034 -13.892  1.00  0.00     0.213 C
BRANCH  15  16
HETATM   16  C6  UNL     1     -48.062  69.888 -12.999  1.00  0.00     0.256 C
HETATM   17  N3  UNL     1     -49.336  69.313 -12.864  1.00  0.00    -0.060 NA
HETATM   18  O2  UNL     1     -47.111  69.417 -12.340  1.00  0.00    -0.274 OA
ENDBRANCH  15  16
BRANCH  15  19
HETATM   19  C7  UNL     1     -46.434  70.911 -14.551  1.00  0.00     0.303 C
BRANCH  19  20
HETATM   20  N4  UNL     1     -46.467  69.984 -15.658  1.00  0.00    -0.064 N
ATOM     21  H43 UNL     1     -47.384  69.964 -16.102  1.00  0.00     0.275 HD
ATOM     22  H42 UNL     1     -45.917  70.323 -16.447  1.00  0.00     0.275 HD
ATOM     23  H41 UNL     1     -46.172  69.052 -15.369  1.00  0.00     0.275 HD
ENDBRANCH  19  20
BRANCH  19  24
HETATM   24  C8  UNL     1     -45.972  72.221 -15.081  1.00  0.00     0.264 C
HETATM   25  N5  UNL     1     -46.564  72.865 -16.191  1.00  0.00    -0.060 NA
HETATM   26  O3  UNL     1     -44.999  72.752 -14.481  1.00  0.00    -0.274 OA
ENDBRANCH  19  24
ENDBRANCH  15  19
ENDBRANCH  13  15
ENDBRANCH   4  11
BRANCH  10  27
HETATM   27  N10 UNL     1     -49.348  77.970 -13.761  1.00  0.00    -0.384 N
ATOM     28 2H10 UNL     1     -48.464  78.477 -13.759  1.00  0.00     0.157 HD
ATOM     29 1H10 UNL     1     -50.139  78.353 -14.280  1.00  0.00     0.157 HD
ENDBRANCH  10  27
BRANCH   7  30
HETATM   30  N7  UNL     1     -50.078  75.884  -9.828  1.00  0.00    -0.138 N
ATOM     31  H7  UNL     1     -50.103  75.045  -9.250  1.00  0.00     0.205 HD
BRANCH  30  32
HETATM   32  N8  UNL     1     -50.346  77.130  -9.263  1.00  0.00    -0.331 N
ATOM     33  H82 UNL     1     -49.635  77.860  -9.315  1.00  0.00     0.177 HD
ATOM     34  H81 UNL     1     -51.242  77.300  -8.807  1.00  0.00     0.177 HD
ENDBRANCH  30  32
ENDBRANCH   7  30
TORSDOF 9
ENDMDL