MODEL 3
REMARK VINA RESULT: -6.277586358      2.413      5.398
REMARK  8 active torsions:
REMARK  status: ('A' for Active; 'I' for Inactive)
REMARK    1  A    between atoms: N1_1  and  N2_4
REMARK    2  A    between atoms: C1_6  and  N3_7
REMARK    3  A    between atoms: C1_6  and  C2_12
REMARK    4  A    between atoms: N3_7  and  N4_9
REMARK    5  A    between atoms: C2_12  and  N5_13
REMARK    6  A    between atoms: C2_12  and  C3_17
REMARK    7  A    between atoms: C3_17  and  C4_18
REMARK    8  A    between atoms: C3_17  and  N7_21
ROOT
HETATM    1  C3  UNL     1     -48.515  72.836 -14.248  1.00  0.00     0.211 C
ENDROOT
BRANCH   1   2
HETATM    2  C2  UNL     1     -49.204  72.030 -13.134  1.00  0.00     0.284 C
BRANCH   2   3
HETATM    3  C1  UNL     1     -48.478  70.849 -12.706  1.00  0.00     0.143 C
HETATM    4  N2  UNL     1     -47.309  70.949 -12.196  1.00  0.00    -0.293 N
ATOM      5  H2  UNL     1     -46.904  71.880 -12.097  1.00  0.00     0.187 HD
BRANCH   4   6
HETATM    6  N1  UNL     1     -46.555  69.849 -11.768  1.00  0.00    -0.344 N
ATOM      7  H12 UNL     1     -45.548  69.885 -11.925  1.00  0.00     0.176 HD
ATOM      8  H11 UNL     1     -46.961  69.030 -11.315  1.00  0.00     0.176 HD
ENDBRANCH   4   6
BRANCH   3   9
HETATM    9  N3  UNL     1     -49.057  69.574 -12.850  1.00  0.00    -0.293 N
ATOM     10  H3  UNL     1     -49.599  69.152 -12.096  1.00  0.00     0.187 HD
BRANCH   9  11
HETATM   11  N4  UNL     1     -48.862  68.900 -14.071  1.00  0.00    -0.344 N
ATOM     12  H42 UNL     1     -48.573  67.922 -14.077  1.00  0.00     0.176 HD
ATOM     13  H41 UNL     1     -49.019  69.423 -14.932  1.00  0.00     0.176 HD
ENDBRANCH   9  11
ENDBRANCH   3   9
ENDBRANCH   2   3
BRANCH   2  14
HETATM   14  N5  UNL     1     -49.569  72.902 -12.029  1.00  0.00    -0.066 N
ATOM     15  H53 UNL     1     -49.729  72.364 -11.177  1.00  0.00     0.275 HD
ATOM     16  H52 UNL     1     -48.771  73.460 -11.725  1.00  0.00     0.275 HD
ATOM     17  H51 UNL     1     -50.370  73.497 -12.240  1.00  0.00     0.275 HD
ENDBRANCH   2  14
ENDBRANCH   1   2
BRANCH   1  18
HETATM   18  C4  UNL     1     -49.225  74.075 -14.413  1.00  0.00     0.256 C
HETATM   19  N6  UNL     1     -50.603  74.315 -14.626  1.00  0.00    -0.060 NA
HETATM   20  O1  UNL     1     -48.558  75.170 -14.371  1.00  0.00    -0.274 OA
ENDBRANCH   1  18
BRANCH   1  21
HETATM   21  N7  UNL     1     -48.178  71.991 -15.249  1.00  0.00    -0.369 N
HETATM   22  C5  UNL     1     -46.914  71.668 -15.673  1.00  0.00     0.104 C
HETATM   23  C6  UNL     1     -45.562  71.703 -15.264  1.00  0.00     0.104 C
HETATM   24  N8  UNL     1     -44.659  71.757 -16.404  1.00  0.00    -0.373 N
HETATM   25  C7  UNL     1     -44.787  70.825 -17.461  1.00  0.00     0.104 C
ATOM     26  H8  UNL     1     -43.931  72.469 -16.442  1.00  0.00     0.164 HD
HETATM   27  C8  UNL     1     -45.693  71.215 -18.513  1.00  0.00     0.100 C
HETATM   28  N9  UNL     1     -45.753  70.862 -19.855  1.00  0.00    -0.393 N
HETATM   29  C9  UNL     1     -46.949  71.571 -20.364  1.00  0.00     0.163 C
ATOM     30  H9  UNL     1     -45.117  70.253 -20.371  1.00  0.00     0.159 HD
HETATM   31  C10 UNL     1     -48.183  71.556 -19.523  1.00  0.00     0.079 C
HETATM   32  N10 UNL     1     -48.371  72.587 -18.620  1.00  0.00    -0.379 N
HETATM   33  C11 UNL     1     -49.084  72.651 -17.477  1.00  0.00     0.080 C
ATOM     34  H10 UNL     1     -47.886  73.451 -18.861  1.00  0.00     0.164 HD
HETATM   35  C12 UNL     1     -49.052  71.674 -16.366  1.00  0.00     0.167 C
ENDBRANCH   1  21
TORSDOF 8
ENDMDL