MODEL 3
REMARK VINA RESULT: -7.712118702      2.126      7.200
REMARK  6 active torsions:
REMARK  status: ('A' for Active; 'I' for Inactive)
REMARK    1  A    between atoms: N1_1  and  C1_4
REMARK    2  A    between atoms: C7_17  and  C8_18
REMARK    3  A    between atoms: C9_22  and  C10_23
REMARK    4  A    between atoms: C10_23  and  O2_24
REMARK    5  A    between atoms: C10_23  and  C11_26
REMARK       I    between atoms: C11_26  and  N6_28
REMARK    6  A    between atoms: N7_30  and  N8_32
ROOT
HETATM    1  C8  UNL     1     -48.819  73.453 -14.660  1.00  0.00     0.373 C
HETATM    2  N5  UNL     1     -48.138  72.171 -14.524  1.00  0.00    -0.034 N
ATOM      3  H51 UNL     1     -48.507  71.533 -13.818  1.00  0.00     0.281 HD
ATOM      4  H52 UNL     1     -47.204  72.194 -14.116  1.00  0.00     0.281 HD
HETATM    5  C9  UNL     1     -48.232  71.736 -15.902  1.00  0.00     0.250 C
HETATM    6  C12 UNL     1     -49.672  72.017 -16.176  1.00  0.00     0.207 C
HETATM    7  O4  UNL     1     -50.063  72.852 -15.111  1.00  0.00    -0.352 OA
ENDROOT
BRANCH   1   8
HETATM    8  C7  UNL     1     -49.184  74.098 -13.389  1.00  0.00     0.080 A
HETATM    9  C3  UNL     1     -49.376  75.402 -13.253  1.00  0.00     0.086 A
HETATM   10  C2  UNL     1     -49.235  76.242 -14.331  1.00  0.00     0.274 A
HETATM   11  C4  UNL     1     -49.753  75.944 -12.014  1.00  0.00     0.065 A
HETATM   12  N2  UNL     1     -49.462  77.580 -14.183  1.00  0.00    -0.156 N
HETATM   13  O1  UNL     1     -48.898  75.794 -15.445  1.00  0.00    -0.267 OA
HETATM   14  C1  UNL     1     -49.820  78.092 -13.000  1.00  0.00     0.679 A
ATOM     15  H2  UNL     1     -49.357  78.198 -14.987  1.00  0.00     0.187 HD
HETATM   16  N3  UNL     1     -49.962  77.268 -11.925  1.00  0.00    -0.191 N
ATOM     17  H3  UNL     1     -50.236  77.668 -11.027  1.00  0.00     0.184 HD
HETATM   18  C5  UNL     1     -49.915  75.226 -10.928  1.00  0.00     0.024 A
HETATM   19  C6  UNL     1     -49.716  73.768 -10.911  1.00  0.00     0.149 A
HETATM   20  N4  UNL     1     -49.348  73.308 -12.206  1.00  0.00    -0.385 N
ATOM     21  H4  UNL     1     -49.184  72.305 -12.302  1.00  0.00     0.159 HD
BRANCH  14  22
HETATM   22  N1  UNL     1     -50.031  79.351 -12.868  1.00  0.00    -0.234 N
ATOM     23  H12 UNL     1     -50.966  79.726 -13.029  1.00  0.00     0.174 HD
ATOM     24  H11 UNL     1     -49.273  79.982 -12.604  1.00  0.00     0.174 HD
ENDBRANCH  14  22
ENDBRANCH   1   8
BRANCH   5  25
HETATM   25  C10 UNL     1     -47.796  70.343 -16.172  1.00  0.00     0.244 C
BRANCH  25  26
HETATM   26  O2  UNL     1     -48.982  69.619 -16.459  1.00  0.00    -0.384 OA
ATOM     27  H2  UNL     1     -49.253  69.234 -15.634  1.00  0.00     0.210 HD
ENDBRANCH  25  26
BRANCH  25  28
HETATM   28  C11 UNL     1     -47.089  69.650 -15.111  1.00  0.00     0.268 C
HETATM   29  O3  UNL     1     -45.867  69.849 -14.918  1.00  0.00    -0.269 OA
HETATM   30  N6  UNL     1     -47.756  68.732 -14.266  1.00  0.00    -0.254 N
HETATM   31  N7  UNL     1     -48.975  68.704 -14.003  1.00  0.00    -0.247 N
ATOM     32  H6  UNL     1     -47.179  68.016 -13.825  1.00  0.00     0.191 HD
ATOM     33  H7  UNL     1     -49.611  69.390 -14.410  1.00  0.00     0.207 HD
BRANCH  31  34
HETATM   34  N8  UNL     1     -49.450  67.714 -13.138  1.00  0.00    -0.331 N
ATOM     35  H82 UNL     1     -48.890  67.432 -12.334  1.00  0.00     0.178 HD
ATOM     36  H81 UNL     1     -50.356  67.290 -13.334  1.00  0.00     0.178 HD
ENDBRANCH  31  34
ENDBRANCH  25  28
ENDBRANCH   5  25
TORSDOF 6
ENDMDL