MODEL 5
REMARK VINA RESULT: -6.606807265      2.594      4.213
REMARK  7 active torsions:
REMARK  status: ('A' for Active; 'I' for Inactive)
REMARK    1  A    between atoms: C2_2  and  O1_3
REMARK    2  A    between atoms: O1_3  and  C3_4
REMARK    3  A    between atoms: C3_4  and  C4_6
REMARK    4  A    between atoms: C4_6  and  N1_8
REMARK    5  A    between atoms: C4_6  and  C6_12
REMARK       I    between atoms: C6_12  and  N2_14
REMARK    6  A    between atoms: N2_14  and  C7_16
REMARK    7  A    between atoms: C10_24  and  C11_25
ROOT
HETATM    1  C7  UNL     1     -49.338  73.920 -12.404  1.00  0.00     0.403 C
HETATM    2  N3  UNL     1     -48.717  74.633 -13.531  1.00  0.00    -0.034 N
ATOM      3  H31 UNL     1     -48.168  73.998 -14.111  1.00  0.00     0.281 HD
ATOM      4  H32 UNL     1     -47.970  75.248 -13.210  1.00  0.00     0.281 HD
HETATM    5  C8  UNL     1     -49.676  75.349 -14.314  1.00  0.00     0.254 C
HETATM    6  C9  UNL     1     -49.232  76.798 -14.452  1.00  0.00     0.158 C
HETATM    7  N4  UNL     1     -49.556  77.458 -13.212  1.00  0.00    -0.145 NA
HETATM    8  N5  UNL     1     -49.048  76.821 -12.097  1.00  0.00    -0.116 NA
HETATM    9  C10 UNL     1     -50.119  76.577 -11.172  1.00  0.00     0.296 C
HETATM   10  N7  UNL     1     -49.928  75.267 -10.546  1.00  0.00    -0.110 NA
HETATM   11  N8  UNL     1     -48.934  74.591 -11.212  1.00  0.00    -0.291 N
ATOM     12  H8  UNL     1     -47.970  74.570 -10.877  1.00  0.00     0.179 HD
ENDROOT
BRANCH   1  13
HETATM   13  N2  UNL     1     -48.893  72.548 -12.475  1.00  0.00    -0.314 N
HETATM   14  C6  UNL     1     -49.002  71.752 -13.638  1.00  0.00     0.266 C
HETATM   15  O3  UNL     1     -49.505  72.223 -14.679  1.00  0.00    -0.270 OA
ATOM     16  H2  UNL     1     -48.477  72.132 -11.642  1.00  0.00     0.166 HD
BRANCH  14  17
HETATM   17  C4  UNL     1     -48.525  70.354 -13.643  1.00  0.00     0.285 C
HETATM   18  C5  UNL     1     -49.404  69.538 -12.718  1.00  0.00     0.068 C
BRANCH  17  19
HETATM   19  C3  UNL     1     -47.100  70.296 -13.207  1.00  0.00     0.304 C
HETATM   20  O2  UNL     1     -46.749  70.300 -12.003  1.00  0.00    -0.262 OA
BRANCH  19  21
HETATM   21  O1  UNL     1     -46.130  70.235 -14.184  1.00  0.00    -0.320 OA
BRANCH  21  22
HETATM   22  C2  UNL     1     -45.605  71.356 -14.847  1.00  0.00     0.174 C
HETATM   23  C1  UNL     1     -45.530  70.987 -16.332  1.00  0.00     0.034 C
ENDBRANCH  21  22
ENDBRANCH  19  21
ENDBRANCH  17  19
BRANCH  17  24
HETATM   24  N1  UNL     1     -48.667  69.779 -14.976  1.00  0.00    -0.052 N
ATOM     25  H13 UNL     1     -49.377  69.047 -15.002  1.00  0.00     0.276 HD
ATOM     26  H12 UNL     1     -49.101  70.432 -15.629  1.00  0.00     0.276 HD
ATOM     27  H11 UNL     1     -47.765  69.446 -15.314  1.00  0.00     0.276 HD
ENDBRANCH  17  24
ENDBRANCH  14  17
ENDBRANCH   1  13
BRANCH   9  28
HETATM   28  C11 UNL     1     -50.105  77.591 -10.097  1.00  0.00     0.269 C
HETATM   29  N6  UNL     1     -50.484  77.205  -8.788  1.00  0.00    -0.059 NA
HETATM   30  O4  UNL     1     -49.762  78.761 -10.359  1.00  0.00    -0.273 OA
ENDBRANCH   9  28
TORSDOF 7
ENDMDL