MODEL 3
REMARK VINA RESULT: -6.556250879      5.429      9.042
REMARK  8 active torsions:
REMARK  status: ('A' for Active; 'I' for Inactive)
REMARK    1  A    between atoms: C1_4  and  C2_5
REMARK    2  A    between atoms: C1_4  and  N10_34
REMARK    3  A    between atoms: C2_5  and  N2_6
REMARK    4  A    between atoms: N6_19  and  N7_21
REMARK    5  A    between atoms: C7_23  and  C8_24
REMARK    6  A    between atoms: C8_24  and  O2_25
REMARK    7  A    between atoms: C8_24  and  O3_27
REMARK    8  A    between atoms: N10_34  and  N11_36
ROOT
HETATM    1  N2  UNL     1     -48.270  71.058 -13.833  1.00  0.00    -0.218 N
ATOM      2  H2  UNL     1     -49.043  70.602 -14.316  1.00  0.00     0.178 HD
HETATM    3  C3  UNL     1     -47.130  71.205 -14.414  1.00  0.00     0.694 A
HETATM    4  N3  UNL     1     -46.063  71.841 -13.731  1.00  0.00    -0.132 N
ATOM      5  H3  UNL     1     -46.192  72.184 -12.779  1.00  0.00     0.205 HD
HETATM    6  N4  UNL     1     -44.836  71.992 -14.376  1.00  0.00    -0.278 N
ATOM      7  H4  UNL     1     -44.075  72.451 -13.876  1.00  0.00     0.188 HD
HETATM    8  C4  UNL     1     -44.623  71.574 -15.578  1.00  0.00     0.162 A
HETATM    9  C5  UNL     1     -43.280  71.791 -16.151  1.00  0.00     0.291 A
HETATM   10  O1  UNL     1     -42.368  72.361 -15.504  1.00  0.00    -0.265 OA
HETATM   11  N5  UNL     1     -43.075  71.321 -17.476  1.00  0.00    -0.153 N
ATOM     12  H5  UNL     1     -42.173  71.437 -17.937  1.00  0.00     0.187 HD
HETATM   13  C6  UNL     1     -44.158  70.685 -18.144  1.00  0.00     0.701 A
HETATM   14  N6  UNL     1     -43.915  70.269 -19.366  1.00  0.00    -0.132 N
ATOM     15  H6  UNL     1     -44.664  69.807 -19.882  1.00  0.00     0.205 HD
HETATM   16  N8  UNL     1     -45.438  70.494 -17.559  1.00  0.00    -0.172 N
ATOM     17  H8  UNL     1     -46.176  70.030 -18.089  1.00  0.00     0.186 HD
HETATM   18  C9  UNL     1     -45.673  70.910 -16.341  1.00  0.00     0.170 A
HETATM   19  N9  UNL     1     -46.955  70.719 -15.750  1.00  0.00    -0.172 N
ATOM     20  H9  UNL     1     -47.713  70.258 -16.254  1.00  0.00     0.186 HD
ENDROOT
BRANCH   1  21
HETATM   21  C2  UNL     1     -48.437  71.551 -12.486  1.00  0.00     0.215 C
BRANCH  21  22
HETATM   22  C1  UNL     1     -49.321  72.751 -12.549  1.00  0.00     0.107 C
HETATM   23  N1  UNL     1     -49.770  73.206 -13.677  1.00  0.00    -0.387 N
ATOM     24  H12 UNL     1     -49.535  72.759 -14.564  1.00  0.00     0.157 HD
ATOM     25  H11 UNL     1     -50.374  74.027 -13.720  1.00  0.00     0.157 HD
BRANCH  22  26
HETATM   26  N10 UNL     1     -49.645  73.368 -11.325  1.00  0.00    -0.295 N
ATOM     27  H10 UNL     1     -50.071  72.826 -10.573  1.00  0.00     0.187 HD
BRANCH  26  28
HETATM   28  N11 UNL     1     -49.380  74.714 -11.150  1.00  0.00    -0.344 N
ATOM     29 2H11 UNL     1     -50.150  75.383 -11.187  1.00  0.00     0.176 HD
ATOM     30 1H11 UNL     1     -48.421  75.020 -10.988  1.00  0.00     0.176 HD
ENDBRANCH  26  28
ENDBRANCH  22  26
ENDBRANCH  21  22
ENDBRANCH   1  21
BRANCH  14  31
HETATM   31  N7  UNL     1     -42.685  70.432 -19.982  1.00  0.00    -0.297 N
HETATM   32  C7  UNL     1     -42.098  69.527 -20.686  1.00  0.00     0.140 C
ATOM     33  H7  UNL     1     -42.213  71.330 -19.871  1.00  0.00     0.186 HD
BRANCH  32  34
HETATM   34  C8  UNL     1     -42.694  68.180 -20.918  1.00  0.00     0.295 C
BRANCH  34  35
HETATM   35  O2  UNL     1     -43.845  68.353 -21.668  1.00  0.00    -0.367 OA
ATOM     36  H2  UNL     1     -44.517  68.694 -21.090  1.00  0.00     0.213 HD
ENDBRANCH  34  35
BRANCH  34  37
HETATM   37  O3  UNL     1     -42.908  67.501 -19.734  1.00  0.00    -0.367 OA
ATOM     38  H3  UNL     1     -43.466  66.742 -19.857  1.00  0.00     0.213 HD
ENDBRANCH  34  37
ENDBRANCH  32  34
ENDBRANCH  14  31
TORSDOF 8
ENDMDL