MODEL 4
REMARK VINA RESULT: -4.767854152      1.469      1.799
REMARK  6 active torsions:
REMARK  status: ('A' for Active; 'I' for Inactive)
REMARK    1  A    between atoms: N1_2  and  C3_4
REMARK    2  A    between atoms: C4_5  and  O1_6
REMARK    3  A    between atoms: C5_8  and  C6_9
REMARK    4  A    between atoms: C6_9  and  O2_10
REMARK    5  A    between atoms: N2_12  and  O3_14
REMARK    6  A    between atoms: C8_18  and  O5_19
ROOT
HETATM    1  C3  UNL     1       2.691   1.755  14.513  1.00  0.00     0.262 C
HETATM    2  C4  UNL     1       3.068   0.283  14.324  1.00  0.00     0.189 C
HETATM    3  C5  UNL     1       1.908  -0.638  14.427  1.00  0.00     0.229 C
HETATM    4  O4  UNL     1       0.703  -0.243  13.926  1.00  0.00    -0.367 OA
HETATM    5  C7  UNL     1       0.593   1.073  13.716  1.00  0.00     0.160 A
HETATM    6  C8  UNL     1       0.058   2.150  14.471  1.00  0.00     0.156 A
HETATM    7  C9  UNL     1       1.295   1.691  14.982  1.00  0.00     0.084 A
ENDROOT
BRANCH   3   8
HETATM    8  C6  UNL     1       2.270  -1.937  13.805  1.00  0.00     0.167 C
HETATM    9  N2  UNL     1       1.867  -2.203  12.606  1.00  0.00    -0.249 N
ATOM     10  H2  UNL     1       1.307  -1.499  12.126  1.00  0.00     0.196 HD
BRANCH   8  11
HETATM   11  O2  UNL     1       3.029  -2.895  14.457  1.00  0.00    -0.346 OA
ATOM     12  H2  UNL     1       3.538  -3.551  13.995  1.00  0.00     0.219 HD
ENDBRANCH   8  11
BRANCH   9  13
HETATM   13  O3  UNL     1       2.136  -3.352  11.943  1.00  0.00    -0.288 OA
ATOM     14  H3  UNL     1       2.239  -3.419  11.001  1.00  0.00     0.244 HD
ENDBRANCH   9  13
ENDBRANCH   3   8
BRANCH   2  15
HETATM   15  O1  UNL     1       3.917  -0.039  15.411  1.00  0.00    -0.390 OA
ATOM     16  H1  UNL     1       4.773  -0.198  15.032  1.00  0.00     0.210 HD
ENDBRANCH   2  15
BRANCH   1  17
HETATM   17  N1  UNL     1       3.547   2.454  15.406  1.00  0.00     0.087 N
HETATM   18  C1  UNL     1       4.339   3.483  14.727  1.00  0.00     0.310 C
HETATM   19  C2  UNL     1       2.716   3.135  16.382  1.00  0.00     0.310 C
ENDBRANCH   1  17
BRANCH   6  20
HETATM   20  O5  UNL     1      -0.018   3.426  13.894  1.00  0.00    -0.392 OA
ATOM     21  H5  UNL     1      -0.052   4.191  14.455  1.00  0.00     0.210 HD
ENDBRANCH   6  20
TORSDOF 6
ENDMDL