MODEL 3
REMARK VINA RESULT: -4.797862169      2.865      4.626
REMARK  6 active torsions:
REMARK  status: ('A' for Active; 'I' for Inactive)
REMARK    1  A    between atoms: O1_1  and  C1_3
REMARK    2  A    between atoms: C4_7  and  O3_8
REMARK    3  A    between atoms: O3_8  and  C5_9
REMARK    4  A    between atoms: C7_11  and  O4_12
REMARK    5  A    between atoms: C8_14  and  O5_15
REMARK    6  A    between atoms: C10_18  and  O6_19
ROOT
HETATM    1  C5  UNL     1       1.940   0.189  14.535  1.00  0.00     0.156 C
HETATM    2  C6  UNL     1       2.961  -0.922  14.376  1.00  0.00     0.069 C
HETATM    3  C7  UNL     1       2.273  -2.164  13.814  1.00  0.00     0.149 C
HETATM    4  C8  UNL     1       1.997  -1.803  12.350  1.00  0.00     0.149 C
HETATM    5  C9  UNL     1       0.928  -0.736  12.426  1.00  0.00     0.068 C
HETATM    6  C10 UNL     1       1.331   0.468  13.195  1.00  0.00     0.149 C
ENDROOT
BRANCH   1   7
HETATM    7  O3  UNL     1       1.067  -0.188  15.504  1.00  0.00    -0.350 OA
BRANCH   7   8
HETATM    8  C4  UNL     1       0.842   0.705  16.514  1.00  0.00     0.298 C
HETATM    9  C1  UNL     1       0.598   0.102  17.854  1.00  0.00     0.198 C
HETATM   10  C2  UNL     1      -0.816  -0.250  17.839  1.00  0.00     0.033 C
HETATM   11  C3  UNL     1      -1.401   0.457  16.890  1.00  0.00     0.137 C
HETATM   12  O2  UNL     1      -0.452   1.281  16.252  1.00  0.00    -0.330 OA
BRANCH   9  13
HETATM   13  O1  UNL     1       1.449  -0.944  18.164  1.00  0.00    -0.387 OA
ATOM     14  H1  UNL     1       2.010  -0.787  18.914  1.00  0.00     0.210 HD
ENDBRANCH   9  13
ENDBRANCH   7   8
ENDBRANCH   1   7
BRANCH   6  15
HETATM   15  O6  UNL     1       0.208   1.292  13.276  1.00  0.00    -0.393 OA
ATOM     16  H6  UNL     1      -0.280   1.167  14.081  1.00  0.00     0.210 HD
ENDBRANCH   6  15
BRANCH   3  17
HETATM   17  O4  UNL     1       3.015  -3.298  13.949  1.00  0.00    -0.393 OA
ATOM     18  H4  UNL     1       2.690  -3.880  14.627  1.00  0.00     0.210 HD
ENDBRANCH   3  17
BRANCH   4  19
HETATM   19  O5  UNL     1       1.532  -2.880  11.636  1.00  0.00    -0.393 OA
ATOM     20  H5  UNL     1       1.920  -2.925  10.769  1.00  0.00     0.210 HD
ENDBRANCH   4  19
TORSDOF 6
ENDMDL