MODEL 1
REMARK VINA RESULT: -4.997364963      0.000      0.000
REMARK  6 active torsions:
REMARK  status: ('A' for Active; 'I' for Inactive)
REMARK    1  A    between atoms: O1_3  and  C3_4
REMARK    2  A    between atoms: N1_5  and  C4_7
REMARK    3  A    between atoms: C7_10  and  O2_11
REMARK    4  A    between atoms: C8_13  and  O3_14
REMARK    5  A    between atoms: C9_16  and  O4_17
REMARK    6  A    between atoms: C10_19  and  O5_20
ROOT
HETATM    1  C1  UNL     1       1.858   1.203   8.030  1.00  0.00     0.045 C
HETATM    2  C2  UNL     1       1.099   0.512   8.663  1.00  0.00     0.049 C
HETATM    3  O1  UNL     1       0.242  -0.296   9.383  1.00  0.00    -0.257 OA
ENDROOT
BRANCH   3   4
HETATM    4  C3  UNL     1       0.123  -0.123  10.778  1.00  0.00     0.242 C
HETATM    5  N1  UNL     1       1.098   0.474  11.375  1.00  0.00    -0.372 N
ATOM      6  H1  UNL     1       1.916   0.805  10.864  1.00  0.00     0.161 HD
BRANCH   5   7
HETATM    7  C4  UNL     1       0.975   0.653  12.812  1.00  0.00     0.120 C
HETATM    8  C5  UNL     1       2.093  -0.053  13.513  1.00  0.00     0.038 C
HETATM    9  C6  UNL     1       1.849  -1.554  13.354  1.00  0.00     0.015 C
HETATM   10  C7  UNL     1       1.976   0.220  15.000  1.00  0.00     0.155 C
HETATM   11  C8  UNL     1       2.038   1.664  15.327  1.00  0.00     0.178 C
HETATM   12  C9  UNL     1       1.710   2.597  14.234  1.00  0.00     0.180 C
HETATM   13  C10 UNL     1       0.830   2.090  13.158  1.00  0.00     0.172 C
BRANCH  10  14
HETATM   14  O2  UNL     1       0.757  -0.297  15.435  1.00  0.00    -0.392 OA
ATOM     15  H2  UNL     1       0.936  -1.092  15.923  1.00  0.00     0.210 HD
ENDBRANCH  10  14
BRANCH  11  16
HETATM   16  O3  UNL     1       1.209   1.887  16.448  1.00  0.00    -0.390 OA
ATOM     17  H3  UNL     1       1.741   1.773  17.228  1.00  0.00     0.210 HD
ENDBRANCH  11  16
BRANCH  12  18
HETATM   18  O4  UNL     1       2.898   3.121  13.673  1.00  0.00    -0.390 OA
ATOM     19  H4  UNL     1       2.788   3.245  12.737  1.00  0.00     0.210 HD
ENDBRANCH  12  18
BRANCH  13  20
HETATM   20  O5  UNL     1       1.098   2.856  12.008  1.00  0.00    -0.391 OA
ATOM     21  H5  UNL     1       1.972   3.222  12.087  1.00  0.00     0.210 HD
ENDBRANCH  13  20
ENDBRANCH   5   7
ENDBRANCH   3   4
TORSDOF 6
ENDMDL