MODEL 3
REMARK VINA RESULT: -5.063316292      2.318      3.835
REMARK  6 active torsions:
REMARK  status: ('A' for Active; 'I' for Inactive)
REMARK    1  A    between atoms: C3_3  and  C4_4
REMARK    2  A    between atoms: C4_4  and  O1_5
REMARK    3  A    between atoms: C5_8  and  C6_9
REMARK    4  A    between atoms: C7_10  and  O3_11
REMARK    5  A    between atoms: C9_13  and  O4_14
REMARK    6  A    between atoms: C11_17  and  O5_18
ROOT
HETATM    1  C1  UNL     1       2.997  -4.606  12.714  1.00  0.00     0.112 C
HETATM    2  C2  UNL     1       2.757  -3.314  13.360  1.00  0.00    -0.105 C
HETATM    3  C3  UNL     1       2.540  -2.250  13.903  1.00  0.00    -0.036 C
ENDROOT
BRANCH   3   4
HETATM    4  C4  UNL     1       2.256  -0.961  14.583  1.00  0.00     0.257 C
HETATM    5  O2  UNL     1       3.368  -0.162  14.638  1.00  0.00    -0.331 OA
HETATM    6  C5  UNL     1       3.146   0.813  15.634  1.00  0.00     0.179 C
HETATM    7  C9  UNL     1       2.036   1.701  15.141  1.00  0.00     0.153 C
HETATM    8  C10 UNL     1       1.419   1.252  13.840  1.00  0.00     0.073 C
HETATM    9  C11 UNL     1       1.233  -0.245  13.736  1.00  0.00     0.196 C
BRANCH   4  10
HETATM   10  O1  UNL     1       1.819  -1.264  15.852  1.00  0.00    -0.353 OA
ATOM     11  H1  UNL     1       1.882  -0.467  16.366  1.00  0.00     0.214 HD
ENDBRANCH   4  10
BRANCH   6  12
HETATM   12  C6  UNL     1       4.439   1.486  15.820  1.00  0.00     0.031 C
HETATM   13  C7  UNL     1       4.924   1.830  17.017  1.00  0.00     0.132 C
BRANCH  13  14
HETATM   14  O3  UNL     1       4.123   1.510  18.118  1.00  0.00    -0.368 OA
HETATM   15  C8  UNL     1       3.595   2.587  18.889  1.00  0.00     0.208 C
ENDBRANCH  13  14
ENDBRANCH   6  12
BRANCH   7  16
HETATM   16  O4  UNL     1       1.061   1.906  16.125  1.00  0.00    -0.393 OA
ATOM     17  H4  UNL     1       0.283   2.318  15.768  1.00  0.00     0.210 HD
ENDBRANCH   7  16
BRANCH   9  18
HETATM   18  O5  UNL     1       1.358  -0.553  12.376  1.00  0.00    -0.389 OA
ATOM     19  H5  UNL     1       0.798  -0.014  11.831  1.00  0.00     0.210 HD
ENDBRANCH   9  18
ENDBRANCH   3   4
TORSDOF 6
ENDMDL