MODEL 2
REMARK VINA RESULT: -4.281299036      3.210      4.441
REMARK  8 active torsions:
REMARK  status: ('A' for Active; 'I' for Inactive)
REMARK    1  A    between atoms: C2_2  and  O1_3
REMARK    2  A    between atoms: C2_2  and  C3_5
REMARK    3  A    between atoms: C5_8  and  N1_9
REMARK    4  A    between atoms: N1_9  and  N2_11
REMARK    5  A    between atoms: N2_11  and  N3_12
REMARK    6  A    between atoms: C6_15  and  O3_16
REMARK    7  A    between atoms: C7_18  and  O4_19
REMARK    8  A    between atoms: C8_21  and  O5_22
ROOT
HETATM    1  C3  UNL     1       0.687   0.436  14.830  1.00  0.00     0.181 C
HETATM    2  O2  UNL     1      -0.299   1.390  14.915  1.00  0.00    -0.378 OA
HETATM    3  C4  UNL     1      -1.395   0.782  15.570  1.00  0.00     0.198 C
HETATM    4  C5  UNL     1      -1.165   1.002  17.049  1.00  0.00     0.169 C
HETATM    5  C6  UNL     1      -0.004   0.199  17.579  1.00  0.00     0.176 C
HETATM    6  C7  UNL     1       1.329   0.774  17.236  1.00  0.00     0.180 C
HETATM    7  C8  UNL     1       1.769   0.587  15.836  1.00  0.00     0.180 C
ENDROOT
BRANCH   4   8
HETATM    8  N1  UNL     1      -2.358   0.557  17.743  1.00  0.00    -0.243 N
ATOM      9  H1  UNL     1      -2.695   1.087  18.547  1.00  0.00     0.197 HD
BRANCH   8  10
HETATM   10  N2  UNL     1      -2.975  -0.453  17.380  1.00  0.00    -0.248 NA
BRANCH  10  11
HETATM   11  N3  UNL     1      -3.361  -1.601  17.090  1.00  0.00    -0.261 N
ATOM     12  H32 UNL     1      -2.538  -2.015  17.528  1.00  0.00     0.193 HD
ATOM     13  H31 UNL     1      -3.853  -2.430  16.759  1.00  0.00     0.193 HD
ENDBRANCH  10  11
ENDBRANCH   8  10
ENDBRANCH   4   8
BRANCH   5  14
HETATM   14  O3  UNL     1      -0.157  -1.125  17.234  1.00  0.00    -0.391 OA
ATOM     15  H3  UNL     1      -1.045  -1.405  17.424  1.00  0.00     0.210 HD
ENDBRANCH   5  14
BRANCH   6  16
HETATM   16  O4  UNL     1       2.272   0.119  18.064  1.00  0.00    -0.390 OA
ATOM     17  H4  UNL     1       1.891   0.089  18.934  1.00  0.00     0.210 HD
ENDBRANCH   6  16
BRANCH   1  18
HETATM   18  C2  UNL     1       1.323   0.579  13.443  1.00  0.00     0.145 C
HETATM   19  C1  UNL     1       1.132  -0.684  12.649  1.00  0.00     0.042 C
BRANCH  18  20
HETATM   20  O1  UNL     1       0.779   1.652  12.755  1.00  0.00    -0.393 OA
ATOM     21  H1  UNL     1      -0.169   1.612  12.793  1.00  0.00     0.210 HD
ENDBRANCH  18  20
ENDBRANCH   1  18
BRANCH   7  22
HETATM   22  O5  UNL     1       2.658  -0.487  15.699  1.00  0.00    -0.390 OA
ATOM     23  H5  UNL     1       2.204  -1.287  15.937  1.00  0.00     0.210 HD
ENDBRANCH   7  22
TORSDOF 8
ENDMDL