MODEL 1
REMARK VINA RESULT: -5.319110918      0.000      0.000
REMARK  6 active torsions:
REMARK  status: ('A' for Active; 'I' for Inactive)
REMARK    1  A    between atoms: O1_1  and  C1_3
REMARK    2  A    between atoms: C2_5  and  O3_6
REMARK    3  A    between atoms: O3_6  and  C3_7
REMARK    4  A    between atoms: C8_12  and  O4_13
REMARK    5  A    between atoms: C9_15  and  O5_16
REMARK    6  A    between atoms: C10_18  and  O6_19
ROOT
HETATM    1  C1  UNL     1       2.222   1.217  17.496  1.00  0.00     0.291 C
HETATM    2  O2  UNL     1       1.753   1.974  16.443  1.00  0.00    -0.326 OA
HETATM    3  C2  UNL     1       1.120   1.086  15.557  1.00  0.00     0.294 C
HETATM    4  C8  UNL     1      -0.165   0.683  16.202  1.00  0.00     0.204 C
HETATM    5  C9  UNL     1       0.192  -0.257  17.325  1.00  0.00     0.185 C
HETATM    6  C10 UNL     1       1.187   0.427  18.211  1.00  0.00     0.204 C
ENDROOT
BRANCH   3   7
HETATM    7  O3  UNL     1       1.013   1.580  14.289  1.00  0.00    -0.353 OA
BRANCH   7   8
HETATM    8  C3  UNL     1       1.645   0.807  13.326  1.00  0.00     0.124 C
HETATM    9  C4  UNL     1       2.078  -0.541  13.828  1.00  0.00     0.032 C
HETATM   10  C5  UNL     1       1.687  -1.552  12.799  1.00  0.00     0.002 C
HETATM   11  C6  UNL     1       0.941  -0.861  11.709  1.00  0.00     0.002 C
HETATM   12  C7  UNL     1       0.572   0.464  12.286  1.00  0.00     0.032 C
ENDBRANCH   7   8
ENDBRANCH   3   7
BRANCH   4  13
HETATM   13  O4  UNL     1      -1.092   0.139  15.326  1.00  0.00    -0.388 OA
ATOM     14  H4  UNL     1      -1.649  -0.525  15.715  1.00  0.00     0.210 HD
ENDBRANCH   4  13
BRANCH   1  15
HETATM   15  O1  UNL     1       3.226   0.356  17.033  1.00  0.00    -0.368 OA
ATOM     16  H1  UNL     1       3.908   0.288  17.691  1.00  0.00     0.212 HD
ENDBRANCH   1  15
BRANCH   5  17
HETATM   17  O5  UNL     1      -0.913  -0.664  18.054  1.00  0.00    -0.390 OA
ATOM     18  H5  UNL     1      -0.679  -1.058  18.886  1.00  0.00     0.210 HD
ENDBRANCH   5  17
BRANCH   6  19
HETATM   19  O6  UNL     1       1.861  -0.593  18.925  1.00  0.00    -0.388 OA
ATOM     20  H6  UNL     1       1.424  -1.412  18.722  1.00  0.00     0.210 HD
ENDBRANCH   6  19
TORSDOF 6
ENDMDL