MODEL 3
REMARK VINA RESULT: -4.735012848      0.820      1.212
REMARK  7 active torsions:
REMARK  status: ('A' for Active; 'I' for Inactive)
REMARK    1  A    between atoms: C2_2  and  O1_4
REMARK    2  A    between atoms: O1_4  and  C4_5
REMARK    3  A    between atoms: C5_7  and  O3_8
REMARK    4  A    between atoms: C6_10  and  C7_11
REMARK    5  A    between atoms: C7_11  and  O4_13
REMARK    6  A    between atoms: C9_15  and  O5_16
REMARK    7  A    between atoms: C10_18  and  O6_19
ROOT
HETATM    1  C4  UNL     1       1.488   0.598  15.068  1.00  0.00     0.300 C
HETATM    2  O2  UNL     1       0.307   0.055  15.482  1.00  0.00    -0.328 OA
HETATM    3  C5  UNL     1       0.271  -0.345  16.798  1.00  0.00     0.269 C
HETATM    4  C6  UNL     1       0.381   0.885  17.665  1.00  0.00     0.101 C
HETATM    5  C9  UNL     1       1.557   1.747  17.305  1.00  0.00     0.163 C
HETATM    6  C10 UNL     1       2.309   1.260  16.098  1.00  0.00     0.203 C
ENDROOT
BRANCH   1   7
HETATM    7  O1  UNL     1       2.256  -0.401  14.380  1.00  0.00    -0.323 OA
BRANCH   7   8
HETATM    8  C2  UNL     1       1.790  -0.999  13.222  1.00  0.00     0.036 C
HETATM    9  C1  UNL     1       1.082  -0.271  12.377  1.00  0.00     0.045 C
HETATM   10  C3  UNL     1       2.083  -2.421  12.947  1.00  0.00     0.075 C
ENDBRANCH   7   8
ENDBRANCH   1   7
BRANCH   6  11
HETATM   11  O6  UNL     1       3.361   0.422  16.483  1.00  0.00    -0.388 OA
ATOM     12  H6  UNL     1       3.669   0.664  17.348  1.00  0.00     0.210 HD
ENDBRANCH   6  11
BRANCH   3  13
HETATM   13  O3  UNL     1       1.160  -1.337  17.126  1.00  0.00    -0.371 OA
ATOM     14  H3  UNL     1       0.774  -2.197  17.245  1.00  0.00     0.212 HD
ENDBRANCH   3  13
BRANCH   5  15
HETATM   15  O5  UNL     1       1.148   3.081  17.077  1.00  0.00    -0.392 OA
ATOM     16  H5  UNL     1       0.713   3.160  16.236  1.00  0.00     0.210 HD
ENDBRANCH   5  15
BRANCH   4  17
HETATM   17  C7  UNL     1       0.467   0.548  19.129  1.00  0.00     0.125 C
HETATM   18  C8  UNL     1       1.871   0.395  19.620  1.00  0.00     0.040 C
BRANCH  17  19
HETATM   19  O4  UNL     1      -0.263  -0.641  19.313  1.00  0.00    -0.395 OA
ATOM     20  H4  UNL     1      -0.066  -0.949  20.190  1.00  0.00     0.210 HD
ENDBRANCH  17  19
ENDBRANCH   4  17
TORSDOF 7
ENDMDL