MODEL 5
REMARK VINA RESULT: -4.783460746      1.715      2.843
REMARK  7 active torsions:
REMARK  status: ('A' for Active; 'I' for Inactive)
REMARK    1  A    between atoms: C3_3  and  O1_4
REMARK    2  A    between atoms: C4_6  and  O2_7
REMARK    3  A    between atoms: C5_9  and  O3_10
REMARK    4  A    between atoms: C6_12  and  N1_13
REMARK    5  A    between atoms: N1_13  and  O4_15
REMARK    6  A    between atoms: O4_15  and  C8_16
REMARK    7  A    between atoms: C9_17  and  C10_18
ROOT
HETATM    1  C1  UNL     1       2.894   2.288  16.311  1.00  0.00     0.015 C
HETATM    2  C2  UNL     1       2.290   1.090  16.969  1.00  0.00     0.040 C
HETATM    3  C3  UNL     1       1.532   1.410  18.248  1.00  0.00     0.155 C
HETATM    4  C4  UNL     1       0.924   0.027  18.533  1.00  0.00     0.178 C
HETATM    5  C5  UNL     1       0.498  -0.435  17.140  1.00  0.00     0.174 C
HETATM    6  C6  UNL     1       1.171   0.472  16.155  1.00  0.00     0.147 C
ENDROOT
BRANCH   6   7
HETATM    7  N1  UNL     1       1.543  -0.081  14.938  1.00  0.00    -0.276 N
HETATM    8  C7  UNL     1       0.750   0.092  13.799  1.00  0.00     0.180 C
BRANCH   7   9
HETATM    9  O4  UNL     1       2.666  -0.790  14.821  1.00  0.00    -0.187 OA
BRANCH   9  10
HETATM   10  C8  UNL     1       2.637  -1.940  14.044  1.00  0.00     0.090 C
HETATM   11  C9  UNL     1       2.621  -2.926  13.350  1.00  0.00    -0.029 C
BRANCH  11  12
HETATM   12  C10 UNL     1       2.619  -4.084  12.505  1.00  0.00     0.148 C
HETATM   13  N2  UNL     1       3.315  -5.143  12.737  1.00  0.00    -0.401 N
ATOM     14  H22 UNL     1       3.896  -5.141  13.574  1.00  0.00     0.156 HD
ATOM     15  H21 UNL     1       3.313  -5.966  12.135  1.00  0.00     0.156 HD
ENDBRANCH  11  12
ENDBRANCH   9  10
ENDBRANCH   7   9
ENDBRANCH   6   7
BRANCH   5  16
HETATM   16  O3  UNL     1      -0.891  -0.368  17.095  1.00  0.00    -0.391 OA
ATOM     17  H3  UNL     1      -1.126  -0.023  16.241  1.00  0.00     0.210 HD
ENDBRANCH   5  16
BRANCH   3  18
HETATM   18  O1  UNL     1       0.507   2.292  17.979  1.00  0.00    -0.392 OA
ATOM     19  H1  UNL     1      -0.311   1.818  17.880  1.00  0.00     0.210 HD
ENDBRANCH   3  18
BRANCH   4  20
HETATM   20  O2  UNL     1       1.955  -0.812  18.923  1.00  0.00    -0.390 OA
ATOM     21  H2  UNL     1       2.703  -0.268  19.140  1.00  0.00     0.210 HD
ENDBRANCH   4  20
TORSDOF 7
ENDMDL