MODEL 5
REMARK VINA RESULT: -4.335536801      2.565      4.546
REMARK  5 active torsions:
REMARK  status: ('A' for Active; 'I' for Inactive)
REMARK    1  A    between atoms: O1_2  and  N1_3
REMARK    2  A    between atoms: N1_3  and  C2_4
REMARK    3  A    between atoms: C4_6  and  O2_8
REMARK    4  A    between atoms: C6_10  and  O3_11
REMARK    5  A    between atoms: C7_13  and  O4_14
ROOT
HETATM    1  C2  UNL     1       1.148   1.471  13.761  1.00  0.00     0.141 C
HETATM    2  C3  UNL     1       2.526   0.886  13.609  1.00  0.00     0.067 C
HETATM    3  C4  UNL     1       2.658  -0.183  14.692  1.00  0.00     0.092 C
HETATM    4  C5  UNL     1       2.284  -1.537  14.207  1.00  0.00     0.049 C
HETATM    5  C6  UNL     1       1.835   0.358  15.796  1.00  0.00     0.144 C
HETATM    6  C7  UNL     1       1.032  -0.655  16.549  1.00  0.00     0.186 C
HETATM    7  C8  UNL     1      -0.338   0.012  16.611  1.00  0.00     0.150 C
HETATM    8  C9  UNL     1      -0.388   1.154  17.564  1.00  0.00     0.042 C
HETATM    9  O5  UNL     1      -0.438   0.505  15.291  1.00  0.00    -0.373 OA
HETATM   10  C10 UNL     1       0.753   1.232  15.184  1.00  0.00     0.183 C
ENDROOT
BRANCH   1  11
HETATM   11  N1  UNL     1       1.156   2.893  13.524  1.00  0.00    -0.094 NA
BRANCH  11  12
HETATM   12  O1  UNL     1       0.613   3.243  12.348  1.00  0.00    -0.291 OA
HETATM   13  C1  UNL     1       0.085   4.543  12.447  1.00  0.00     0.231 C
ENDBRANCH  11  12
ENDBRANCH   1  11
BRANCH   3  14
HETATM   14  O2  UNL     1       4.014  -0.238  15.089  1.00  0.00    -0.387 OA
ATOM     15  H2  UNL     1       4.471   0.487  14.679  1.00  0.00     0.210 HD
ENDBRANCH   3  14
BRANCH   5  16
HETATM   16  O3  UNL     1       2.680   1.106  16.634  1.00  0.00    -0.381 OA
ATOM     17  H3  UNL     1       2.316   1.078  17.511  1.00  0.00     0.211 HD
ENDBRANCH   5  16
BRANCH   6  18
HETATM   18  O4  UNL     1       1.476  -0.847  17.857  1.00  0.00    -0.390 OA
ATOM     19  H4  UNL     1       0.768  -0.951  18.482  1.00  0.00     0.210 HD
ENDBRANCH   6  18
TORSDOF 5
ENDMDL