MODEL 2
REMARK VINA RESULT: -4.570539035      4.157      7.737
REMARK  6 active torsions:
REMARK  status: ('A' for Active; 'I' for Inactive)
REMARK    1  A    between atoms: C3_4  and  O2_5
REMARK    2  A    between atoms: O2_5  and  C4_6
REMARK    3  A    between atoms: C6_8  and  O3_9
REMARK    4  A    between atoms: C7_11  and  O4_12
REMARK    5  A    between atoms: C8_14  and  O5_15
REMARK    6  A    between atoms: C10_18  and  O6_19
ROOT
HETATM    1  C4  UNL     1       1.189   1.373  16.462  1.00  0.00     0.158 C
HETATM    2  C5  UNL     1       2.171   0.845  17.492  1.00  0.00     0.069 C
HETATM    3  C6  UNL     1       1.290   0.325  18.635  1.00  0.00     0.152 C
HETATM    4  C7  UNL     1       0.127  -0.254  17.834  1.00  0.00     0.178 C
HETATM    5  C8  UNL     1      -0.172   0.864  16.861  1.00  0.00     0.178 C
ENDROOT
BRANCH   1   6
HETATM    6  O2  UNL     1       1.586   0.902  15.227  1.00  0.00    -0.353 OA
BRANCH   6   7
HETATM    7  C3  UNL     1       1.336   1.759  14.189  1.00  0.00     0.263 C
HETATM    8  O1  UNL     1       0.240   1.399  13.408  1.00  0.00    -0.354 OA
HETATM    9  C2  UNL     1       0.828   0.501  12.525  1.00  0.00     0.149 C
HETATM   10  C1  UNL     1       1.405  -0.705  13.171  1.00  0.00     0.042 C
HETATM   11  C10 UNL     1       1.975   1.350  11.969  1.00  0.00     0.151 C
HETATM   12  C9  UNL     1       2.473   1.999  13.266  1.00  0.00     0.095 C
BRANCH  11  13
HETATM   13  O6  UNL     1       1.503   2.298  11.082  1.00  0.00    -0.393 OA
ATOM     14  H6  UNL     1       1.830   2.137  10.205  1.00  0.00     0.210 HD
ENDBRANCH  11  13
ENDBRANCH   6   7
ENDBRANCH   1   6
BRANCH   5  15
HETATM   15  O5  UNL     1      -0.846   0.282  15.779  1.00  0.00    -0.390 OA
ATOM     16  H5  UNL     1      -1.098   0.930  15.131  1.00  0.00     0.210 HD
ENDBRANCH   5  15
BRANCH   3  17
HETATM   17  O3  UNL     1       1.948  -0.684  19.332  1.00  0.00    -0.393 OA
ATOM     18  H3  UNL     1       1.377  -1.434  19.444  1.00  0.00     0.210 HD
ENDBRANCH   3  17
BRANCH   4  19
HETATM   19  O4  UNL     1       0.647  -1.314  17.098  1.00  0.00    -0.390 OA
ATOM     20  H4  UNL     1      -0.098  -1.814  16.786  1.00  0.00     0.210 HD
ENDBRANCH   4  19
TORSDOF 6
ENDMDL