MODEL 4
REMARK VINA RESULT: -7.356739636      3.196      5.123
REMARK  7 active torsions:
REMARK  status: ('A' for Active; 'I' for Inactive)
REMARK    1  A    between atoms: O1_2  and  C2_3
REMARK    2  A    between atoms: C3_6  and  N2_7
REMARK    3  A    between atoms: C5_13  and  N4_14
REMARK    4  A    between atoms: C7_20  and  N7_21
REMARK    5  A    between atoms: N8_24  and  C10_25
REMARK    6  A    between atoms: C10_25  and  C11_26
REMARK    7  A    between atoms: C11_26  and  O2_27
ROOT
HETATM    1  N4  UNL     1      20.603  14.209  34.032  1.00  0.00    -0.277 N
ATOM      2  H4  UNL     1      20.969  13.521  33.374  1.00  0.00     0.179 HD
HETATM    3  C6  UNL     1      20.048  13.811  35.255  1.00  0.00     0.183 C
HETATM    4  N5  UNL     1      19.591  13.488  36.289  1.00  0.00    -0.172 NA
ENDROOT
BRANCH   1   5
HETATM    5  C5  UNL     1      20.638  15.461  33.761  1.00  0.00     0.160 A
HETATM    6  C4  UNL     1      21.840  16.049  33.440  1.00  0.00     0.126 A
HETATM    7  N3  UNL     1      22.983  15.359  33.401  1.00  0.00    -0.186 N
HETATM    8  C14 UNL     1      21.902  17.418  33.139  1.00  0.00     0.131 A
HETATM    9  C3  UNL     1      24.152  15.943  33.089  1.00  0.00     0.678 A
ATOM     10  H3  UNL     1      22.968  14.362  33.615  1.00  0.00     0.184 HD
HETATM   11  N1  UNL     1      24.200  17.274  32.798  1.00  0.00    -0.168 N
HETATM   12  C2  UNL     1      23.094  18.039  32.814  1.00  0.00     0.187 A
ATOM     13  H1  UNL     1      25.096  17.700  32.562  1.00  0.00     0.186 HD
HETATM   14  N9  UNL     1      20.774  18.138  33.172  1.00  0.00    -0.185 N
HETATM   15  C7  UNL     1      19.600  17.573  33.484  1.00  0.00     0.682 A
ATOM     16  H9  UNL     1      20.809  19.134  32.956  1.00  0.00     0.184 HD
HETATM   17  N6  UNL     1      19.562  16.260  33.768  1.00  0.00    -0.173 N
ATOM     18  H6  UNL     1      18.660  15.847  34.004  1.00  0.00     0.186 HD
BRANCH   9  19
HETATM   19  N2  UNL     1      25.255  15.266  33.053  1.00  0.00    -0.234 N
ATOM     20  H22 UNL     1      25.963  15.443  32.341  1.00  0.00     0.174 HD
ATOM     21  H21 UNL     1      25.404  14.545  33.759  1.00  0.00     0.174 HD
ENDBRANCH   9  19
BRANCH  12  22
HETATM   22  O1  UNL     1      23.142  19.402  32.518  1.00  0.00    -0.339 OA
HETATM   23  C1  UNL     1      24.442  20.014  32.512  1.00  0.00     0.211 C
ENDBRANCH  12  22
BRANCH  15  24
HETATM   24  N7  UNL     1      18.387  18.364  33.521  1.00  0.00    -0.214 N
HETATM   25  C8  UNL     1      18.410  19.802  33.678  1.00  0.00     0.171 C
HETATM   26  C9  UNL     1      17.134  20.414  33.202  1.00  0.00     0.293 C
HETATM   27  N8  UNL     1      15.944  19.809  33.714  1.00  0.00     0.093 N
HETATM   28  C12 UNL     1      16.134  18.510  34.293  1.00  0.00     0.293 C
HETATM   29  C13 UNL     1      17.093  17.726  33.403  1.00  0.00     0.171 C
BRANCH  27  30
HETATM   30  C10 UNL     1      14.886  19.742  32.716  1.00  0.00     0.298 C
BRANCH  30  31
HETATM   31  C11 UNL     1      14.628  21.122  32.116  1.00  0.00     0.194 C
BRANCH  31  32
HETATM   32  O2  UNL     1      13.633  21.760  32.852  1.00  0.00    -0.399 OA
ATOM     33  H2  UNL     1      13.168  21.114  33.372  1.00  0.00     0.209 HD
ENDBRANCH  31  32
ENDBRANCH  30  31
ENDBRANCH  27  30
ENDBRANCH  15  24
ENDBRANCH   1   5
TORSDOF 7
ENDMDL