MODEL 4
REMARK VINA RESULT: -8.205877304      2.690      3.408
REMARK  8 active torsions:
REMARK  status: ('A' for Active; 'I' for Inactive)
REMARK    1  A    between atoms: N1_1  and  C1_4
REMARK    2  A    between atoms: C4_7  and  S1_8
REMARK    3  A    between atoms: S1_8  and  N2_11
REMARK    4  A    between atoms: C5_12  and  N3_13
REMARK    5  A    between atoms: C6_17  and  C7_18
REMARK    6  A    between atoms: C7_18  and  N4_19
REMARK    7  A    between atoms: N4_19  and  N5_21
REMARK       I    between atoms: N5_21  and  C8_23
REMARK    8  A    between atoms: N7_26  and  O4_27
ROOT
HETATM    1  N2  UNL     1      20.360  16.252  33.046  1.00  0.00    -0.126 N
HETATM    2  C5  UNL     1      19.475  15.365  32.594  1.00  0.00     0.180 A
HETATM    3  S2  UNL     1      18.659  14.902  34.022  1.00  0.00    -0.029 SA
HETATM    4  C6  UNL     1      19.526  15.894  35.106  1.00  0.00     0.143 A
HETATM    5  N7  UNL     1      20.388  16.517  34.296  1.00  0.00    -0.136 N
ENDROOT
BRANCH   1   6
HETATM    6  S1  UNL     1      21.456  17.016  31.900  1.00  0.00     0.287 S
HETATM    7  O1  UNL     1      21.246  16.519  30.516  1.00  0.00    -0.198 OA
HETATM    8  O2  UNL     1      22.886  16.648  32.269  1.00  0.00    -0.198 OA
BRANCH   6   9
HETATM    9  C4  UNL     1      21.324  18.747  32.023  1.00  0.00     0.097 A
HETATM   10  C3  UNL     1      20.196  19.457  31.675  1.00  0.00     0.030 A
HETATM   11  C2  UNL     1      20.154  20.837  31.785  1.00  0.00     0.049 A
HETATM   12  C1  UNL     1      21.262  21.510  32.254  1.00  0.00     0.098 A
HETATM   13  N8  UNL     1      22.364  20.820  32.595  1.00  0.00    -0.351 N
HETATM   14  C9  UNL     1      22.415  19.488  32.492  1.00  0.00     0.115 A
ATOM     15  H8  UNL     1      23.181  21.325  32.940  1.00  0.00     0.166 HD
BRANCH  12  16
HETATM   16  N1  UNL     1      21.216  22.811  32.354  1.00  0.00    -0.385 N
ATOM     17  H12 UNL     1      22.044  23.385  32.198  1.00  0.00     0.157 HD
ATOM     18  H11 UNL     1      20.330  23.257  32.592  1.00  0.00     0.157 HD
ENDBRANCH  12  16
ENDBRANCH   6   9
ENDBRANCH   1   6
BRANCH   2  19
HETATM   19  N3  UNL     1      19.248  14.932  31.385  1.00  0.00    -0.377 N
ATOM     20  H32 UNL     1      19.530  15.375  30.510  1.00  0.00     0.158 HD
ATOM     21  H31 UNL     1      18.765  14.095  31.059  1.00  0.00     0.158 HD
ENDBRANCH   2  19
BRANCH   5  22
HETATM   22  O4  UNL     1      21.281  17.438  34.899  1.00  0.00    -0.266 OA
ATOM     23  H4  UNL     1      22.116  17.202  35.286  1.00  0.00     0.247 HD
ENDBRANCH   5  22
BRANCH   4  24
HETATM   24  C7  UNL     1      19.365  16.031  36.576  1.00  0.00     0.148 C
BRANCH  24  25
HETATM   25  N4  UNL     1      18.630  16.988  36.968  1.00  0.00    -0.305 N
ATOM     26  H4  UNL     1      18.741  17.280  37.939  1.00  0.00     0.186 HD
BRANCH  25  27
HETATM   27  N5  UNL     1      17.704  17.671  36.224  1.00  0.00    -0.254 N
HETATM   28  C8  UNL     1      16.383  17.196  36.058  1.00  0.00     0.347 C
HETATM   29  N6  UNL     1      15.424  17.904  35.288  1.00  0.00    -0.038 NA
HETATM   30  O3  UNL     1      16.009  16.116  36.597  1.00  0.00    -0.249 OA
ATOM     31  H5  UNL     1      17.976  18.547  35.778  1.00  0.00     0.191 HD
ENDBRANCH  25  27
ENDBRANCH  24  25
ENDBRANCH   4  24
TORSDOF 8
ENDMDL