MODEL 4
REMARK VINA RESULT: -8.105811290      2.166      2.954
REMARK  7 active torsions:
REMARK  status: ('A' for Active; 'I' for Inactive)
REMARK    1  A    between atoms: C2_2  and  N1_3
REMARK    2  A    between atoms: C2_2  and  C3_7
REMARK       I    between atoms: C3_7  and  N2_9
REMARK    3  A    between atoms: N2_9  and  N3_11
REMARK       I    between atoms: N3_11  and  C4_13
REMARK    4  A    between atoms: C4_13  and  C5_15
REMARK    5  A    between atoms: C7_17  and  O3_18
REMARK    6  A    between atoms: N4_20  and  C8_21
REMARK    7  A    between atoms: C12_28  and  O6_29
ROOT
HETATM    1  C5  UNL     1      16.424  20.257  32.600  1.00  0.00     0.088 A
HETATM    2  C6  UNL     1      17.492  21.064  33.006  1.00  0.00     0.077 A
HETATM    3  C7  UNL     1      18.626  20.286  33.056  1.00  0.00     0.145 A
HETATM    4  N4  UNL     1      18.308  19.020  32.695  1.00  0.00    -0.302 N
HETATM    5  C12 UNL     1      16.985  19.011  32.423  1.00  0.00     0.160 A
ENDROOT
BRANCH   1   6
HETATM    6  C4  UNL     1      15.048  20.682  32.416  1.00  0.00     0.274 C
HETATM    7  N3  UNL     1      13.992  19.714  32.437  1.00  0.00    -0.263 N
ATOM      8  H3  UNL     1      14.210  18.728  32.579  1.00  0.00     0.190 HD
HETATM    9  O2  UNL     1      14.775  21.878  32.239  1.00  0.00    -0.266 OA
BRANCH   7  10
HETATM   10  N2  UNL     1      12.669  20.112  32.265  1.00  0.00    -0.265 N
HETATM   11  C3  UNL     1      11.931  19.708  31.127  1.00  0.00     0.266 C
HETATM   12  O1  UNL     1      12.497  18.973  30.262  1.00  0.00    -0.269 OA
ATOM     13  H2  UNL     1      12.226  20.704  32.968  1.00  0.00     0.190 HD
BRANCH  11  14
HETATM   14  C2  UNL     1      10.525  20.098  30.892  1.00  0.00     0.272 C
HETATM   15  C1  UNL     1      10.178  21.155  31.947  1.00  0.00     0.050 C
BRANCH  14  16
HETATM   16  N1  UNL     1       9.635  18.971  31.102  1.00  0.00    -0.067 N
ATOM     17  H13 UNL     1       9.941  18.125  30.619  1.00  0.00     0.275 HD
ATOM     18  H12 UNL     1       9.675  18.602  32.052  1.00  0.00     0.275 HD
ATOM     19  H11 UNL     1       8.699  19.269  30.829  1.00  0.00     0.275 HD
ENDBRANCH  14  16
ENDBRANCH  11  14
ENDBRANCH   7  10
ENDBRANCH   1   6
BRANCH   5  20
HETATM   20  O6  UNL     1      16.297  17.877  32.018  1.00  0.00    -0.345 OA
ATOM     21  H6  UNL     1      15.634  17.428  32.530  1.00  0.00     0.219 HD
ENDBRANCH   5  20
BRANCH   3  22
HETATM   22  O3  UNL     1      19.914  20.699  33.415  1.00  0.00    -0.346 OA
ATOM     23  H3  UNL     1      20.222  21.594  33.502  1.00  0.00     0.219 HD
ENDBRANCH   3  22
BRANCH   4  24
HETATM   24  C8  UNL     1      19.221  17.877  32.612  1.00  0.00     0.109 C
HETATM   25  C9  UNL     1      18.659  16.690  33.320  1.00  0.00     0.041 C
HETATM   26  C10 UNL     1      19.774  15.671  33.205  1.00  0.00     0.142 C
HETATM   27  S1  UNL     1      20.091  15.796  31.435  1.00  0.00     0.146 S
HETATM   28  O4  UNL     1      19.150  14.904  30.694  1.00  0.00    -0.228 OA
HETATM   29  O5  UNL     1      21.515  15.584  31.099  1.00  0.00    -0.228 OA
HETATM   30  C11 UNL     1      19.586  17.510  31.213  1.00  0.00     0.166 C
ENDBRANCH   4  24
TORSDOF 7
ENDMDL