MODEL 3
REMARK VINA RESULT: -9.007108950      3.804      7.265
REMARK  5 active torsions:
REMARK  status: ('A' for Active; 'I' for Inactive)
REMARK    1  A    between atoms: N1_1  and  C1_4
REMARK    2  A    between atoms: C3_12  and  C4_13
REMARK    3  A    between atoms: N5_14  and  C5_16
REMARK    4  A    between atoms: C5_16  and  C6_17
REMARK    5  A    between atoms: C6_17  and  N6_18
ROOT
HETATM    1  N6  UNL     1      18.872  15.825  35.483  1.00  0.00    -0.233 NA
HETATM    2  C7  UNL     1      19.408  14.684  34.833  1.00  0.00     0.111 C
HETATM    3  C8  UNL     1      19.507  14.834  33.328  1.00  0.00     0.043 C
HETATM    4  C9  UNL     1      20.652  15.674  32.885  1.00  0.00     0.233 C
HETATM    5  N7  UNL     1      20.330  17.036  32.579  1.00  0.00    -0.073 N
ATOM      6  H71 UNL     1      21.182  17.583  32.458  1.00  0.00     0.277 HD
ATOM      7  H72 UNL     1      19.938  17.500  33.398  1.00  0.00     0.277 HD
HETATM    8  C10 UNL     1      19.465  17.203  31.450  1.00  0.00     0.258 C
HETATM    9  C11 UNL     1      19.148  18.671  31.291  1.00  0.00     0.195 C
HETATM   10  O1  UNL     1      18.674  19.253  32.448  1.00  0.00    -0.388 OA
HETATM   11  C12 UNL     1      17.280  19.254  32.428  1.00  0.00     0.195 C
HETATM   12  C13 UNL     1      16.657  19.708  33.701  1.00  0.00     0.258 C
HETATM   13  N8  UNL     1      17.252  19.207  34.892  1.00  0.00    -0.072 N
ATOM     14  H81 UNL     1      17.370  19.953  35.577  1.00  0.00     0.277 HD
ATOM     15  H82 UNL     1      18.231  18.966  34.732  1.00  0.00     0.277 HD
HETATM   16  C14 UNL     1      16.535  18.081  35.476  1.00  0.00     0.249 C
HETATM   17  C15 UNL     1      16.854  16.793  34.768  1.00  0.00     0.156 C
HETATM   18  N9  UNL     1      17.466  15.803  35.599  1.00  0.00    -0.163 NA
ENDROOT
BRANCH   1  19
HETATM   19  C6  UNL     1      19.518  16.106  36.722  1.00  0.00     0.129 C
BRANCH  19  20
HETATM   20  C5  UNL     1      20.015  17.490  36.919  1.00  0.00     0.135 C
BRANCH  20  21
HETATM   21  N5  UNL     1      20.428  18.150  35.704  1.00  0.00    -0.396 N
HETATM   22  C4  UNL     1      21.327  19.044  35.658  1.00  0.00     0.116 C
ATOM     23  H5  UNL     1      19.971  17.881  34.832  1.00  0.00     0.159 HD
BRANCH  22  24
HETATM   24  C3  UNL     1      21.784  19.742  34.474  1.00  0.00     0.093 A
HETATM   25  C1  UNL     1      23.039  19.602  33.940  1.00  0.00     0.142 A
HETATM   26  N2  UNL     1      23.349  20.337  32.810  1.00  0.00    -0.283 N
HETATM   27  N3  UNL     1      22.483  21.130  32.274  1.00  0.00    -0.295 N
ATOM     28  H2  UNL     1      24.277  20.251  32.393  1.00  0.00     0.188 HD
HETATM   29  C2  UNL     1      21.262  21.262  32.796  1.00  0.00     0.197 A
ATOM     30  H3  UNL     1      22.734  21.662  31.441  1.00  0.00     0.187 HD
HETATM   31  N4  UNL     1      20.896  20.595  33.871  1.00  0.00    -0.347 N
ATOM     32  H4  UNL     1      19.957  20.712  34.253  1.00  0.00     0.167 HD
BRANCH  25  33
HETATM   33  N1  UNL     1      23.931  18.844  34.404  1.00  0.00    -0.383 N
ATOM     34  H12 UNL     1      24.698  18.452  33.858  1.00  0.00     0.157 HD
ATOM     35  H11 UNL     1      23.883  18.613  35.396  1.00  0.00     0.157 HD
ENDBRANCH  25  33
ENDBRANCH  22  24
ENDBRANCH  20  21
ENDBRANCH  19  20
ENDBRANCH   1  19
TORSDOF 5
ENDMDL