MODEL 1
REMARK VINA RESULT: -9.025577910      0.000      0.000
REMARK  5 active torsions:
REMARK  status: ('A' for Active; 'I' for Inactive)
REMARK    1  A    between atoms: C1_2  and  C2_4
REMARK       I    between atoms: C2_4  and  N2_6
REMARK    2  A    between atoms: N2_6  and  C3_8
REMARK    3  A    between atoms: N4_11  and  N5_12
REMARK       I    between atoms: N5_12  and  C5_14
REMARK    4  A    between atoms: C5_14  and  C6_16
REMARK    5  A    between atoms: N6_24  and  N7_25
ROOT
HETATM    1  C3  UNL     1      18.571  19.670  34.325  1.00  0.00     0.149 A
HETATM    2  C4  UNL     1      17.373  19.978  33.646  1.00  0.00     0.175 A
HETATM    3  N3  UNL     1      17.531  20.930  32.607  1.00  0.00    -0.078 NA
HETATM    4  N4  UNL     1      16.205  19.409  33.945  1.00  0.00    -0.184 N
HETATM    5  C12 UNL     1      16.272  18.488  34.979  1.00  0.00     0.371 A
HETATM    6  O4  UNL     1      15.184  17.905  35.314  1.00  0.00    -0.242 OA
HETATM    7  N6  UNL     1      17.372  18.165  35.643  1.00  0.00    -0.171 N
HETATM    8  C13 UNL     1      18.522  18.754  35.320  1.00  0.00     0.300 A
HETATM    9  O5  UNL     1      19.567  18.456  35.943  1.00  0.00    -0.263 OA
ENDROOT
BRANCH   4  10
HETATM   10  N5  UNL     1      14.972  19.648  33.376  1.00  0.00    -0.254 N
HETATM   11  C5  UNL     1      14.415  19.667  32.120  1.00  0.00     0.270 C
HETATM   12  O3  UNL     1      14.976  19.439  31.045  1.00  0.00    -0.266 OA
ATOM     13  H5  UNL     1      14.279  19.876  34.089  1.00  0.00     0.191 HD
BRANCH  11  14
HETATM   14  C6  UNL     1      12.951  19.992  31.947  1.00  0.00     0.033 A
HETATM   15  C7  UNL     1      12.353  20.961  32.711  1.00  0.00     0.017 A
HETATM   16  C8  UNL     1      10.986  21.241  32.545  1.00  0.00     0.001 A
HETATM   17  C9  UNL     1      10.242  20.542  31.613  1.00  0.00     0.000 A
HETATM   18  C10 UNL     1      10.844  19.568  30.846  1.00  0.00     0.001 A
HETATM   19  C11 UNL     1      12.187  19.316  31.032  1.00  0.00     0.017 A
ENDBRANCH  11  14
ENDBRANCH   4  10
BRANCH   1  20
HETATM   20  N2  UNL     1      19.750  20.331  33.927  1.00  0.00    -0.312 N
HETATM   21  C2  UNL     1      20.648  19.837  32.962  1.00  0.00     0.311 C
HETATM   22  O2  UNL     1      20.415  18.749  32.403  1.00  0.00    -0.262 OA
ATOM     23  H2  UNL     1      19.967  21.225  34.367  1.00  0.00     0.169 HD
BRANCH  21  24
HETATM   24  C1  UNL     1      21.833  20.588  32.621  1.00  0.00     0.322 C
HETATM   25  N1  UNL     1      23.124  20.054  32.889  1.00  0.00    -0.053 NA
HETATM   26  O1  UNL     1      21.803  21.728  32.081  1.00  0.00    -0.266 OA
ENDBRANCH  21  24
ENDBRANCH   1  20
BRANCH   7  27
HETATM   27  N7  UNL     1      17.333  17.201  36.694  1.00  0.00    -0.331 N
ATOM     28  H72 UNL     1      16.437  16.890  37.070  1.00  0.00     0.177 HD
ATOM     29  H71 UNL     1      18.195  16.813  37.080  1.00  0.00     0.177 HD
ENDBRANCH   7  27
TORSDOF 5
ENDMDL