MODEL 4
REMARK VINA RESULT: -7.206501808      4.367      7.893
REMARK  8 active torsions:
REMARK  status: ('A' for Active; 'I' for Inactive)
REMARK    1  A    between atoms: C2_3  and  C3_4
REMARK    2  A    between atoms: N2_5  and  O1_7
REMARK    3  A    between atoms: N3_11  and  C6_12
REMARK    4  A    between atoms: N5_15  and  C7_16
REMARK    5  A    between atoms: C7_16  and  C8_17
REMARK    6  A    between atoms: C10_20  and  N6_21
REMARK    7  A    between atoms: C12_27  and  N8_28
REMARK    8  A    between atoms: N9_31  and  N10_32
ROOT
HETATM    1  C6  UNL     1      18.501  18.094  33.710  1.00  0.00     0.740 A
HETATM    2  N4  UNL     1      19.517  18.779  34.251  1.00  0.00    -0.126 N
ATOM      3  H4  UNL     1      19.516  19.798  34.205  1.00  0.00     0.206 HD
HETATM    4  N5  UNL     1      20.526  18.152  34.848  1.00  0.00    -0.280 N
HETATM    5  C11 UNL     1      20.571  16.809  34.933  1.00  0.00     0.161 A
HETATM    6  C12 UNL     1      19.532  16.069  34.381  1.00  0.00     0.155 A
HETATM    7  N9  UNL     1      18.543  16.751  33.794  1.00  0.00    -0.072 N
ENDROOT
BRANCH   1   8
HETATM    8  N3  UNL     1      17.400  18.739  33.062  1.00  0.00    -0.092 N
HETATM    9  N1  UNL     1      16.227  19.050  33.582  1.00  0.00    -0.275 N
HETATM   10  C1  UNL     1      15.840  18.780  34.952  1.00  0.00     0.179 C
HETATM   11  C2  UNL     1      15.422  19.653  32.687  1.00  0.00     0.070 A
HETATM   12  C4  UNL     1      16.136  19.731  31.512  1.00  0.00     0.052 A
HETATM   13  C5  UNL     1      17.357  19.156  31.777  1.00  0.00     0.138 A
BRANCH  11  14
HETATM   14  C3  UNL     1      14.060  20.134  32.902  1.00  0.00     0.144 C
HETATM   15  N2  UNL     1      13.782  21.388  33.009  1.00  0.00    -0.278 N
ATOM     16  H2  UNL     1      14.540  22.068  32.943  1.00  0.00     0.193 HD
BRANCH  15  17
HETATM   17  O1  UNL     1      12.512  21.840  33.209  1.00  0.00    -0.290 OA
ATOM     18  H1  UNL     1      12.184  22.634  32.804  1.00  0.00     0.244 HD
ENDBRANCH  15  17
ENDBRANCH  11  14
ENDBRANCH   1   8
BRANCH   7  19
HETATM   19  N10 UNL     1      17.467  16.049  33.219  1.00  0.00    -0.322 N
ATOM     20 2H10 UNL     1      17.241  16.197  32.236  1.00  0.00     0.178 HD
ATOM     21 1H10 UNL     1      16.957  15.413  33.832  1.00  0.00     0.178 HD
ENDBRANCH   7  19
BRANCH   4  22
HETATM   22  C7  UNL     1      21.613  18.908  35.427  1.00  0.00     0.206 C
BRANCH  22  23
HETATM   23  C8  UNL     1      22.746  19.058  34.423  1.00  0.00     0.037 A
HETATM   24  C9  UNL     1      22.660  18.412  33.219  1.00  0.00     0.080 A
HETATM   25  S1  UNL     1      24.122  18.871  32.466  1.00  0.00    -0.064 SA
HETATM   26  C10 UNL     1      24.749  19.848  33.716  1.00  0.00     0.142 A
HETATM   27  N7  UNL     1      23.807  19.777  34.654  1.00  0.00    -0.338 N
ATOM     28  H7  UNL     1      23.915  20.275  35.538  1.00  0.00     0.168 HD
BRANCH  26  29
HETATM   29  N6  UNL     1      25.884  20.514  33.754  1.00  0.00    -0.380 N
ATOM     30  H62 UNL     1      26.400  20.830  34.575  1.00  0.00     0.158 HD
ATOM     31  H61 UNL     1      26.461  20.841  32.979  1.00  0.00     0.158 HD
ENDBRANCH  26  29
ENDBRANCH  22  23
ENDBRANCH   4  22
BRANCH   6  32
HETATM   32  N8  UNL     1      19.550  14.766  34.451  1.00  0.00    -0.382 N
ATOM     33  H82 UNL     1      19.128  14.247  35.220  1.00  0.00     0.157 HD
ATOM     34  H81 UNL     1      20.000  14.222  33.714  1.00  0.00     0.157 HD
ENDBRANCH   6  32
TORSDOF 8
ENDMDL