MODEL 2
REMARK VINA RESULT: -8.576222102      1.621      2.377
REMARK  7 active torsions:
REMARK  status: ('A' for Active; 'I' for Inactive)
REMARK    1  A    between atoms: C2_2  and  O1_3
REMARK    2  A    between atoms: C2_2  and  C3_5
REMARK    3  A    between atoms: C3_5  and  O2_6
REMARK    4  A    between atoms: C3_5  and  C4_8
REMARK    5  A    between atoms: C5_9  and  C6_10
REMARK    6  A    between atoms: C9_16  and  O6_17
REMARK    7  A    between atoms: O6_17  and  N1_18
ROOT
HETATM    1  C4  UNL     1      18.781  17.510  33.416  1.00  0.00     0.070 C
HETATM    2  C5  UNL     1      17.676  18.286  34.075  1.00  0.00     0.161 C
HETATM    3  C7  UNL     1      17.537  19.439  33.063  1.00  0.00     0.205 C
HETATM    4  C8  UNL     1      16.716  20.560  33.598  1.00  0.00     0.243 C
HETATM    5  O5  UNL     1      16.010  21.023  32.492  1.00  0.00    -0.332 OA
HETATM    6  C9  UNL     1      15.892  19.945  31.620  1.00  0.00     0.441 C
HETATM    7  O7  UNL     1      16.890  19.054  31.921  1.00  0.00    -0.297 OA
HETATM    8  O8  UNL     1      18.875  19.773  32.882  1.00  0.00    -0.341 OA
HETATM    9  C11 UNL     1      19.537  18.561  32.700  1.00  0.00     0.064 C
HETATM   10  C12 UNL     1      19.513  18.298  31.187  1.00  0.00     0.046 C
HETATM   11  C13 UNL     1      20.967  18.718  33.081  1.00  0.00     0.046 C
ENDROOT
BRANCH   2  12
HETATM   12  C6  UNL     1      18.023  18.926  35.342  1.00  0.00     0.183 C
HETATM   13  O3  UNL     1      17.434  18.572  36.392  1.00  0.00    -0.648 OA
HETATM   14  O4  UNL     1      18.982  19.919  35.455  1.00  0.00    -0.648 OA
ENDBRANCH   2  12
BRANCH   1  15
HETATM   15  C3  UNL     1      19.556  16.602  34.291  1.00  0.00     0.154 C
BRANCH  15  16
HETATM   16  C2  UNL     1      18.728  15.531  34.919  1.00  0.00     0.143 C
HETATM   17  C1  UNL     1      19.452  14.176  34.895  1.00  0.00     0.042 C
BRANCH  16  18
HETATM   18  O1  UNL     1      18.520  15.797  36.285  1.00  0.00    -0.393 OA
ATOM     19  H1  UNL     1      18.122  16.661  36.303  1.00  0.00     0.210 HD
ENDBRANCH  16  18
ENDBRANCH  15  16
BRANCH  15  20
HETATM   20  O2  UNL     1      20.527  15.977  33.505  1.00  0.00    -0.393 OA
ATOM     21  H2  UNL     1      21.091  15.481  34.087  1.00  0.00     0.210 HD
ENDBRANCH  15  20
ENDBRANCH   1  15
BRANCH   6  22
HETATM   22  O6  UNL     1      14.624  19.304  31.828  1.00  0.00    -0.218 OA
BRANCH  22  23
HETATM   23  N1  UNL     1      13.516  20.056  32.054  1.00  0.00    -0.236 N
HETATM   24  C10 UNL     1      12.481  20.016  31.288  1.00  0.00     0.221 C
HETATM   25  N2  UNL     1      11.365  20.829  31.589  1.00  0.00    -0.065 NA
HETATM   26  N3  UNL     1      12.479  19.165  30.164  1.00  0.00    -0.065 NA
ATOM     27  H1  UNL     1      13.504  20.676  32.862  1.00  0.00     0.197 HD
ENDBRANCH  22  23
ENDBRANCH   6  22
TORSDOF 7
ENDMDL