MODEL 3
REMARK VINA RESULT: -9.197730438      3.107      4.503
REMARK  5 active torsions:
REMARK  status: ('A' for Active; 'I' for Inactive)
REMARK    1  A    between atoms: N1_2  and  C2_4
REMARK    2  A    between atoms: N3_7  and  C3_8
REMARK    3  A    between atoms: C4_9  and  N4_10
REMARK    4  A    between atoms: C9_24  and  C10_25
REMARK       I    between atoms: C10_25  and  N8_27
REMARK    5  A    between atoms: N8_27  and  C11_29
ROOT
HETATM    1  C2  UNL     1      17.985  17.570  34.508  1.00  0.00     0.137 A
HETATM    2  N2  UNL     1      19.372  17.609  34.469  1.00  0.00    -0.278 N
ATOM      3  H2  UNL     1      19.967  16.923  34.934  1.00  0.00     0.189 HD
HETATM    4  N3  UNL     1      19.829  18.596  33.789  1.00  0.00    -0.259 N
HETATM    5  C8  UNL     1      18.774  19.283  33.329  1.00  0.00     0.138 A
HETATM    6  C9  UNL     1      17.594  18.660  33.766  1.00  0.00     0.095 A
ENDROOT
BRANCH   4   7
HETATM    7  C3  UNL     1      21.201  18.966  33.538  1.00  0.00     0.129 A
HETATM    8  C4  UNL     1      21.863  18.556  32.408  1.00  0.00     0.219 A
HETATM    9  N5  UNL     1      23.160  18.965  32.254  1.00  0.00    -0.169 N
HETATM   10  C5  UNL     1      23.780  19.735  33.159  1.00  0.00     0.677 A
ATOM     11  H5  UNL     1      23.672  18.675  31.420  1.00  0.00     0.186 HD
HETATM   12  N6  UNL     1      25.011  20.099  32.971  1.00  0.00    -0.234 N
HETATM   13  N7  UNL     1      23.090  20.114  34.254  1.00  0.00    -0.194 N
ATOM     14  H62 UNL     1      25.532  19.813  32.143  1.00  0.00     0.174 HD
ATOM     15  H61 UNL     1      25.483  20.685  33.661  1.00  0.00     0.174 HD
HETATM   16  C6  UNL     1      21.826  19.757  34.475  1.00  0.00     0.055 A
ATOM     17  H7  UNL     1      23.558  20.701  34.944  1.00  0.00     0.184 HD
HETATM   18  C7  UNL     1      21.091  20.175  35.668  1.00  0.00     0.071 C
BRANCH   8  19
HETATM   19  N4  UNL     1      21.242  17.745  31.425  1.00  0.00    -0.095 N
HETATM   20  O1  UNL     1      20.369  18.156  30.643  1.00  0.00    -0.530 OA
HETATM   21  O2  UNL     1      21.618  16.437  31.323  1.00  0.00    -0.530 OA
ENDBRANCH   8  19
ENDBRANCH   4   7
BRANCH   1  22
HETATM   22  N1  UNL     1      17.341  16.688  35.118  1.00  0.00    -0.360 N
HETATM   23  C1  UNL     1      16.492  16.374  36.112  1.00  0.00     0.120 C
ATOM     24  H1  UNL     1      17.559  15.808  34.650  1.00  0.00     0.165 HD
ENDBRANCH   1  22
BRANCH   6  25
HETATM   25  C10 UNL     1      16.265  19.126  33.464  1.00  0.00     0.275 C
HETATM   26  O3  UNL     1      15.339  19.127  34.282  1.00  0.00    -0.267 OA
HETATM   27  N8  UNL     1      15.975  19.615  32.164  1.00  0.00    -0.152 N
ATOM     28  H8  UNL     1      16.744  19.919  31.566  1.00  0.00     0.187 HD
BRANCH  27  29
HETATM   29  C11 UNL     1      14.778  19.686  31.719  1.00  0.00     0.716 A
HETATM   30  N9  UNL     1      13.825  20.555  32.079  1.00  0.00    -0.115 N
HETATM   31  N10 UNL     1      12.754  20.252  31.359  1.00  0.00    -0.213 N
ATOM     32  H9  UNL     1      13.907  21.301  32.770  1.00  0.00     0.207 HD
HETATM   33  N11 UNL     1      13.038  19.232  30.582  1.00  0.00    -0.213 N
ATOM     34  H10 UNL     1      11.855  20.733  31.401  1.00  0.00     0.210 HD
HETATM   35  N12 UNL     1      14.287  18.869  30.792  1.00  0.00    -0.115 N
ATOM     36  H11 UNL     1      12.395  18.793  29.922  1.00  0.00     0.210 HD
ATOM     37  H12 UNL     1      14.782  18.106  30.331  1.00  0.00     0.207 HD
ENDBRANCH  27  29
ENDBRANCH   6  25
TORSDOF 5
ENDMDL