MODEL 1
REMARK VINA RESULT: -8.996419046      0.000      0.000
REMARK  6 active torsions:
REMARK  status: ('A' for Active; 'I' for Inactive)
REMARK    1  A    between atoms: C4_4  and  C5_5
REMARK    2  A    between atoms: C5_5  and  C6_6
REMARK    3  A    between atoms: C9_13  and  N4_14
REMARK       I    between atoms: N4_14  and  C10_16
REMARK       I    between atoms: C10_16  and  N5_17
REMARK       I    between atoms: C10_16  and  N6_21
REMARK    4  A    between atoms: N8_28  and  C12_29
REMARK    5  A    between atoms: C12_29  and  O1_30
REMARK    6  A    between atoms: O1_30  and  C13_31
ROOT
HETATM    1  C13 UNL     1      12.542  19.787  31.330  1.00  0.00     0.444 C
HETATM    2  O2  UNL     1      12.382  19.228  30.185  1.00  0.00    -0.221 OA
HETATM    3  N9  UNL     1      11.548  20.514  31.957  1.00  0.00    -0.370 NA
HETATM    4  C14 UNL     1      10.582  21.220  32.568  1.00  0.00     0.235 C
ENDROOT
BRANCH   1   5
HETATM    5  O1  UNL     1      13.784  19.593  31.864  1.00  0.00    -0.243 OA
BRANCH   5   6
HETATM    6  C12 UNL     1      14.855  20.373  32.144  1.00  0.00     0.265 C
BRANCH   6   7
HETATM    7  N8  UNL     1      15.819  19.863  33.107  1.00  0.00    -0.245 N
HETATM    8  C3  UNL     1      17.162  19.710  33.052  1.00  0.00     0.065 A
HETATM    9  C2  UNL     1      17.922  20.143  32.065  1.00  0.00     0.001 C
HETATM   10  C4  UNL     1      17.552  19.084  34.216  1.00  0.00     0.010 A
HETATM   11  C1  UNL     1      19.366  20.092  31.912  1.00  0.00     0.038 C
HETATM   12  C11 UNL     1      16.371  18.883  34.957  1.00  0.00     0.121 A
HETATM   13  N7  UNL     1      15.364  19.359  34.264  1.00  0.00    -0.303 N
ATOM     14  H7  UNL     1      14.387  19.347  34.560  1.00  0.00     0.186 HD
BRANCH  10  15
HETATM   15  C5  UNL     1      18.741  18.718  34.658  1.00  0.00     0.034 C
BRANCH  15  16
HETATM   16  C6  UNL     1      19.062  17.278  34.693  1.00  0.00     0.053 A
HETATM   17  C7  UNL     1      19.493  16.685  35.899  1.00  0.00     0.146 A
HETATM   18  N1  UNL     1      19.617  17.362  37.134  1.00  0.00    -0.080 NA
HETATM   19  N2  UNL     1      19.717  15.414  35.581  1.00  0.00    -0.281 N
HETATM   20  C8  UNL     1      20.195  14.439  36.568  1.00  0.00     0.179 C
HETATM   21  N3  UNL     1      19.466  15.179  34.322  1.00  0.00    -0.282 N
HETATM   22  C9  UNL     1      19.035  16.361  33.699  1.00  0.00     0.132 A
ATOM     23  H3  UNL     1      19.568  14.275  33.861  1.00  0.00     0.189 HD
BRANCH  22  24
HETATM   24  N4  UNL     1      18.704  16.381  32.486  1.00  0.00    -0.325 N
HETATM   25  C10 UNL     1      19.317  15.975  31.308  1.00  0.00     0.481 C
HETATM   26  N5  UNL     1      19.546  14.571  31.165  1.00  0.00    -0.033 N
HETATM   27  N6  UNL     1      20.510  16.772  31.020  1.00  0.00    -0.033 N
ATOM     28  H53 UNL     1      20.075  14.224  31.965  1.00  0.00     0.278 HD
ATOM     29  H52 UNL     1      18.669  14.065  31.290  1.00  0.00     0.278 HD
ATOM     30  H51 UNL     1      19.996  14.273  30.299  1.00  0.00     0.278 HD
ATOM     31  H63 UNL     1      20.298  17.770  31.005  1.00  0.00     0.278 HD
ATOM     32  H62 UNL     1      21.164  16.761  31.803  1.00  0.00     0.278 HD
ATOM     33  H61 UNL     1      20.960  16.474  30.154  1.00  0.00     0.278 HD
ATOM     34  H4  UNL     1      17.781  16.786  32.334  1.00  0.00     0.165 HD
ENDBRANCH  22  24
ENDBRANCH  15  16
ENDBRANCH  10  15
ENDBRANCH   6   7
ENDBRANCH   5   6
ENDBRANCH   1   5
TORSDOF 5
ENDMDL