MODEL 3
REMARK VINA RESULT: -8.943532902      1.663      2.265
REMARK  7 active torsions:
REMARK  status: ('A' for Active; 'I' for Inactive)
REMARK    1  A    between atoms: N1_3  and  O1_4
REMARK    2  A    between atoms: N1_3  and  C3_6
REMARK    3  A    between atoms: C3_6  and  C6_16
REMARK       I    between atoms: N2_7  and  C4_9
REMARK       I    between atoms: C4_9  and  N3_11
REMARK       I    between atoms: N3_11  and  C5_13
REMARK    4  A    between atoms: C6_16  and  O5_17
REMARK    5  A    between atoms: C6_16  and  C7_19
REMARK    6  A    between atoms: C7_19  and  C8_21
REMARK    7  A    between atoms: C10_26  and  C11_27
ROOT
HETATM    1  C6  UNL     1      15.978  19.180  33.492  1.00  0.00     0.259 C
ENDROOT
BRANCH   1   2
HETATM    2  C3  UNL     1      17.322  18.608  33.247  1.00  0.00     0.149 C
HETATM    3  N2  UNL     1      18.011  18.926  32.223  1.00  0.00    -0.293 N
HETATM    4  C4  UNL     1      19.296  18.457  31.880  1.00  0.00     0.330 C
ATOM      5  H2  UNL     1      17.586  19.593  31.580  1.00  0.00     0.172 HD
HETATM    6  O2  UNL     1      20.320  19.139  32.221  1.00  0.00    -0.246 OA
HETATM    7  N3  UNL     1      19.480  17.237  31.160  1.00  0.00    -0.253 N
HETATM    8  C5  UNL     1      20.777  16.793  30.832  1.00  0.00     0.291 C
ATOM      9  H3  UNL     1      18.669  16.683  30.883  1.00  0.00     0.176 HD
HETATM   10  O3  UNL     1      21.781  17.470  31.172  1.00  0.00    -0.629 OA
HETATM   11  O4  UNL     1      20.949  15.609  30.134  1.00  0.00    -0.629 OA
BRANCH   2  12
HETATM   12  N1  UNL     1      17.844  17.687  34.188  1.00  0.00    -0.225 N
HETATM   13  C2  UNL     1      17.590  16.403  34.084  1.00  0.00     0.093 C
HETATM   14  C1  UNL     1      18.133  15.458  35.065  1.00  0.00     0.057 C
BRANCH  12  15
HETATM   15  O1  UNL     1      18.619  18.122  35.219  1.00  0.00    -0.282 OA
ATOM     16  H1  UNL     1      18.728  19.057  35.348  1.00  0.00     0.245 HD
ENDBRANCH  12  15
ENDBRANCH   2  12
ENDBRANCH   1   2
BRANCH   1  17
HETATM   17  O5  UNL     1      15.943  19.491  34.854  1.00  0.00    -0.380 OA
ATOM     18  H5  UNL     1      16.494  20.259  34.955  1.00  0.00     0.211 HD
ENDBRANCH   1  17
BRANCH   1  19
HETATM   19  C7  UNL     1      15.653  20.369  32.715  1.00  0.00     0.195 C
HETATM   20  O6  UNL     1      16.335  21.383  32.844  1.00  0.00    -0.292 OA
BRANCH  19  21
HETATM   21  C8  UNL     1      14.538  20.426  31.775  1.00  0.00     0.286 C
HETATM   22  C9  UNL     1      14.371  19.178  30.947  1.00  0.00     0.276 C
HETATM   23  N4  UNL     1      12.947  19.060  30.688  1.00  0.00    -0.034 N
HETATM   24  C10 UNL     1      12.337  20.186  31.367  1.00  0.00     0.482 C
ATOM     25  H42 UNL     1      12.713  19.004  29.697  1.00  0.00     0.280 HD
ATOM     26  H41 UNL     1      12.555  18.158  30.957  1.00  0.00     0.280 HD
HETATM   27  N5  UNL     1      13.237  20.477  32.461  1.00  0.00    -0.023 N
ATOM     28  H52 UNL     1      13.147  19.870  33.276  1.00  0.00     0.281 HD
ATOM     29  H51 UNL     1      13.043  21.340  32.970  1.00  0.00     0.281 HD
BRANCH  24  30
HETATM   30  C11 UNL     1      10.987  19.816  31.800  1.00  0.00     0.233 C
HETATM   31  O7  UNL     1      10.301  20.578  32.496  1.00  0.00    -0.645 OA
HETATM   32  O8  UNL     1      10.502  18.561  31.396  1.00  0.00    -0.645 OA
ENDBRANCH  24  30
ENDBRANCH  19  21
ENDBRANCH   1  19
TORSDOF 7
ENDMDL