MODEL 3
REMARK VINA RESULT: -4.769208110      3.252      4.746
REMARK  2 active torsions:
REMARK  status: ('A' for Active; 'I' for Inactive)
REMARK    1  A    between atoms: C2_2  and  N1_4
REMARK    2  A    between atoms: N1_4  and  C3_6
ROOT
HETATM    1  C3  UNL     1      45.095  -1.615  14.929  1.00  0.00     0.118 C
HETATM    2  C4  UNL     1      46.381  -0.971  14.434  1.00  0.00     0.168 C
HETATM    3  S2  UNL     1      46.587  -2.374  13.378  1.00  0.00     0.156 S
HETATM    4  O1  UNL     1      47.151  -2.099  12.035  1.00  0.00    -0.227 OA
HETATM    5  O2  UNL     1      47.017  -3.612  14.053  1.00  0.00    -0.227 OA
HETATM    6  C5  UNL     1      44.830  -2.024  13.516  1.00  0.00     0.078 C
HETATM    7  C6  UNL     1      44.067  -3.280  13.271  1.00  0.00     0.034 C
HETATM    8  C7  UNL     1      44.437  -0.891  12.595  1.00  0.00     0.034 C
ENDROOT
BRANCH   1   9
HETATM    9  N1  UNL     1      44.203  -0.647  15.509  1.00  0.00    -0.377 N
ATOM     10  H1  UNL     1      43.476  -0.249  14.913  1.00  0.00     0.160 HD
BRANCH   9  11
HETATM   11  C2  UNL     1      44.271  -0.215  16.843  1.00  0.00     0.069 C
HETATM   12  C1  UNL     1      43.277   0.746  17.357  1.00  0.00     0.081 C
HETATM   13  S1  UNL     1      45.423  -0.741  17.860  1.00  0.00    -0.066 SA
ENDBRANCH   9  11
ENDBRANCH   1   9
TORSDOF 2
ENDMDL