MODEL 1
REMARK VINA RESULT: -7.330066143      0.000      0.000
REMARK  0 active torsions:
REMARK  status: ('A' for Active; 'I' for Inactive)
REMARK       I    between atoms: C3_3  and  N1_5
ROOT
HETATM    1  C1  UNL     1      42.618   1.203  17.824  1.00  0.00     0.022 C
HETATM    2  C2  UNL     1      43.671   0.617  17.773  1.00  0.00    -0.016 C
HETATM    3  C3  UNL     1      44.947  -0.080  17.733  1.00  0.00     0.297 C
HETATM    4  O1  UNL     1      45.520  -0.371  18.802  1.00  0.00    -0.258 OA
HETATM    5  N1  UNL     1      45.506  -0.410  16.492  1.00  0.00    -0.341 N
HETATM    6  C4  UNL     1      44.876  -0.091  15.224  1.00  0.00     0.129 C
HETATM    7  C5  UNL     1      45.859  -0.476  14.139  1.00  0.00     0.051 C
HETATM    8  C6  UNL     1      46.021  -1.991  14.215  1.00  0.00     0.032 C
HETATM    9  C7  UNL     1      46.991  -2.483  13.157  1.00  0.00     0.031 C
HETATM   10  C8  UNL     1      46.266  -3.312  12.114  1.00  0.00     0.007 C
HETATM   11  C9  UNL     1      45.026  -2.583  11.643  1.00  0.00     0.044 C
HETATM   12  C10 UNL     1      44.107  -2.437  12.821  1.00  0.00     0.056 C
HETATM   13  N2  UNL     1      44.714  -2.567  14.084  1.00  0.00    -0.393 N
ATOM     14  H2  UNL     1      44.253  -3.041  14.860  1.00  0.00     0.159 HD
HETATM   15  C11 UNL     1      46.546  -2.353  15.591  1.00  0.00     0.051 C
HETATM   16  C12 UNL     1      46.773  -1.103  16.440  1.00  0.00     0.129 C
ENDROOT
TORSDOF 0
ENDMDL