MODEL 4
REMARK VINA RESULT: -6.447114459      2.736      5.435
REMARK  1 active torsions:
REMARK  status: ('A' for Active; 'I' for Inactive)
REMARK       I    between atoms: N1_2  and  C3_4
REMARK    1  A    between atoms: N3_6  and  N4_8
ROOT
HETATM    1  N4  UNL     1      45.035  -3.324  12.565  1.00  0.00    -0.319 N
HETATM    2  C4  UNL     1      45.084  -2.616  13.634  1.00  0.00     0.119 A
HETATM    3  C5  UNL     1      45.404  -1.562  14.597  1.00  0.00    -0.015 A
HETATM    4  C6  UNL     1      44.271  -0.733  15.163  1.00  0.00     0.018 C
HETATM    5  C7  UNL     1      46.445  -1.929  15.635  1.00  0.00     0.018 C
HETATM    6  C8  UNL     1      45.792  -1.280  13.251  1.00  0.00    -0.011 A
HETATM    7  C9  UNL     1      44.821  -0.453  12.374  1.00  0.00     0.018 C
HETATM    8  C10 UNL     1      46.883  -1.900  12.424  1.00  0.00     0.033 C
HETATM    9  C11 UNL     1      45.932  -2.769  11.531  1.00  0.00     0.144 C
ENDROOT
BRANCH   1  10
HETATM   10  N3  UNL     1      44.346  -4.481  12.345  1.00  0.00    -0.275 N
HETATM   11  C3  UNL     1      44.668  -5.662  12.663  1.00  0.00     0.204 C
HETATM   12  N1  UNL     1      43.730  -6.695  12.296  1.00  0.00    -0.363 N
HETATM   13  N2  UNL     1      45.867  -6.001  13.340  1.00  0.00    -0.062 NA
HETATM   14  C1  UNL     1      42.322  -6.430  12.173  1.00  0.00     0.152 C
HETATM   15  C2  UNL     1      44.238  -8.008  12.055  1.00  0.00     0.152 C
ATOM     16  H3  UNL     1      43.453  -4.381  11.862  1.00  0.00     0.189 HD
ENDBRANCH   1  10
TORSDOF 1
ENDMDL