MODEL 5
REMARK VINA RESULT: -6.707519796      1.497      1.861
REMARK  3 active torsions:
REMARK  status: ('A' for Active; 'I' for Inactive)
REMARK    1  A    between atoms: O1_1  and  C1_3
REMARK    2  A    between atoms: C1_3  and  N1_4
REMARK    3  A    between atoms: C1_3  and  N2_9
ROOT
HETATM    1  N2  UNL     1      45.573  -1.328  15.251  1.00  0.00    -0.347 N
HETATM    2  C6  UNL     1      44.512  -0.865  14.355  1.00  0.00     0.128 C
HETATM    3  C7  UNL     1      44.886  -0.661  12.942  1.00  0.00     0.039 C
HETATM    4  C8  UNL     1      44.789  -1.824  12.038  1.00  0.00     0.115 C
HETATM    5  N3  UNL     1      44.384  -3.045  12.702  1.00  0.00    -0.421 N
ATOM      6  H3  UNL     1      43.483  -3.486  12.516  1.00  0.00     0.153 HD
HETATM    7  C9  UNL     1      45.307  -3.594  13.622  1.00  0.00     0.115 C
HETATM    8  C10 UNL     1      46.618  -2.928  13.767  1.00  0.00     0.039 C
HETATM    9  C11 UNL     1      46.745  -2.141  15.108  1.00  0.00     0.128 C
ENDROOT
BRANCH   1  10
HETATM   10  C1  UNL     1      45.310  -0.841  16.538  1.00  0.00     0.217 C
BRANCH  10  11
HETATM   11  O1  UNL     1      44.039  -0.691  16.869  1.00  0.00    -0.333 OA
ATOM     12  H1  UNL     1      43.498  -0.456  16.124  1.00  0.00     0.220 HD
ENDBRANCH  10  11
BRANCH  10  13
HETATM   13  N1  UNL     1      46.170  -0.472  17.569  1.00  0.00    -0.348 N
HETATM   14  C2  UNL     1      47.128   0.568  17.682  1.00  0.00     0.126 C
HETATM   15  C3  UNL     1      47.427   0.769  19.178  1.00  0.00     0.021 C
HETATM   16  C4  UNL     1      47.330  -0.685  19.645  1.00  0.00     0.021 C
HETATM   17  C5  UNL     1      46.199  -1.242  18.850  1.00  0.00     0.126 C
ENDBRANCH  10  13
ENDBRANCH   1  10
TORSDOF 3
ENDMDL