MODEL 1
REMARK VINA RESULT: -6.319577361      0.000      0.000
REMARK  3 active torsions:
REMARK  status: ('A' for Active; 'I' for Inactive)
REMARK    1  A    between atoms: N2_5  and  C4_6
REMARK    2  A    between atoms: C4_6  and  N3_8
REMARK    3  A    between atoms: N3_8  and  C5_10
ROOT
HETATM    1  C4  UNL     1      44.643  -1.631  13.720  1.00  0.00     0.170 C
HETATM    2  S1  UNL     1      44.514  -0.715  12.383  1.00  0.00    -0.041 SA
ENDROOT
BRANCH   1   3
HETATM    3  N2  UNL     1      45.112  -1.128  14.958  1.00  0.00    -0.355 N
HETATM    4  C3  UNL     1      46.284  -1.684  15.600  1.00  0.00     0.155 C
HETATM    5  C2  UNL     1      46.614  -1.051  16.898  1.00  0.00     0.291 C
HETATM    6  N1  UNL     1      45.518  -0.740  17.744  1.00  0.00     0.087 N
HETATM    7  C1  UNL     1      45.772   0.255  18.731  1.00  0.00     0.310 C
HETATM    8  C10 UNL     1      44.263  -0.536  17.089  1.00  0.00     0.291 C
HETATM    9  C9  UNL     1      44.478  -0.040  15.676  1.00  0.00     0.155 C
ENDBRANCH   1   3
BRANCH   1  10
HETATM   10  N3  UNL     1      44.266  -2.998  13.642  1.00  0.00    -0.359 N
ATOM     11  H3  UNL     1      43.408  -3.302  14.102  1.00  0.00     0.162 HD
BRANCH  10  12
HETATM   12  C5  UNL     1      45.059  -3.971  12.930  1.00  0.00     0.021 C
HETATM   13  C6  UNL     1      44.129  -5.004  12.327  1.00  0.00     0.037 C
HETATM   14  C7  UNL     1      46.036  -4.586  13.888  1.00  0.00     0.037 C
HETATM   15  C8  UNL     1      45.833  -3.346  11.791  1.00  0.00     0.037 C
ENDBRANCH  10  12
ENDBRANCH   1  10
TORSDOF 3
ENDMDL