MODEL 3
REMARK VINA RESULT: -5.839374270      1.045      1.105
REMARK  1 active torsions:
REMARK  status: ('A' for Active; 'I' for Inactive)
REMARK       I    between atoms: N2_5  and  C4_6
REMARK       I    between atoms: C4_6  and  N3_8
REMARK       I    between atoms: N3_8  and  C5_10
REMARK    1  A    between atoms: C5_10  and  C6_12
ROOT
HETATM    1  C1  UNL     1      47.775   1.411  20.403  1.00  0.00     0.143 C
HETATM    2  N1  UNL     1      46.949   0.637  19.540  1.00  0.00    -0.414 N
HETATM    3  C2  UNL     1      47.405  -0.668  19.242  1.00  0.00     0.136 C
HETATM    4  C3  UNL     1      47.226  -1.142  17.850  1.00  0.00     0.147 C
HETATM    5  N2  UNL     1      46.107  -0.583  17.161  1.00  0.00    -0.331 N
HETATM    6  C4  UNL     1      45.768  -1.075  15.866  1.00  0.00     0.325 C
HETATM    7  O1  UNL     1      44.790  -0.557  15.313  1.00  0.00    -0.247 OA
HETATM    8  N3  UNL     1      46.516  -2.095  15.263  1.00  0.00    -0.279 N
ATOM      9  H3  UNL     1      47.296  -2.434  15.825  1.00  0.00     0.173 HD
HETATM   10  C5  UNL     1      46.379  -2.729  14.028  1.00  0.00     0.233 C
HETATM   11  O2  UNL     1      47.255  -3.649  13.769  1.00  0.00    -0.272 OA
HETATM   12  C10 UNL     1      45.346   0.453  17.764  1.00  0.00     0.147 C
HETATM   13  C11 UNL     1      46.288   1.354  18.519  1.00  0.00     0.136 C
ENDROOT
BRANCH  10  14
HETATM   14  C6  UNL     1      45.390  -2.515  12.962  1.00  0.00     0.030 C
HETATM   15  C7  UNL     1      45.873  -3.214  11.672  1.00  0.00     0.025 C
HETATM   16  C8  UNL     1      44.078  -3.162  13.341  1.00  0.00     0.025 C
HETATM   17  C9  UNL     1      45.156  -1.085  12.600  1.00  0.00     0.025 C
ENDBRANCH  10  14
TORSDOF 1
ENDMDL