MODEL 5
REMARK VINA RESULT: -5.195833613      2.376      5.661
REMARK  2 active torsions:
REMARK  status: ('A' for Active; 'I' for Inactive)
REMARK    1  A    between atoms: N1_2  and  C2_4
REMARK    2  A    between atoms: C2_4  and  N2_6
ROOT
HETATM    1  N2  UNL     1      46.136  -0.992  16.430  1.00  0.00    -0.357 N
HETATM    2  C3  UNL     1      45.266  -0.031  15.785  1.00  0.00     0.126 C
HETATM    3  C4  UNL     1      45.741  -0.164  14.331  1.00  0.00     0.033 C
HETATM    4  C5  UNL     1      45.744  -1.667  14.194  1.00  0.00     0.005 C
HETATM    5  C6  UNL     1      44.385  -2.205  13.834  1.00  0.00     0.043 C
HETATM    6  C7  UNL     1      44.389  -2.080  12.324  1.00  0.00     0.272 C
HETATM    7  N3  UNL     1      45.709  -2.503  11.970  1.00  0.00     0.085 N
HETATM    8  C8  UNL     1      45.711  -3.930  11.733  1.00  0.00     0.309 C
HETATM    9  C9  UNL     1      46.598  -2.145  13.057  1.00  0.00     0.283 C
HETATM   10  C10 UNL     1      46.227  -2.130  15.542  1.00  0.00     0.136 C
ENDROOT
BRANCH   1  11
HETATM   11  C2  UNL     1      46.758  -0.791  17.703  1.00  0.00     0.169 C
HETATM   12  S1  UNL     1      45.844  -0.657  19.064  1.00  0.00    -0.041 SA
BRANCH  11  13
HETATM   13  N1  UNL     1      48.159  -0.700  17.849  1.00  0.00    -0.371 N
HETATM   14  C1  UNL     1      48.750   0.372  18.598  1.00  0.00     0.148 C
ATOM     15  H1  UNL     1      48.758  -1.405  17.419  1.00  0.00     0.161 HD
ENDBRANCH  11  13
ENDBRANCH   1  11
TORSDOF 2
ENDMDL