MODEL 1
REMARK VINA RESULT: -5.573838651      0.000      0.000
REMARK  1 active torsions:
REMARK  status: ('A' for Active; 'I' for Inactive)
REMARK       I    between atoms: C2_2  and  N1_4
REMARK    1  A    between atoms: N3_10  and  C7_12
ROOT
HETATM    1  C1  UNL     1      48.133   0.758  20.390  1.00  0.00     0.119 C
HETATM    2  C2  UNL     1      47.750   0.127  19.127  1.00  0.00     0.234 C
HETATM    3  O1  UNL     1      48.327  -0.912  18.737  1.00  0.00    -0.272 OA
HETATM    4  N1  UNL     1      46.723   0.681  18.328  1.00  0.00    -0.246 N
HETATM    5  C3  UNL     1      46.059   1.866  18.770  1.00  0.00     0.173 C
HETATM    6  C4  UNL     1      44.565   1.804  18.618  1.00  0.00     0.162 C
HETATM    7  N2  UNL     1      44.127   0.888  17.626  1.00  0.00    -0.219 N
HETATM    8  C5  UNL     1      42.694   0.637  17.515  1.00  0.00     0.168 C
HETATM    9  C6  UNL     1      44.999   0.178  16.708  1.00  0.00     0.691 C
HETATM   10  N3  UNL     1      44.525  -0.308  15.641  1.00  0.00    -0.217 N
ATOM     11  H3  UNL     1      43.528  -0.175  15.471  1.00  0.00     0.178 HD
HETATM   12  N4  UNL     1      46.355   0.086  17.104  1.00  0.00    -0.128 N
ATOM     13  H4  UNL     1      47.042  -0.395  16.524  1.00  0.00     0.206 HD
ENDROOT
BRANCH  10  14
HETATM   14  C7  UNL     1      45.256  -1.021  14.663  1.00  0.00     0.036 C
HETATM   15  C8  UNL     1      45.914  -0.015  13.698  1.00  0.00     0.038 C
HETATM   16  C9  UNL     1      44.297  -1.836  13.837  1.00  0.00     0.038 C
HETATM   17  C10 UNL     1      46.375  -1.874  15.219  1.00  0.00     0.038 C
ENDBRANCH  10  14
TORSDOF 1
ENDMDL