MODEL 4
REMARK VINA RESULT: -5.261144070      1.645      1.888
REMARK  2 active torsions:
REMARK  status: ('A' for Active; 'I' for Inactive)
REMARK    1  A    between atoms: C2_2  and  C4_4
REMARK    2  A    between atoms: C5_5  and  C6_6
ROOT
HETATM    1  C6  UNL     1      46.706  -2.775  13.740  1.00  0.00     0.174 C
HETATM    2  C7  UNL     1      48.192  -3.052  13.797  1.00  0.00     0.064 C
HETATM    3  N1  UNL     1      46.377  -1.860  12.674  1.00  0.00    -0.339 N
ATOM      4  H1  UNL     1      46.781  -1.872  11.737  1.00  0.00     0.164 HD
HETATM    5  C8  UNL     1      45.408  -0.945  13.136  1.00  0.00     0.177 C
HETATM    6  S1  UNL     1      44.507   0.124  12.259  1.00  0.00    -0.041 SA
HETATM    7  N2  UNL     1      45.303  -1.078  14.557  1.00  0.00    -0.296 N
HETATM    8  C9  UNL     1      44.406  -0.300  15.399  1.00  0.00     0.162 C
HETATM    9  C10 UNL     1      46.219  -2.083  14.955  1.00  0.00     0.266 C
HETATM   10  O1  UNL     1      46.571  -2.353  16.122  1.00  0.00    -0.269 OA
ENDROOT
BRANCH   1  11
HETATM   11  C5  UNL     1      45.951  -4.040  13.604  1.00  0.00    -0.065 C
HETATM   12  C4  UNL     1      45.324  -5.065  13.478  1.00  0.00    -0.099 C
BRANCH  12  13
HETATM   13  C2  UNL     1      44.537  -6.302  13.319  1.00  0.00     0.057 C
HETATM   14  C1  UNL     1      45.440  -7.404  12.894  1.00  0.00     0.023 C
HETATM   15  C3  UNL     1      43.439  -6.003  12.334  1.00  0.00     0.023 C
ENDBRANCH  12  13
ENDBRANCH   1  11
TORSDOF 2
ENDMDL