MODEL 1
REMARK VINA RESULT: -4.476753255      0.000      0.000
REMARK  1 active torsions:
REMARK  status: ('A' for Active; 'I' for Inactive)
REMARK    1  A    between atoms: C2_2  and  C3_3
REMARK       I    between atoms: N3_13  and  C10_14
ROOT
HETATM    1  C3  UNL     1      51.054  -0.476  20.349  1.00  0.00     0.107 C
HETATM    2  C4  UNL     1      49.915  -0.410  19.392  1.00  0.00     0.051 C
HETATM    3  C5  UNL     1      48.671   0.252  19.842  1.00  0.00     0.025 C
HETATM    4  C6  UNL     1      48.605   0.762  21.231  1.00  0.00     0.134 C
HETATM    5  N1  UNL     1      49.829   0.728  21.965  1.00  0.00    -0.352 N
ATOM      6  H1  UNL     1      49.843   0.752  22.984  1.00  0.00     0.174 HD
HETATM    7  N2  UNL     1      50.977   0.664  21.237  1.00  0.00    -0.207 NA
HETATM    8  C7  UNL     1      52.101   0.765  22.124  1.00  0.00     0.118 C
HETATM    9  C8  UNL     1      52.467  -0.514  22.791  1.00  0.00     0.036 C
HETATM   10  C9  UNL     1      52.397  -1.744  21.965  1.00  0.00     0.129 C
HETATM   11  N3  UNL     1      51.147  -1.657  21.164  1.00  0.00    -0.329 N
HETATM   12  C10 UNL     1      50.244  -2.704  21.298  1.00  0.00     0.217 C
HETATM   13  C11 UNL     1      50.549  -3.834  22.202  1.00  0.00     0.117 C
HETATM   14  O1  UNL     1      49.172  -2.751  20.693  1.00  0.00    -0.274 OA
ENDROOT
BRANCH   1  15
HETATM   15  C2  UNL     1      52.350  -0.409  19.553  1.00  0.00     0.045 C
HETATM   16  C1  UNL     1      52.450   0.882  18.761  1.00  0.00     0.009 C
ENDBRANCH   1  15
TORSDOF 1
ENDMDL