MODEL 4
REMARK VINA RESULT: -7.304320952      6.028      8.064
REMARK  8 active torsions:
REMARK  status: ('A' for Active; 'I' for Inactive)
REMARK    1  A    between atoms: C2_2  and  C3_3
REMARK    2  A    between atoms: C3_3  and  C4_4
REMARK    3  A    between atoms: C4_4  and  C5_5
REMARK    4  A    between atoms: C5_5  and  O1_6
REMARK    5  A    between atoms: O1_6  and  C6_7
REMARK    6  A    between atoms: C6_7  and  C7_9
REMARK    7  A    between atoms: C16_18  and  O3_19
REMARK    8  A    between atoms: C22_26  and  O4_27
ROOT
HETATM    1  C7  UNL     1      13.403  22.865  38.581  1.00  0.00     0.092 C
HETATM    2  C8  UNL     1      14.026  22.503  37.229  1.00  0.00     0.016 C
HETATM    3  C9  UNL     1      13.945  20.993  37.202  1.00  0.00     0.013 C
HETATM    4  C10 UNL     1      12.504  20.562  37.113  1.00  0.00    -0.008 C
HETATM    5  C11 UNL     1      12.203  20.211  35.677  1.00  0.00     0.019 C
HETATM    6  C12 UNL     1      12.179  19.559  38.154  1.00  0.00     0.009 C
HETATM    7  C13 UNL     1      11.945  18.151  37.788  1.00  0.00     0.002 C
HETATM    8  C14 UNL     1      13.058  17.203  38.189  1.00  0.00     0.008 C
HETATM    9  C15 UNL     1      12.357  15.855  38.255  1.00  0.00     0.033 C
HETATM   10  C16 UNL     1      10.866  16.159  38.273  1.00  0.00     0.126 C
HETATM   11  C17 UNL     1      10.821  17.595  38.674  1.00  0.00    -0.014 C
HETATM   12  C18 UNL     1      11.240  17.658  40.149  1.00  0.00     0.018 C
HETATM   13  C19 UNL     1       9.532  18.283  38.450  1.00  0.00     0.012 C
HETATM   14  C20 UNL     1       9.671  19.731  38.041  1.00  0.00     0.009 C
HETATM   15  C21 UNL     1      10.955  20.343  38.522  1.00  0.00     0.026 C
HETATM   16  C22 UNL     1      11.500  21.484  37.665  1.00  0.00     0.073 C
HETATM   17  C23 UNL     1      11.923  22.657  38.430  1.00  0.00     0.031 C
HETATM   18  C24 UNL     1      11.340  22.716  39.852  1.00  0.00     0.014 C
ENDROOT
BRANCH   1  19
HETATM   19  C6  UNL     1      13.723  24.262  38.968  1.00  0.00     0.263 C
HETATM   20  O2  UNL     1      13.090  25.228  38.462  1.00  0.00    -0.265 OA
BRANCH  19  21
HETATM   21  O1  UNL     1      14.715  24.570  39.887  1.00  0.00    -0.321 OA
BRANCH  21  22
HETATM   22  C5  UNL     1      15.411  25.797  39.772  1.00  0.00     0.178 C
BRANCH  22  23
HETATM   23  C4  UNL     1      16.604  25.850  40.698  1.00  0.00     0.027 C
BRANCH  23  24
HETATM   24  C3  UNL     1      17.899  26.084  39.963  1.00  0.00     0.002 C
BRANCH  24  25
HETATM   25  C2  UNL     1      18.964  25.096  40.337  1.00  0.00    -0.004 C
HETATM   26  C1  UNL     1      20.017  24.959  39.242  1.00  0.00     0.005 C
ENDBRANCH  24  25
ENDBRANCH  23  24
ENDBRANCH  22  23
ENDBRANCH  21  22
ENDBRANCH  19  21
ENDBRANCH   1  19
BRANCH  16  27
HETATM   27  O4  UNL     1      10.477  21.832  36.747  1.00  0.00    -0.388 OA
ATOM     28  H4  UNL     1      10.798  22.248  35.956  1.00  0.00     0.210 HD
ENDBRANCH  16  27
BRANCH  10  29
HETATM   29  O3  UNL     1      10.372  15.900  37.011  1.00  0.00    -0.395 OA
ATOM     30  H3  UNL     1      10.581  14.998  36.799  1.00  0.00     0.210 HD
ENDBRANCH  10  29
TORSDOF 8
ENDMDL