MODEL 5
REMARK VINA RESULT: -8.267140335      4.188      9.688
REMARK  7 active torsions:
REMARK  status: ('A' for Active; 'I' for Inactive)
REMARK    1  A    between atoms: C11_11  and  C12_12
REMARK    2  A    between atoms: C14_14  and  O1_15
REMARK    3  A    between atoms: N1_17  and  C15_18
REMARK    4  A    between atoms: C15_18  and  C16_19
REMARK    5  A    between atoms: C16_19  and  C17_20
REMARK    6  A    between atoms: C17_20  and  N2_21
REMARK    7  A    between atoms: C23_27  and  O2_28
ROOT
HETATM    1  C12 UNL     1      21.444  25.684  39.387  1.00  0.00     0.006 A
HETATM    2  C13 UNL     1      21.371  27.015  39.682  1.00  0.00     0.068 A
HETATM    3  C14 UNL     1      20.100  27.230  40.172  1.00  0.00     0.144 A
HETATM    4  N1  UNL     1      19.409  26.080  40.183  1.00  0.00    -0.308 N
HETATM    5  C23 UNL     1      20.221  25.128  39.705  1.00  0.00     0.151 A
ENDROOT
BRANCH   1   6
HETATM    6  C11 UNL     1      22.595  24.941  38.834  1.00  0.00    -0.003 A
HETATM    7  C6  UNL     1      22.689  23.520  39.349  1.00  0.00     0.008 A
HETATM    8  C5  UNL     1      22.658  22.609  38.158  1.00  0.00     0.015 C
HETATM    9  C7  UNL     1      24.029  23.831  39.892  1.00  0.00    -0.035 A
HETATM   10  C4  UNL     1      23.067  23.470  36.981  1.00  0.00     0.010 C
HETATM   11  C3  UNL     1      24.548  23.400  36.875  1.00  0.00    -0.020 C
HETATM   12  C24 UNL     1      22.716  24.895  37.351  1.00  0.00     0.023 C
HETATM   13  C2  UNL     1      25.394  23.222  37.880  1.00  0.00    -0.086 C
HETATM   14  C1  UNL     1      26.821  23.196  37.457  1.00  0.00     0.043 C
HETATM   15  C9  UNL     1      25.165  23.045  39.316  1.00  0.00     0.043 C
HETATM   16  C8  UNL     1      24.041  23.714  41.411  1.00  0.00     0.016 C
HETATM   17  C10 UNL     1      23.919  25.267  39.497  1.00  0.00     0.024 A
ENDBRANCH   1   6
BRANCH   5  18
HETATM   18  O2  UNL     1      19.877  23.803  39.558  1.00  0.00    -0.345 OA
ATOM     19  H2  UNL     1      19.669  23.371  38.738  1.00  0.00     0.219 HD
ENDBRANCH   5  18
BRANCH   3  20
HETATM   20  O1  UNL     1      19.576  28.440  40.600  1.00  0.00    -0.346 OA
ATOM     21  H1  UNL     1      18.904  28.562  41.260  1.00  0.00     0.219 HD
ENDBRANCH   3  20
BRANCH   4  22
HETATM   22  C15 UNL     1      18.048  25.894  40.631  1.00  0.00     0.135 C
BRANCH  22  23
HETATM   23  C16 UNL     1      17.070  26.355  39.567  1.00  0.00     0.050 C
BRANCH  23  24
HETATM   24  C17 UNL     1      15.645  26.218  40.009  1.00  0.00     0.274 C
BRANCH  24  25
HETATM   25  N2  UNL     1      15.488  26.713  41.350  1.00  0.00     0.088 N
HETATM   26  C18 UNL     1      14.272  26.228  41.971  1.00  0.00     0.272 C
HETATM   27  C19 UNL     1      13.019  26.898  41.465  1.00  0.00     0.030 C
HETATM   28  C20 UNL     1      13.150  28.405  41.459  1.00  0.00     0.003 C
HETATM   29  C21 UNL     1      14.440  28.794  42.156  1.00  0.00     0.030 C
HETATM   30  C22 UNL     1      15.637  28.138  41.493  1.00  0.00     0.272 C
ENDBRANCH  24  25
ENDBRANCH  23  24
ENDBRANCH  22  23
ENDBRANCH   4  22
TORSDOF 7
ENDMDL