MODEL 3
REMARK VINA RESULT: -7.323853322     13.510     17.356
REMARK  7 active torsions:
REMARK  status: ('A' for Active; 'I' for Inactive)
REMARK    1  A    between atoms: C2_2  and  C19_19
REMARK    2  A    between atoms: C3_3  and  C4_4
REMARK    3  A    between atoms: C4_4  and  C5_5
REMARK    4  A    between atoms: C5_5  and  C6_6
REMARK    5  A    between atoms: C19_19  and  C20_20
REMARK    6  A    between atoms: C23_25  and  O3_26
REMARK    7  A    between atoms: C24_28  and  O4_29
ROOT
HETATM    1  C1  UNL     1      26.140  21.144  35.533  1.00  0.00     0.043 C
HETATM    2  C2  UNL     1      26.343  22.639  35.407  1.00  0.00    -0.085 C
HETATM    3  C3  UNL     1      26.438  23.142  34.188  1.00  0.00    -0.024 C
ENDROOT
BRANCH   3   4
HETATM    4  C4  UNL     1      26.635  24.556  33.838  1.00  0.00     0.031 C
BRANCH   4   5
HETATM    5  C5  UNL     1      27.493  24.857  32.679  1.00  0.00     0.038 C
BRANCH   5   6
HETATM    6  C6  UNL     1      27.844  23.838  31.716  1.00  0.00    -0.075 C
HETATM    7  C7  UNL     1      28.699  22.898  32.046  1.00  0.00    -0.022 C
HETATM    8  C8  UNL     1      29.363  21.693  31.461  1.00  0.00     0.040 C
HETATM    9  C9  UNL     1      28.442  20.530  31.272  1.00  0.00    -0.022 C
HETATM   10  C10 UNL     1      27.992  19.925  32.580  1.00  0.00     0.020 C
HETATM   11  C11 UNL     1      29.270  19.446  30.566  1.00  0.00     0.020 C
HETATM   12  C12 UNL     1      27.296  20.809  30.394  1.00  0.00    -0.079 C
HETATM   13  C13 UNL     1      26.348  19.676  30.335  1.00  0.00     0.044 C
HETATM   14  C14 UNL     1      26.907  21.819  29.647  1.00  0.00    -0.023 C
HETATM   15  C15 UNL     1      27.438  23.179  29.326  1.00  0.00     0.040 C
HETATM   16  C16 UNL     1      27.088  24.094  30.436  1.00  0.00    -0.021 C
HETATM   17  C17 UNL     1      25.583  23.962  30.697  1.00  0.00     0.020 C
HETATM   18  C18 UNL     1      27.367  25.518  30.005  1.00  0.00     0.020 C
ENDBRANCH   5   6
ENDBRANCH   4   5
ENDBRANCH   3   4
BRANCH   2  19
HETATM   19  C19 UNL     1      26.433  23.444  36.636  1.00  0.00     0.068 C
BRANCH  19  20
HETATM   20  C20 UNL     1      25.540  22.795  37.708  1.00  0.00     0.167 C
HETATM   21  O1  UNL     1      24.196  23.112  37.508  1.00  0.00    -0.313 OA
HETATM   22  C21 UNL     1      23.286  23.208  38.527  1.00  0.00     0.261 C
HETATM   23  O2  UNL     1      22.073  22.893  38.280  1.00  0.00    -0.265 OA
HETATM   24  C22 UNL     1      23.743  23.666  39.846  1.00  0.00     0.145 C
HETATM   25  C23 UNL     1      25.046  23.020  40.161  1.00  0.00     0.158 C
HETATM   26  C24 UNL     1      26.053  23.054  39.079  1.00  0.00     0.177 C
BRANCH  25  27
HETATM   27  O3  UNL     1      25.574  23.637  41.306  1.00  0.00    -0.392 OA
ATOM     28  H3  UNL     1      24.854  24.012  41.798  1.00  0.00     0.210 HD
ENDBRANCH  25  27
BRANCH  26  29
HETATM   29  O4  UNL     1      27.064  22.116  39.396  1.00  0.00    -0.390 OA
ATOM     30  H4  UNL     1      27.918  22.498  39.237  1.00  0.00     0.210 HD
ENDBRANCH  26  29
ENDBRANCH  19  20
ENDBRANCH   2  19
TORSDOF 7
ENDMDL