MODEL 5
REMARK VINA RESULT: -8.059443096      2.465      3.764
REMARK  8 active torsions:
REMARK  status: ('A' for Active; 'I' for Inactive)
REMARK    1  A    between atoms: C2_2  and  O1_5
REMARK    2  A    between atoms: O1_5  and  C5_6
REMARK       I    between atoms: C5_6  and  N1_8
REMARK    3  A    between atoms: N1_8  and  C6_10
REMARK    4  A    between atoms: C6_10  and  C7_11
REMARK    5  A    between atoms: C7_11  and  C8_12
REMARK    6  A    between atoms: C8_12  and  C9_13
REMARK    7  A    between atoms: C9_13  and  C10_14
REMARK    8  A    between atoms: C12_16  and  C13_17
ROOT
HETATM    1  C10 UNL     1      28.349  19.700  32.340  1.00  0.00    -0.038 C
HETATM    2  C11 UNL     1      29.220  20.059  31.189  1.00  0.00     0.025 C
HETATM    3  C12 UNL     1      28.867  19.447  29.878  1.00  0.00     0.088 C
HETATM    4  C14 UNL     1      28.074  18.171  29.950  1.00  0.00     0.020 C
HETATM    5  C15 UNL     1      26.945  18.167  30.907  1.00  0.00    -0.002 C
HETATM    6  C16 UNL     1      26.989  19.429  31.765  1.00  0.00     0.015 C
HETATM    7  C17 UNL     1      26.694  16.975  31.720  1.00  0.00     0.060 C
HETATM    8  C18 UNL     1      27.675  15.869  31.726  1.00  0.00     0.013 C
HETATM    9  C19 UNL     1      28.706  16.185  32.794  1.00  0.00     0.013 C
HETATM   10  C20 UNL     1      28.160  17.431  33.507  1.00  0.00     0.056 C
HETATM   11  C21 UNL     1      28.935  18.620  33.168  1.00  0.00     0.021 C
HETATM   12  C22 UNL     1      26.740  17.371  33.182  1.00  0.00     0.135 C
HETATM   13  O5  UNL     1      25.804  17.593  33.936  1.00  0.00    -0.297 OA
ENDROOT
BRANCH   1  14
HETATM   14  C9  UNL     1      28.173  20.922  33.212  1.00  0.00     0.010 C
BRANCH  14  15
HETATM   15  C8  UNL     1      26.911  21.676  33.014  1.00  0.00     0.002 C
BRANCH  15  16
HETATM   16  C7  UNL     1      26.839  22.687  34.174  1.00  0.00     0.020 C
BRANCH  16  17
HETATM   17  C6  UNL     1      26.253  22.067  35.396  1.00  0.00     0.125 C
BRANCH  17  18
HETATM   18  N1  UNL     1      25.270  22.949  35.972  1.00  0.00    -0.337 N
HETATM   19  C5  UNL     1      25.264  23.438  37.289  1.00  0.00     0.361 C
HETATM   20  O2  UNL     1      26.135  23.168  38.153  1.00  0.00    -0.238 OA
ATOM     21  H1  UNL     1      24.505  23.246  35.366  1.00  0.00     0.164 HD
BRANCH  19  22
HETATM   22  O1  UNL     1      24.249  24.298  37.755  1.00  0.00    -0.294 OA
BRANCH  22  23
HETATM   23  C2  UNL     1      23.263  23.879  38.649  1.00  0.00     0.061 C
HETATM   24  C1  UNL     1      23.787  23.466  39.991  1.00  0.00     0.046 C
HETATM   25  C3  UNL     1      22.328  25.062  38.874  1.00  0.00     0.046 C
HETATM   26  C4  UNL     1      22.411  22.755  38.110  1.00  0.00     0.046 C
ENDBRANCH  22  23
ENDBRANCH  19  22
ENDBRANCH  17  18
ENDBRANCH  16  17
ENDBRANCH  15  16
ENDBRANCH  14  15
ENDBRANCH   1  14
BRANCH   3  27
HETATM   27  C13 UNL     1      30.102  19.287  29.066  1.00  0.00     0.177 C
HETATM   28  O3  UNL     1      30.730  20.295  28.700  1.00  0.00    -0.648 OA
HETATM   29  O4  UNL     1      30.594  18.040  28.693  1.00  0.00    -0.648 OA
ENDBRANCH   3  27
TORSDOF 8
ENDMDL