MODEL 4
REMARK VINA RESULT: -5.810857163      2.834      6.281
REMARK  7 active torsions:
REMARK  status: ('A' for Active; 'I' for Inactive)
REMARK    1  A    between atoms: C2_2  and  O1_3
REMARK    2  A    between atoms: C2_2  and  C22_26
REMARK    3  A    between atoms: O1_3  and  C3_4
REMARK    4  A    between atoms: C3_4  and  C5_6
REMARK    5  A    between atoms: C3_4  and  C16_19
REMARK    6  A    between atoms: C5_6  and  C6_7
REMARK    7  A    between atoms: C6_7  and  O2_8
ROOT
HETATM    1  C16 UNL     1      12.824  18.622  39.432  1.00  0.00     0.080 C
HETATM    2  C17 UNL     1      12.955  17.259  38.919  1.00  0.00     0.072 C
HETATM    3  N1  UNL     1      13.063  16.155  38.525  1.00  0.00    -0.196 NA
HETATM    4  C18 UNL     1      11.368  18.799  39.768  1.00  0.00     0.028 C
HETATM    5  C19 UNL     1      11.196  18.293  41.195  1.00  0.00     0.002 C
HETATM    6  C20 UNL     1      12.559  18.074  41.767  1.00  0.00     0.002 C
HETATM    7  C21 UNL     1      13.509  18.706  40.747  1.00  0.00     0.028 C
ENDROOT
BRANCH   1   8
HETATM    8  C3  UNL     1      13.297  19.566  38.358  1.00  0.00     0.082 C
HETATM    9  C4  UNL     1      14.666  19.072  37.907  1.00  0.00     0.048 C
BRANCH   8  10
HETATM   10  O1  UNL     1      12.470  19.870  37.362  1.00  0.00    -0.363 OA
BRANCH  10  11
HETATM   11  C2  UNL     1      12.300  19.185  36.253  1.00  0.00     0.219 C
HETATM   12  C1  UNL     1      12.653  19.984  34.963  1.00  0.00     0.051 C
BRANCH  11  13
HETATM   13  C22 UNL     1      10.875  18.872  36.061  1.00  0.00     0.202 C
HETATM   14  O3  UNL     1      10.330  17.871  36.596  1.00  0.00    -0.646 OA
HETATM   15  O4  UNL     1      10.088  19.681  35.276  1.00  0.00    -0.646 OA
ENDBRANCH  11  13
ENDBRANCH  10  11
ENDBRANCH   8  10
BRANCH   8  16
HETATM   16  C5  UNL     1      13.504  20.873  39.121  1.00  0.00     0.077 C
BRANCH  16  17
HETATM   17  C6  UNL     1      13.061  22.119  38.506  1.00  0.00     0.060 C
HETATM   18  C7  UNL     1      11.618  22.422  38.434  1.00  0.00     0.038 C
HETATM   19  C8  UNL     1      10.925  22.565  39.765  1.00  0.00     0.003 C
HETATM   20  C9  UNL     1      10.155  23.879  39.871  1.00  0.00     0.000 C
HETATM   21  C10 UNL     1      10.719  24.813  40.883  1.00  0.00     0.000 C
HETATM   22  C11 UNL     1      11.018  26.186  40.374  1.00  0.00     0.000 C
HETATM   23  C12 UNL     1      12.021  26.235  39.270  1.00  0.00     0.000 C
HETATM   24  C13 UNL     1      13.365  25.676  39.634  1.00  0.00     0.000 C
HETATM   25  C14 UNL     1      13.768  24.544  38.676  1.00  0.00     0.003 C
HETATM   26  C15 UNL     1      13.748  23.220  39.352  1.00  0.00     0.038 C
BRANCH  17  27
HETATM   27  O2  UNL     1      13.616  22.373  37.232  1.00  0.00    -0.390 OA
ATOM     28  H2  UNL     1      13.558  23.279  36.950  1.00  0.00     0.210 HD
ENDBRANCH  17  27
ENDBRANCH  16  17
ENDBRANCH   8  16
ENDBRANCH   1   8
TORSDOF 7
ENDMDL