MODEL 1
REMARK VINA RESULT: -8.038792980      0.000      0.000
REMARK  8 active torsions:
REMARK  status: ('A' for Active; 'I' for Inactive)
REMARK    1  A    between atoms: C6_6  and  O1_7
REMARK    2  A    between atoms: C8_10  and  C9_11
REMARK    3  A    between atoms: N1_23  and  O3_25
REMARK    4  A    between atoms: O3_25  and  C20_26
REMARK    5  A    between atoms: C20_26  and  C21_27
REMARK    6  A    between atoms: C21_27  and  C22_28
REMARK    7  A    between atoms: C22_28  and  C23_29
REMARK    8  A    between atoms: C23_29  and  O4_30
ROOT
HETATM    1  C1  UNL     1      21.872  22.612  38.820  1.00  0.00     0.022 C
HETATM    2  C2  UNL     1      22.583  23.916  38.801  1.00  0.00     0.001 C
HETATM    3  C3  UNL     1      23.269  24.139  40.126  1.00  0.00     0.016 C
HETATM    4  C4  UNL     1      24.224  23.034  40.356  1.00  0.00     0.009 C
HETATM    5  C5  UNL     1      25.098  22.626  39.256  1.00  0.00     0.019 C
HETATM    6  C6  UNL     1      26.496  23.227  39.472  1.00  0.00     0.123 C
HETATM    7  C7  UNL     1      27.103  22.883  38.119  1.00  0.00     0.041 C
HETATM    8  C8  UNL     1      26.026  23.414  37.198  1.00  0.00     0.022 C
HETATM    9  C15 UNL     1      24.729  23.007  37.866  1.00  0.00     0.005 C
HETATM   10  C16 UNL     1      23.643  23.999  37.729  1.00  0.00     0.005 C
HETATM   11  C17 UNL     1      24.032  25.437  37.793  1.00  0.00     0.012 C
HETATM   12  C18 UNL     1      22.698  26.131  37.931  1.00  0.00     0.056 C
HETATM   13  C19 UNL     1      21.751  25.095  38.512  1.00  0.00     0.018 C
HETATM   14  N1  UNL     1      20.526  25.370  38.651  1.00  0.00    -0.274 N
ATOM     15  H1  UNL     1      20.244  26.301  38.346  1.00  0.00     0.193 HD
ENDROOT
BRANCH  14  16
HETATM   16  O3  UNL     1      19.547  24.596  39.148  1.00  0.00    -0.281 OA
BRANCH  16  17
HETATM   17  C20 UNL     1      18.808  24.922  40.309  1.00  0.00     0.201 C
BRANCH  17  18
HETATM   18  C21 UNL     1      18.102  26.226  40.120  1.00  0.00     0.031 C
BRANCH  18  19
HETATM   19  C22 UNL     1      18.783  27.327  40.846  1.00  0.00     0.028 C
BRANCH  19  20
HETATM   20  C23 UNL     1      19.298  28.385  39.867  1.00  0.00     0.164 C
BRANCH  20  21
HETATM   21  O4  UNL     1      20.710  28.402  39.914  1.00  0.00    -0.401 OA
ATOM     22  H4  UNL     1      21.014  29.281  39.722  1.00  0.00     0.209 HD
ENDBRANCH  20  21
ENDBRANCH  19  20
ENDBRANCH  18  19
ENDBRANCH  17  18
ENDBRANCH  16  17
ENDBRANCH  14  16
BRANCH   8  23
HETATM   23  C9  UNL     1      26.180  22.910  35.823  1.00  0.00    -0.072 C
HETATM   24  C10 UNL     1      26.751  21.711  35.608  1.00  0.00     0.053 C
HETATM   25  C11 UNL     1      26.884  21.249  34.234  1.00  0.00     0.149 C
HETATM   26  O2  UNL     1      26.615  20.031  33.972  1.00  0.00    -0.293 OA
HETATM   27  C12 UNL     1      27.328  22.228  33.215  1.00  0.00     0.083 C
HETATM   28  C13 UNL     1      26.674  23.536  33.459  1.00  0.00     0.012 C
HETATM   29  C14 UNL     1      25.747  23.627  34.613  1.00  0.00     0.035 C
ENDBRANCH   8  23
BRANCH   6  30
HETATM   30  O1  UNL     1      27.148  22.504  40.442  1.00  0.00    -0.395 OA
ATOM     31  H1  UNL     1      27.379  23.085  41.157  1.00  0.00     0.210 HD
ENDBRANCH   6  30
TORSDOF 8
ENDMDL