MODEL 2
REMARK VINA RESULT: -8.278248801      1.127      2.359
REMARK  7 active torsions:
REMARK  status: ('A' for Active; 'I' for Inactive)
REMARK    1  A    between atoms: O1_2  and  C2_3
REMARK    2  A    between atoms: C4_5  and  C5_6
REMARK    3  A    between atoms: C5_6  and  C6_7
REMARK    4  A    between atoms: C6_7  and  C7_8
REMARK    5  A    between atoms: C7_8  and  O2_9
REMARK    6  A    between atoms: C9_12  and  C10_13
REMARK    7  A    between atoms: C24_28  and  O4_29
ROOT
HETATM    1  C2  UNL     1      26.796  24.286  32.862  1.00  0.00     0.102 A
HETATM    2  C3  UNL     1      26.530  24.026  34.185  1.00  0.00     0.046 A
HETATM    3  C4  UNL     1      26.492  22.746  34.683  1.00  0.00    -0.055 A
HETATM    4  C8  UNL     1      26.734  21.708  33.802  1.00  0.00     0.020 A
HETATM    5  C9  UNL     1      27.006  21.897  32.472  1.00  0.00     0.007 A
HETATM    6  C24 UNL     1      27.029  23.220  32.031  1.00  0.00     0.107 A
ENDROOT
BRANCH   5   7
HETATM    7  C10 UNL     1      27.273  20.794  31.506  1.00  0.00     0.158 C
HETATM    8  C11 UNL     1      28.669  20.843  30.943  1.00  0.00     0.042 C
HETATM    9  C12 UNL     1      28.915  19.616  30.160  1.00  0.00    -0.000 C
HETATM   10  C13 UNL     1      30.273  19.297  29.708  1.00  0.00     0.010 C
HETATM   11  C22 UNL     1      28.610  18.440  31.094  1.00  0.00    -0.010 C
HETATM   12  C14 UNL     1      30.130  17.792  29.407  1.00  0.00    -0.013 C
HETATM   13  C15 UNL     1      31.467  17.156  29.805  1.00  0.00     0.010 C
HETATM   14  C16 UNL     1      29.089  17.269  30.337  1.00  0.00     0.004 C
HETATM   15  C17 UNL     1      27.917  16.602  29.683  1.00  0.00    -0.013 C
HETATM   16  C18 UNL     1      28.452  15.328  29.024  1.00  0.00     0.010 C
HETATM   17  C19 UNL     1      26.983  16.141  30.790  1.00  0.00     0.007 C
HETATM   18  C20 UNL     1      26.469  17.262  31.643  1.00  0.00     0.033 C
HETATM   19  C21 UNL     1      27.103  18.528  31.241  1.00  0.00     0.131 C
HETATM   20  O3  UNL     1      26.915  19.611  32.099  1.00  0.00    -0.375 OA
HETATM   21  C23 UNL     1      29.315  18.533  32.400  1.00  0.00     0.018 C
ENDBRANCH   5   7
BRANCH   6  22
HETATM   22  O4  UNL     1      27.302  23.444  30.690  1.00  0.00    -0.357 OA
ATOM     23  H4  UNL     1      27.263  22.720  30.077  1.00  0.00     0.217 HD
ENDBRANCH   6  22
BRANCH   3  24
HETATM   24  C5  UNL     1      26.211  22.424  36.092  1.00  0.00     0.041 C
BRANCH  24  25
HETATM   25  C6  UNL     1      26.450  23.562  37.037  1.00  0.00     0.030 C
BRANCH  25  26
HETATM   26  C7  UNL     1      25.973  23.285  38.442  1.00  0.00     0.164 C
BRANCH  26  27
HETATM   27  O2  UNL     1      26.895  22.416  39.026  1.00  0.00    -0.401 OA
ATOM     28  H2  UNL     1      26.429  21.913  39.683  1.00  0.00     0.209 HD
ENDBRANCH  26  27
ENDBRANCH  25  26
ENDBRANCH  24  25
ENDBRANCH   3  24
BRANCH   1  29
HETATM   29  O1  UNL     1      26.840  25.583  32.330  1.00  0.00    -0.353 OA
HETATM   30  C1  UNL     1      28.082  26.264  32.438  1.00  0.00     0.210 C
ENDBRANCH   1  29
TORSDOF 7
ENDMDL