MODEL 4
REMARK VINA RESULT: -7.388385309     15.591     18.365
REMARK  7 active torsions:
REMARK  status: ('A' for Active; 'I' for Inactive)
REMARK    1  A    between atoms: C2_2  and  C3_3
REMARK    2  A    between atoms: C3_3  and  C4_4
REMARK    3  A    between atoms: C4_4  and  C5_5
REMARK    4  A    between atoms: C5_5  and  O1_6
REMARK    5  A    between atoms: O1_6  and  C6_7
REMARK    6  A    between atoms: C10_11  and  O2_12
REMARK    7  A    between atoms: C21_24  and  O3_25
ROOT
HETATM    1  C6  UNL     1      14.593  27.737  41.620  1.00  0.00     0.131 C
HETATM    2  C7  UNL     1      16.006  28.281  41.660  1.00  0.00     0.038 C
HETATM    3  C8  UNL     1      16.804  27.864  40.451  1.00  0.00    -0.001 C
HETATM    4  C9  UNL     1      18.182  28.409  40.740  1.00  0.00     0.037 C
HETATM    5  C10 UNL     1      19.289  27.955  39.893  1.00  0.00     0.118 C
HETATM    6  C11 UNL     1      19.247  26.450  39.766  1.00  0.00     0.032 C
HETATM    7  C12 UNL     1      18.135  25.865  40.591  1.00  0.00     0.012 C
HETATM    8  C13 UNL     1      16.762  26.413  40.148  1.00  0.00    -0.036 C
HETATM    9  C14 UNL     1      16.830  26.279  38.620  1.00  0.00     0.016 C
HETATM   10  C15 UNL     1      15.659  25.616  40.715  1.00  0.00     0.006 C
HETATM   11  C16 UNL     1      14.888  24.796  39.678  1.00  0.00     0.007 C
HETATM   12  C17 UNL     1      13.591  25.407  39.275  1.00  0.00     0.015 C
HETATM   13  C18 UNL     1      12.623  25.278  40.446  1.00  0.00    -0.002 C
HETATM   14  C19 UNL     1      11.485  26.240  40.317  1.00  0.00     0.021 C
HETATM   15  C20 UNL     1      12.048  23.880  40.397  1.00  0.00     0.052 C
HETATM   16  C21 UNL     1      11.592  23.366  41.709  1.00  0.00     0.157 C
HETATM   17  C22 UNL     1      11.691  24.343  42.852  1.00  0.00     0.092 C
HETATM   18  N1  UNL     1      12.905  25.055  42.761  1.00  0.00    -0.372 N
ATOM     19  H1  UNL     1      13.423  25.208  43.626  1.00  0.00     0.164 HD
HETATM   20  C23 UNL     1      13.412  25.525  41.682  1.00  0.00     0.001 C
HETATM   21  C24 UNL     1      14.723  26.262  41.678  1.00  0.00     0.066 C
ENDROOT
BRANCH   1  22
HETATM   22  O1  UNL     1      14.019  28.172  42.840  1.00  0.00    -0.385 OA
BRANCH  22  23
HETATM   23  C5  UNL     1      13.529  29.449  42.796  1.00  0.00     0.168 C
BRANCH  23  24
HETATM   24  C4  UNL     1      12.631  29.511  41.551  1.00  0.00     0.026 C
BRANCH  24  25
HETATM   25  C3  UNL     1      11.179  29.605  41.969  1.00  0.00     0.002 C
BRANCH  25  26
HETATM   26  C2  UNL     1      10.485  30.450  40.900  1.00  0.00    -0.004 C
HETATM   27  C1  UNL     1      10.819  31.916  41.073  1.00  0.00     0.005 C
ENDBRANCH  25  26
ENDBRANCH  24  25
ENDBRANCH  23  24
ENDBRANCH  22  23
ENDBRANCH   1  22
BRANCH   5  28
HETATM   28  O2  UNL     1      20.486  28.354  40.501  1.00  0.00    -0.396 OA
ATOM     29  H2  UNL     1      20.620  27.808  41.267  1.00  0.00     0.210 HD
ENDBRANCH   5  28
BRANCH  16  30
HETATM   30  O3  UNL     1      12.349  22.232  42.076  1.00  0.00    -0.390 OA
ATOM     31  H3  UNL     1      12.247  21.546  41.427  1.00  0.00     0.210 HD
ENDBRANCH  16  30
TORSDOF 7
ENDMDL