MODEL 3
REMARK VINA RESULT: -8.591677743      2.420      3.668
REMARK  11 active torsions:
REMARK  status: ('A' for Active; 'I' for Inactive)
REMARK    1  A    between atoms: O1_1  and  N1_3
REMARK    2  A    between atoms: C1_5  and  N2_6
REMARK    3  A    between atoms: C1_5  and  S1_17
REMARK    4  A    between atoms: N2_6  and  C2_8
REMARK    5  A    between atoms: S1_17  and  C11_18
REMARK    6  A    between atoms: C11_18  and  C12_19
REMARK    7  A    between atoms: C12_19  and  C13_20
REMARK    8  A    between atoms: C13_20  and  C14_21
REMARK    9  A    between atoms: C15_22  and  C16_23
REMARK   10  A    between atoms: C16_23  and  O2_24
REMARK   11  A    between atoms: O2_24  and  C17_25
ROOT
HETATM    1  N1  UNL     1      28.935  25.198  31.165  1.00  0.00    -0.247 N
ATOM      2  H1  UNL     1      29.785  25.064  30.619  1.00  0.00     0.196 HD
HETATM    3  C1  UNL     1      27.969  24.385  30.953  1.00  0.00     0.160 C
ENDROOT
BRANCH   3   4
HETATM    4  N2  UNL     1      28.123  23.364  29.996  1.00  0.00    -0.360 N
ATOM      5  H2  UNL     1      28.233  23.652  29.025  1.00  0.00     0.162 HD
BRANCH   4   6
HETATM    6  C2  UNL     1      28.139  21.968  30.264  1.00  0.00     0.033 C
HETATM    7  C3  UNL     1      26.783  21.321  30.265  1.00  0.00     0.035 C
HETATM    8  C4  UNL     1      26.884  19.853  30.563  1.00  0.00    -0.012 C
HETATM    9  C5  UNL     1      27.680  19.589  31.851  1.00  0.00     0.010 C
HETATM   10  C9  UNL     1      27.818  19.151  29.565  1.00  0.00     0.010 C
HETATM   11  C6  UNL     1      29.045  20.130  31.397  1.00  0.00    -0.008 C
HETATM   12  C7  UNL     1      28.921  21.649  31.547  1.00  0.00     0.036 C
HETATM   13  C8  UNL     1      29.125  19.874  29.919  1.00  0.00    -0.008 C
HETATM   14  C10 UNL     1      28.995  21.247  29.245  1.00  0.00     0.036 C
ENDBRANCH   4   6
ENDBRANCH   3   4
BRANCH   3  15
HETATM   15  S1  UNL     1      26.484  24.595  31.884  1.00  0.00    -0.092 SA
BRANCH  15  16
HETATM   16  C11 UNL     1      26.524  23.986  33.554  1.00  0.00     0.083 C
BRANCH  16  17
HETATM   17  C12 UNL     1      26.390  22.509  33.711  1.00  0.00     0.022 C
BRANCH  17  18
HETATM   18  C13 UNL     1      27.052  22.048  34.986  1.00  0.00     0.095 C
BRANCH  18  19
HETATM   19  C14 UNL     1      26.386  22.550  36.162  1.00  0.00    -0.104 C
HETATM   20  C15 UNL     1      25.850  22.981  37.145  1.00  0.00    -0.081 C
BRANCH  20  21
HETATM   21  C16 UNL     1      25.223  23.520  38.330  1.00  0.00     0.261 C
BRANCH  21  22
HETATM   22  O2  UNL     1      23.948  23.069  38.565  1.00  0.00    -0.374 OA
BRANCH  22  23
HETATM   23  C17 UNL     1      22.968  23.646  37.795  1.00  0.00     0.122 C
HETATM   24  C18 UNL     1      22.826  25.133  38.053  1.00  0.00     0.032 C
HETATM   25  C19 UNL     1      22.135  25.389  39.383  1.00  0.00     0.002 C
HETATM   26  C20 UNL     1      20.698  24.957  39.350  1.00  0.00     0.000 C
HETATM   27  C21 UNL     1      20.516  24.016  38.198  1.00  0.00     0.002 C
HETATM   28  C22 UNL     1      21.644  23.000  38.167  1.00  0.00     0.032 C
ENDBRANCH  22  23
ENDBRANCH  21  22
ENDBRANCH  20  21
ENDBRANCH  18  19
ENDBRANCH  17  18
ENDBRANCH  16  17
ENDBRANCH  15  16
ENDBRANCH   3  15
BRANCH   1  29
HETATM   29  O1  UNL     1      28.923  26.226  32.056  1.00  0.00    -0.288 OA
ATOM     30  H1  UNL     1      29.312  26.211  32.923  1.00  0.00     0.244 HD
ENDBRANCH   1  29
TORSDOF 11
ENDMDL