MODEL 1
REMARK VINA RESULT: -8.573823440      0.000      0.000
REMARK  7 active torsions:
REMARK  status: ('A' for Active; 'I' for Inactive)
REMARK    1  A    between atoms: C2_2  and  C3_3
REMARK    2  A    between atoms: C3_3  and  C4_4
REMARK    3  A    between atoms: C4_4  and  O1_5
REMARK    4  A    between atoms: O1_5  and  C5_6
REMARK    5  A    between atoms: C10_11  and  O2_12
REMARK    6  A    between atoms: C15_18  and  O3_19
REMARK    7  A    between atoms: C21_27  and  C22_28
ROOT
HETATM    1  C5  UNL     1      26.931  22.763  33.615  1.00  0.00     0.102 A
HETATM    2  C6  UNL     1      27.432  21.479  33.537  1.00  0.00     0.047 A
HETATM    3  C7  UNL     1      27.499  20.766  32.362  1.00  0.00    -0.042 A
HETATM    4  C8  UNL     1      27.055  21.341  31.203  1.00  0.00    -0.049 A
HETATM    5  C9  UNL     1      26.555  22.613  31.253  1.00  0.00     0.047 A
HETATM    6  C10 UNL     1      26.487  23.332  32.441  1.00  0.00     0.099 A
HETATM    7  C11 UNL     1      27.138  20.564  29.956  1.00  0.00     0.039 C
HETATM    8  C12 UNL     1      28.482  19.922  29.913  1.00  0.00     0.010 C
HETATM    9  C13 UNL     1      28.896  19.187  31.148  1.00  0.00     0.002 C
HETATM   10  C14 UNL     1      28.056  19.364  32.350  1.00  0.00     0.052 C
HETATM   11  C15 UNL     1      26.897  18.440  32.492  1.00  0.00     0.128 C
HETATM   12  C16 UNL     1      27.166  17.026  32.120  1.00  0.00     0.049 C
HETATM   13  C17 UNL     1      28.492  16.726  31.575  1.00  0.00     0.023 C
HETATM   14  C18 UNL     1      28.379  15.451  30.721  1.00  0.00     0.024 C
HETATM   15  C19 UNL     1      29.518  16.383  32.621  1.00  0.00     0.136 C
HETATM   16  O4  UNL     1      29.419  16.244  33.805  1.00  0.00    -0.297 OA
HETATM   17  C20 UNL     1      30.771  16.245  31.802  1.00  0.00     0.084 C
HETATM   18  C21 UNL     1      30.645  17.415  30.888  1.00  0.00    -0.002 C
HETATM   19  C24 UNL     1      29.173  17.758  30.773  1.00  0.00     0.010 C
ENDROOT
BRANCH   1  20
HETATM   20  O1  UNL     1      26.880  23.456  34.834  1.00  0.00    -0.348 OA
BRANCH  20  21
HETATM   21  C4  UNL     1      26.285  22.811  35.937  1.00  0.00     0.176 C
BRANCH  21  22
HETATM   22  C3  UNL     1      26.540  23.534  37.232  1.00  0.00     0.026 C
BRANCH  22  23
HETATM   23  C2  UNL     1      25.724  22.919  38.372  1.00  0.00    -0.002 C
HETATM   24  C1  UNL     1      26.589  22.749  39.610  1.00  0.00     0.005 C
ENDBRANCH  22  23
ENDBRANCH  21  22
ENDBRANCH  20  21
ENDBRANCH   1  20
BRANCH   6  25
HETATM   25  O2  UNL     1      25.980  24.627  32.497  1.00  0.00    -0.358 OA
ATOM     26  H2  UNL     1      25.060  24.733  32.711  1.00  0.00     0.217 HD
ENDBRANCH   6  25
BRANCH  11  27
HETATM   27  O3  UNL     1      26.511  18.468  33.857  1.00  0.00    -0.395 OA
ATOM     28  H3  UNL     1      25.675  18.021  33.917  1.00  0.00     0.210 HD
ENDBRANCH  11  27
BRANCH  18  29
HETATM   29  C22 UNL     1      31.324  17.252  29.567  1.00  0.00     0.001 C
HETATM   30  C23 UNL     1      31.770  15.798  29.471  1.00  0.00     0.005 C
ENDBRANCH  18  29
TORSDOF 7
ENDMDL