MODEL 2
REMARK VINA RESULT: -6.425101726      6.346      9.840
REMARK  6 active torsions:
REMARK  status: ('A' for Active; 'I' for Inactive)
REMARK    1  A    between atoms: C3_3  and  C4_4
REMARK    2  A    between atoms: C4_4  and  C5_5
REMARK    3  A    between atoms: C5_5  and  O1_8
REMARK    4  A    between atoms: C11_13  and  O2_14
REMARK    5  A    between atoms: O2_14  and  C12_15
REMARK    6  A    between atoms: C19_22  and  C20_23
ROOT
HETATM    1  C1  UNL     1     -11.687   0.330 -12.776  1.00  0.00     0.044 C
HETATM    2  C2  UNL     1     -12.472   1.419 -13.365  1.00  0.00    -0.073 C
HETATM    3  C3  UNL     1     -13.409   1.224 -14.363  1.00  0.00    -0.032 C
HETATM    4  C8  UNL     1     -14.114   2.481 -14.687  1.00  0.00    -0.056 C
HETATM    5  C9  UNL     1     -15.439   2.400 -15.332  1.00  0.00     0.027 C
HETATM    6  C10 UNL     1     -16.486   2.078 -14.241  1.00  0.00     0.073 C
HETATM    7  C11 UNL     1     -17.857   2.493 -14.597  1.00  0.00     0.043 C
HETATM    8  C15 UNL     1     -18.033   3.748 -14.979  1.00  0.00     0.006 C
HETATM    9  C16 UNL     1     -16.743   4.540 -14.979  1.00  0.00     0.035 C
HETATM   10  C17 UNL     1     -15.869   3.689 -15.917  1.00  0.00    -0.002 C
HETATM   11  C18 UNL     1     -14.824   4.584 -16.488  1.00  0.00     0.022 C
HETATM   12  C19 UNL     1     -13.795   4.819 -15.446  1.00  0.00     0.099 C
HETATM   13  C21 UNL     1     -13.121   3.474 -15.201  1.00  0.00    -0.006 C
HETATM   14  C22 UNL     1     -12.498   3.075 -16.485  1.00  0.00     0.021 C
HETATM   15  C23 UNL     1     -12.101   3.746 -14.111  1.00  0.00     0.019 C
HETATM   16  C24 UNL     1     -12.277   2.817 -12.936  1.00  0.00     0.036 C
ENDROOT
BRANCH   3  17
HETATM   17  C4  UNL     1     -13.550  -0.135 -14.786  1.00  0.00     0.021 C
BRANCH  17  18
HETATM   18  C5  UNL     1     -13.131  -0.750 -16.024  1.00  0.00     0.069 C
HETATM   19  C6  UNL     1     -11.674  -0.942 -16.302  1.00  0.00     0.050 C
HETATM   20  C7  UNL     1     -13.817  -0.373 -17.303  1.00  0.00     0.050 C
BRANCH  18  21
HETATM   21  O1  UNL     1     -13.574  -2.147 -15.878  1.00  0.00    -0.387 OA
ATOM     22  H1  UNL     1     -13.226  -2.401 -15.031  1.00  0.00     0.211 HD
ENDBRANCH  18  21
ENDBRANCH  17  18
ENDBRANCH   3  17
BRANCH  12  23
HETATM   23  C20 UNL     1     -12.886   5.928 -15.669  1.00  0.00     0.178 C
HETATM   24  O3  UNL     1     -12.247   6.219 -16.708  1.00  0.00    -0.648 OA
HETATM   25  O4  UNL     1     -12.658   6.825 -14.604  1.00  0.00    -0.648 OA
ENDBRANCH  12  23
BRANCH   7  26
HETATM   26  O2  UNL     1     -18.942   1.593 -14.534  1.00  0.00    -0.351 OA
BRANCH  26  27
HETATM   27  C12 UNL     1     -19.913   1.657 -13.536  1.00  0.00     0.120 C
HETATM   28  C13 UNL     1     -20.931   2.707 -13.845  1.00  0.00     0.040 C
HETATM   29  C14 UNL     1     -20.573   0.300 -13.324  1.00  0.00     0.040 C
ENDBRANCH  26  27
ENDBRANCH   7  26
TORSDOF 6
ENDMDL