MODEL 5
REMARK VINA RESULT: -6.977933502      7.897     10.906
REMARK  9 active torsions:
REMARK  status: ('A' for Active; 'I' for Inactive)
REMARK    1  A    between atoms: N1_8  and  C8_9
REMARK    2  A    between atoms: C8_9  and  C9_10
REMARK    3  A    between atoms: C9_10  and  C10_11
REMARK    4  A    between atoms: C10_11  and  C11_12
REMARK    5  A    between atoms: C12_13  and  C13_14
REMARK    6  A    between atoms: C13_14  and  C14_15
REMARK    7  A    between atoms: C15_16  and  O1_17
REMARK    8  A    between atoms: C17_20  and  O2_21
REMARK    9  A    between atoms: C19_24  and  N2_25
ROOT
HETATM    1  C14 UNL     1     -15.072  -4.244 -11.784  1.00  0.00     0.013 A
HETATM    2  C15 UNL     1     -15.883  -5.384 -11.859  1.00  0.00     0.077 A
HETATM    3  C16 UNL     1     -15.747  -6.315 -12.858  1.00  0.00     0.073 A
HETATM    4  C17 UNL     1     -14.790  -6.147 -13.833  1.00  0.00     0.070 A
HETATM    5  C18 UNL     1     -13.992  -5.040 -13.774  1.00  0.00     0.066 A
HETATM    6  C19 UNL     1     -14.136  -4.096 -12.753  1.00  0.00     0.042 A
ENDROOT
BRANCH   1   7
HETATM    7  C13 UNL     1     -15.329  -3.345 -10.649  1.00  0.00     0.137 C
BRANCH   7   8
HETATM    8  C12 UNL     1     -14.276  -3.496  -9.610  1.00  0.00    -0.102 C
HETATM    9  C11 UNL     1     -13.408  -3.632  -8.783  1.00  0.00    -0.106 C
BRANCH   9  10
HETATM   10  C10 UNL     1     -12.345  -3.804  -7.809  1.00  0.00     0.095 C
BRANCH  10  11
HETATM   11  C9  UNL     1     -11.109  -4.424  -8.424  1.00  0.00     0.031 C
BRANCH  11  12
HETATM   12  C8  UNL     1     -11.374  -5.934  -8.456  1.00  0.00     0.118 C
BRANCH  12  13
HETATM   13  N1  UNL     1     -11.007  -6.428  -9.737  1.00  0.00    -0.405 N
HETATM   14  C2  UNL     1     -12.071  -6.607 -10.653  1.00  0.00     0.075 C
HETATM   15  C1  UNL     1     -13.349  -7.123 -10.089  1.00  0.00     0.032 C
HETATM   16  C3  UNL     1     -11.611  -7.472 -11.808  1.00  0.00     0.024 C
HETATM   17  C4  UNL     1     -11.255  -8.865 -11.325  1.00  0.00     0.004 C
HETATM   18  C5  UNL     1     -10.393  -8.794 -10.101  1.00  0.00     0.024 C
HETATM   19  C6  UNL     1      -9.968  -7.387  -9.768  1.00  0.00     0.075 C
HETATM   20  C7  UNL     1      -9.157  -7.458  -8.494  1.00  0.00     0.032 C
ENDBRANCH  12  13
ENDBRANCH  11  12
ENDBRANCH  10  11
ENDBRANCH   9  10
ENDBRANCH   7   8
ENDBRANCH   1   7
BRANCH   2  21
HETATM   21  O1  UNL     1     -16.856  -5.598 -10.907  1.00  0.00    -0.360 OA
ATOM     22  H1  UNL     1     -17.715  -5.207 -11.013  1.00  0.00     0.217 HD
ENDBRANCH   2  21
BRANCH   6  23
HETATM   23  N2  UNL     1     -13.255  -2.985 -12.826  1.00  0.00    -0.380 N
HETATM   24  C20 UNL     1     -13.657  -1.788 -13.503  1.00  0.00     0.123 C
HETATM   25  C21 UNL     1     -13.128  -0.565 -12.804  1.00  0.00     0.020 C
HETATM   26  C22 UNL     1     -11.611  -0.701 -12.809  1.00  0.00     0.003 C
HETATM   27  C23 UNL     1     -11.186  -1.899 -12.004  1.00  0.00     0.020 C
HETATM   28  C24 UNL     1     -11.971  -3.129 -12.225  1.00  0.00     0.123 C
ENDBRANCH   6  23
BRANCH   4  29
HETATM   29  O2  UNL     1     -14.654  -7.087 -14.840  1.00  0.00    -0.361 OA
ATOM     30  H2  UNL     1     -14.300  -7.947 -14.644  1.00  0.00     0.217 HD
ENDBRANCH   4  29
TORSDOF 9
ENDMDL