MODEL 4
REMARK VINA RESULT: -6.599954093      3.205      5.411
REMARK  6 active torsions:
REMARK  status: ('A' for Active; 'I' for Inactive)
REMARK    1  A    between atoms: N1_2  and  C2_5
REMARK    2  A    between atoms: C2_5  and  C3_6
REMARK    3  A    between atoms: C3_6  and  C4_7
REMARK    4  A    between atoms: C4_7  and  O1_8
REMARK    5  A    between atoms: O1_8  and  C5_9
REMARK    6  A    between atoms: C13_18  and  O3_19
ROOT
HETATM    1  C5  UNL     1     -10.182  -5.058  -6.542  1.00  0.00     0.071 A
HETATM    2  C6  UNL     1     -10.292  -4.849  -7.892  1.00  0.00    -0.034 A
HETATM    3  C7  UNL     1     -10.774  -3.570  -8.429  1.00  0.00     0.043 C
HETATM    4  C8  UNL     1     -11.868  -3.579  -9.405  1.00  0.00    -0.006 C
HETATM    5  C9  UNL     1     -11.404  -2.961 -10.717  1.00  0.00     0.006 C
HETATM    6  C10 UNL     1     -12.391  -3.039 -11.822  1.00  0.00     0.013 C
HETATM    7  C11 UNL     1     -13.259  -4.252 -11.856  1.00  0.00     0.067 C
HETATM    8  C12 UNL     1     -14.493  -3.912 -12.651  1.00  0.00     0.160 C
HETATM    9  O2  UNL     1     -14.565  -2.867 -13.273  1.00  0.00    -0.295 OA
HETATM   10  C13 UNL     1     -15.615  -4.851 -12.673  1.00  0.00     0.188 C
HETATM   11  C14 UNL     1     -15.833  -5.638 -11.435  1.00  0.00     0.040 C
HETATM   12  C15 UNL     1     -14.626  -5.870 -10.600  1.00  0.00     0.013 C
HETATM   13  C16 UNL     1     -13.739  -4.671 -10.494  1.00  0.00    -0.029 C
HETATM   14  C17 UNL     1     -14.579  -3.545  -9.918  1.00  0.00     0.016 C
HETATM   15  C18 UNL     1     -12.541  -4.892  -9.635  1.00  0.00    -0.001 C
HETATM   16  C19 UNL     1     -11.543  -5.849 -10.255  1.00  0.00     0.007 C
HETATM   17  C20 UNL     1     -10.996  -6.786  -9.219  1.00  0.00     0.018 C
HETATM   18  C21 UNL     1      -9.842  -6.105  -8.510  1.00  0.00    -0.000 A
HETATM   19  C22 UNL     1      -8.651  -5.929  -9.412  1.00  0.00     0.024 C
HETATM   20  C23 UNL     1      -9.465  -7.011  -7.406  1.00  0.00    -0.010 A
HETATM   21  C24 UNL     1      -9.678  -6.371  -6.283  1.00  0.00     0.034 A
ENDROOT
BRANCH   1  22
HETATM   22  O1  UNL     1     -10.523  -4.093  -5.640  1.00  0.00    -0.351 OA
BRANCH  22  23
HETATM   23  C4  UNL     1     -11.681  -3.700  -5.031  1.00  0.00     0.177 C
BRANCH  23  24
HETATM   24  C3  UNL     1     -11.745  -3.682  -3.537  1.00  0.00     0.054 C
BRANCH  24  25
HETATM   25  C2  UNL     1     -10.300  -3.604  -3.039  1.00  0.00     0.234 C
BRANCH  25  26
HETATM   26  N1  UNL     1      -9.782  -4.884  -2.636  1.00  0.00    -0.079 N
HETATM   27  C1  UNL     1      -8.422  -5.092  -3.111  1.00  0.00     0.266 C
ATOM     28  H12 UNL     1     -10.398  -5.642  -2.928  1.00  0.00     0.276 HD
ATOM     29  H11 UNL     1      -9.845  -5.007  -1.625  1.00  0.00     0.276 HD
ENDBRANCH  25  26
ENDBRANCH  24  25
ENDBRANCH  23  24
ENDBRANCH  22  23
ENDBRANCH   1  22
BRANCH  10  30
HETATM   30  O3  UNL     1     -15.483  -5.675 -13.812  1.00  0.00    -0.388 OA
ATOM     31  H3  UNL     1     -16.349  -5.821 -14.177  1.00  0.00     0.210 HD
ENDBRANCH  10  30
TORSDOF 6
ENDMDL