MODEL 4
REMARK VINA RESULT: -6.234349452      2.333      4.603
REMARK  7 active torsions:
REMARK  status: ('A' for Active; 'I' for Inactive)
REMARK    1  A    between atoms: C2_2  and  O1_3
REMARK    2  A    between atoms: O1_3  and  C3_4
REMARK    3  A    between atoms: C3_4  and  O2_5
REMARK    4  A    between atoms: C3_4  and  C5_7
REMARK    5  A    between atoms: C5_7  and  O3_8
REMARK    6  A    between atoms: C15_19  and  C16_20
REMARK    7  A    between atoms: C16_20  and  O4_23
ROOT
HETATM    1  C5  UNL     1     -13.144  -5.434  -9.906  1.00  0.00     0.115 C
HETATM    2  C6  UNL     1     -11.696  -5.833  -9.768  1.00  0.00     0.044 C
HETATM    3  C7  UNL     1     -11.423  -6.829 -10.883  1.00  0.00     0.014 C
HETATM    4  C8  UNL     1     -12.787  -7.180 -11.489  1.00  0.00    -0.026 C
HETATM    5  C9  UNL     1     -13.367  -8.187 -10.517  1.00  0.00     0.017 C
HETATM    6  C10 UNL     1     -12.693  -7.670 -12.901  1.00  0.00    -0.032 C
HETATM    7  C11 UNL     1     -13.537  -8.975 -12.900  1.00  0.00     0.016 C
HETATM    8  C12 UNL     1     -11.283  -8.204 -13.133  1.00  0.00     0.010 C
HETATM    9  C13 UNL     1     -10.471  -7.415 -14.102  1.00  0.00     0.001 C
HETATM   10  C14 UNL     1     -11.275  -7.583 -15.405  1.00  0.00     0.008 C
HETATM   11  C15 UNL     1     -12.440  -6.651 -15.228  1.00  0.00     0.024 C
HETATM   12  C19 UNL     1     -13.223  -6.811 -13.980  1.00  0.00     0.001 C
HETATM   13  C20 UNL     1     -13.669  -5.411 -13.581  1.00  0.00     0.007 C
HETATM   14  C21 UNL     1     -13.006  -4.938 -12.320  1.00  0.00     0.013 C
HETATM   15  C22 UNL     1     -13.527  -5.889 -11.264  1.00  0.00    -0.000 C
HETATM   16  C23 UNL     1     -15.014  -5.997 -11.357  1.00  0.00     0.019 C
ENDROOT
BRANCH   1  17
HETATM   17  C3  UNL     1     -13.257  -3.973  -9.608  1.00  0.00     0.293 C
BRANCH  17  18
HETATM   18  O1  UNL     1     -12.143  -3.667  -8.764  1.00  0.00    -0.359 OA
BRANCH  18  19
HETATM   19  C2  UNL     1     -12.494  -3.014  -7.621  1.00  0.00     0.166 C
HETATM   20  C1  UNL     1     -11.210  -2.697  -6.840  1.00  0.00     0.033 C
ENDBRANCH  18  19
ENDBRANCH  17  18
BRANCH  17  21
HETATM   21  O2  UNL     1     -14.361  -3.667  -8.786  1.00  0.00    -0.363 OA
HETATM   22  C4  UNL     1     -15.354  -2.967  -9.437  1.00  0.00     0.204 C
ENDBRANCH  17  21
ENDBRANCH   1  17
BRANCH   1  23
HETATM   23  O3  UNL     1     -13.917  -6.064  -8.897  1.00  0.00    -0.384 OA
ATOM     24  H3  UNL     1     -13.740  -6.991  -9.005  1.00  0.00     0.210 HD
ENDBRANCH   1  23
BRANCH  11  25
HETATM   25  C16 UNL     1     -13.218  -6.703 -16.510  1.00  0.00     0.054 C
HETATM   26  C17 UNL     1     -12.471  -7.226 -17.694  1.00  0.00     0.045 C
HETATM   27  C18 UNL     1     -13.835  -5.375 -16.904  1.00  0.00     0.045 C
BRANCH  25  28
HETATM   28  O4  UNL     1     -14.331  -7.575 -16.367  1.00  0.00    -0.390 OA
ATOM     29  H4  UNL     1     -14.466  -8.064 -17.171  1.00  0.00     0.210 HD
ENDBRANCH  25  28
ENDBRANCH  11  25
TORSDOF 7
ENDMDL