MODEL 1
REMARK VINA RESULT: -7.525676186      0.000      0.000
REMARK  6 active torsions:
REMARK  status: ('A' for Active; 'I' for Inactive)
REMARK    1  A    between atoms: C2_2  and  C3_3
REMARK    2  A    between atoms: C11_11  and  O1_12
REMARK    3  A    between atoms: C12_14  and  C13_15
REMARK    4  A    between atoms: C13_15  and  C15_17
REMARK    5  A    between atoms: N1_18  and  N2_20
REMARK       I    between atoms: N2_20  and  C16_22
REMARK    6  A    between atoms: C16_22  and  C17_24
ROOT
HETATM    1  C3  UNL     1     -13.975  -6.540 -12.977  1.00  0.00    -0.040 C
HETATM    2  C4  UNL     1     -13.681  -8.057 -13.012  1.00  0.00     0.015 C
HETATM    3  C5  UNL     1     -15.438  -6.412 -13.418  1.00  0.00     0.010 C
HETATM    4  C6  UNL     1     -16.190  -5.833 -12.204  1.00  0.00     0.011 C
HETATM    5  C7  UNL     1     -15.113  -5.026 -11.555  1.00  0.00    -0.033 C
HETATM    6  C8  UNL     1     -14.851  -3.841 -12.386  1.00  0.00     0.016 C
HETATM    7  C9  UNL     1     -14.033  -6.117 -11.630  1.00  0.00     0.005 C
HETATM    8  C10 UNL     1     -12.978  -5.500 -10.819  1.00  0.00     0.044 C
HETATM    9  C11 UNL     1     -13.781  -5.350  -9.543  1.00  0.00     0.067 C
HETATM   10  C12 UNL     1     -13.374  -4.375  -8.562  1.00  0.00     0.029 C
HETATM   11  C22 UNL     1     -13.796  -3.042  -9.200  1.00  0.00     0.009 C
HETATM   12  C23 UNL     1     -15.224  -3.457  -9.573  1.00  0.00     0.009 C
HETATM   13  C24 UNL     1     -15.133  -4.841 -10.097  1.00  0.00     0.029 C
ENDROOT
BRANCH  10  14
HETATM   14  C13 UNL     1     -12.067  -4.363  -7.942  1.00  0.00     0.028 C
HETATM   15  C14 UNL     1     -11.715  -2.924  -7.534  1.00  0.00     0.016 C
BRANCH  14  16
HETATM   16  C15 UNL     1     -11.750  -5.238  -6.836  1.00  0.00     0.085 C
HETATM   17  N1  UNL     1     -11.224  -6.398  -7.039  1.00  0.00    -0.313 N
ATOM     18  H1  UNL     1     -11.022  -6.970  -6.220  1.00  0.00     0.185 HD
BRANCH  17  19
HETATM   19  N2  UNL     1     -10.913  -6.928  -8.274  1.00  0.00    -0.270 N
HETATM   20  C16 UNL     1      -9.644  -7.475  -8.547  1.00  0.00     0.240 C
HETATM   21  O2  UNL     1      -8.771  -7.480  -7.642  1.00  0.00    -0.271 OA
ATOM     22  H2  UNL     1     -11.621  -6.924  -9.008  1.00  0.00     0.190 HD
BRANCH  20  23
HETATM   23  C17 UNL     1      -9.276  -8.053  -9.868  1.00  0.00     0.079 C
HETATM   24  C18 UNL     1      -9.579  -7.129 -11.004  1.00  0.00     0.014 C
HETATM   25  C19 UNL     1     -10.117  -7.980 -12.127  1.00  0.00     0.001 C
HETATM   26  C20 UNL     1     -10.452  -9.322 -11.558  1.00  0.00     0.001 C
HETATM   27  C21 UNL     1      -9.978  -9.345 -10.127  1.00  0.00     0.014 C
ENDBRANCH  20  23
ENDBRANCH  17  19
ENDBRANCH  14  16
ENDBRANCH  10  14
BRANCH   9  28
HETATM   28  O1  UNL     1     -13.930  -6.639  -9.019  1.00  0.00    -0.389 OA
ATOM     29  H1  UNL     1     -14.569  -7.078  -9.568  1.00  0.00     0.210 HD
ENDBRANCH   9  28
BRANCH   1  30
HETATM   30  C2  UNL     1     -13.015  -5.936 -13.931  1.00  0.00     0.005 C
HETATM   31  C1  UNL     1     -13.631  -5.860 -15.337  1.00  0.00     0.006 C
ENDBRANCH   1  30
TORSDOF 6
ENDMDL