MODEL 4
REMARK VINA RESULT: -5.904546241      1.962      4.676
REMARK  8 active torsions:
REMARK  status: ('A' for Active; 'I' for Inactive)
REMARK    1  A    between atoms: O1_2  and  C2_3
REMARK    2  A    between atoms: C2_3  and  C3_4
REMARK    3  A    between atoms: C3_4  and  O2_5
REMARK    4  A    between atoms: C5_8  and  C6_9
REMARK    5  A    between atoms: C6_9  and  O3_12
REMARK    6  A    between atoms: C10_15  and  O4_16
REMARK    7  A    between atoms: C12_18  and  C14_20
REMARK    8  A    between atoms: C14_20  and  C15_21
ROOT
HETATM    1  C3  UNL     1     -11.429  -4.507  -9.382  1.00  0.00     0.129 C
HETATM    2  C4  UNL     1     -12.594  -3.610  -9.496  1.00  0.00     0.065 C
HETATM    3  C5  UNL     1     -13.394  -4.083 -10.735  1.00  0.00     0.023 C
HETATM    4  C9  UNL     1     -12.946  -5.495 -10.896  1.00  0.00    -0.027 C
HETATM    5  C10 UNL     1     -11.842  -5.706 -10.131  1.00  0.00     0.086 C
HETATM    6  C12 UNL     1     -13.682  -6.557 -11.635  1.00  0.00    -0.016 C
HETATM    7  C13 UNL     1     -13.929  -7.680 -10.532  1.00  0.00     0.020 C
HETATM    8  C21 UNL     1     -15.131  -6.138 -11.871  1.00  0.00     0.014 C
HETATM    9  C22 UNL     1     -15.683  -5.136 -10.974  1.00  0.00     0.006 C
HETATM   10  C23 UNL     1     -14.809  -4.244 -10.196  1.00  0.00    -0.003 C
HETATM   11  C24 UNL     1     -15.428  -3.014  -9.620  1.00  0.00     0.011 C
ENDROOT
BRANCH   6  12
HETATM   12  C14 UNL     1     -13.127  -7.327 -12.706  1.00  0.00     0.027 C
BRANCH  12  13
HETATM   13  C15 UNL     1     -12.678  -7.090 -14.044  1.00  0.00    -0.025 C
HETATM   14  C16 UNL     1     -11.241  -6.657 -14.248  1.00  0.00     0.019 C
HETATM   15  C17 UNL     1     -13.455  -5.974 -14.683  1.00  0.00    -0.021 C
HETATM   16  C18 UNL     1     -13.928  -6.260 -15.862  1.00  0.00    -0.030 C
HETATM   17  C19 UNL     1     -13.554  -7.621 -16.231  1.00  0.00     0.028 C
HETATM   18  C20 UNL     1     -12.901  -8.194 -15.030  1.00  0.00     0.017 C
ENDBRANCH  12  13
ENDBRANCH   6  12
BRANCH   3  19
HETATM   19  C6  UNL     1     -13.171  -3.127 -11.799  1.00  0.00     0.063 C
HETATM   20  C7  UNL     1     -14.361  -2.793 -12.685  1.00  0.00     0.046 C
HETATM   21  C8  UNL     1     -12.102  -3.422 -12.821  1.00  0.00     0.046 C
BRANCH  19  22
HETATM   22  O3  UNL     1     -12.804  -1.888 -11.283  1.00  0.00    -0.390 OA
ATOM     23  H3  UNL     1     -13.423  -1.217 -11.543  1.00  0.00     0.210 HD
ENDBRANCH  19  22
ENDBRANCH   3  19
BRANCH   5  24
HETATM   24  O4  UNL     1     -11.099  -6.864  -9.981  1.00  0.00    -0.357 OA
HETATM   25  C11 UNL     1     -10.009  -7.278 -10.748  1.00  0.00     0.209 C
ENDBRANCH   5  24
BRANCH   1  26
HETATM   26  C2  UNL     1     -11.266  -4.896  -7.887  1.00  0.00     0.212 C
BRANCH  26  27
HETATM   27  O1  UNL     1     -12.069  -4.176  -7.056  1.00  0.00    -0.393 OA
HETATM   28  C1  UNL     1     -11.303  -3.764  -5.970  1.00  0.00     0.201 C
ENDBRANCH  26  27
ENDBRANCH   1  26
BRANCH   1  29
HETATM   29  O2  UNL     1     -10.196  -3.991  -9.717  1.00  0.00    -0.381 OA
ATOM     30  H2  UNL     1      -9.982  -4.435 -10.529  1.00  0.00     0.211 HD
ENDBRANCH   1  29
TORSDOF 8
ENDMDL