MODEL 2
REMARK VINA RESULT: -7.167932171      2.150      6.293
REMARK  6 active torsions:
REMARK  status: ('A' for Active; 'I' for Inactive)
REMARK    1  A    between atoms: C5_5  and  C6_6
REMARK    2  A    between atoms: C6_6  and  O1_7
REMARK    3  A    between atoms: C6_6  and  C7_9
REMARK    4  A    between atoms: C7_9  and  C8_10
REMARK    5  A    between atoms: C8_10  and  C9_11
REMARK    6  A    between atoms: C16_19  and  O2_20
ROOT
HETATM    1  C9  UNL     1     -16.044  -5.349 -11.330  1.00  0.00     0.262 A
HETATM    2  N1  UNL     1     -14.957  -5.510 -10.568  1.00  0.00     0.112 N
HETATM    3  C10 UNL     1     -13.632  -5.384 -10.359  1.00  0.00     0.233 C
HETATM    4  C11 UNL     1     -13.000  -6.793 -10.353  1.00  0.00     0.063 C
HETATM    5  C12 UNL     1     -11.741  -6.805  -9.601  1.00  0.00    -0.021 C
HETATM    6  C13 UNL     1     -11.278  -5.887  -8.789  1.00  0.00    -0.075 C
HETATM    7  C14 UNL     1      -9.948  -6.052  -8.083  1.00  0.00     0.037 C
HETATM    8  C15 UNL     1      -9.336  -4.684  -8.045  1.00  0.00     0.036 C
HETATM    9  C16 UNL     1      -9.822  -3.781  -9.154  1.00  0.00     0.119 C
HETATM   10  C17 UNL     1     -11.279  -3.445  -9.066  1.00  0.00     0.045 C
HETATM   11  C18 UNL     1     -12.032  -4.650  -8.533  1.00  0.00    -0.013 C
HETATM   12  C19 UNL     1     -12.090  -4.493  -7.004  1.00  0.00     0.021 C
HETATM   13  C20 UNL     1     -13.424  -4.733  -9.008  1.00  0.00     0.032 C
HETATM   14  C21 UNL     1     -14.136  -3.400  -8.983  1.00  0.00     0.010 C
HETATM   15  C22 UNL     1     -15.513  -3.496  -9.581  1.00  0.00     0.044 C
HETATM   16  C23 UNL     1     -15.431  -4.123 -10.964  1.00  0.00     0.188 A
HETATM   17  C24 UNL     1     -14.524  -3.378 -11.865  1.00  0.00     0.051 C
ENDROOT
BRANCH   1  18
HETATM   18  C8  UNL     1     -16.235  -5.699 -12.784  1.00  0.00     0.041 C
BRANCH  18  19
HETATM   19  C7  UNL     1     -15.427  -6.860 -13.275  1.00  0.00     0.041 C
BRANCH  19  20
HETATM   20  C6  UNL     1     -14.100  -6.613 -13.872  1.00  0.00     0.175 C
BRANCH  20  21
HETATM   21  C5  UNL     1     -14.076  -5.933 -15.173  1.00  0.00     0.082 A
HETATM   22  C4  UNL     1     -13.734  -4.609 -15.329  1.00  0.00     0.038 A
HETATM   23  C3  UNL     1     -13.823  -4.322 -16.673  1.00  0.00     0.035 A
HETATM   24  C2  UNL     1     -14.217  -5.491 -17.283  1.00  0.00     0.049 A
HETATM   25  C1  UNL     1     -14.438  -5.626 -18.763  1.00  0.00     0.076 C
HETATM   26  O3  UNL     1     -14.350  -6.393 -16.369  1.00  0.00    -0.317 OA
ENDBRANCH  20  21
BRANCH  20  27
HETATM   27  O1  UNL     1     -13.324  -7.790 -13.914  1.00  0.00    -0.389 OA
ATOM     28  H1  UNL     1     -13.473  -8.316 -13.137  1.00  0.00     0.210 HD
ENDBRANCH  20  27
ENDBRANCH  19  20
ENDBRANCH  18  19
ENDBRANCH   1  18
BRANCH   9  29
HETATM   29  O2  UNL     1      -9.020  -2.626  -9.121  1.00  0.00    -0.396 OA
ATOM     30  H2  UNL     1      -9.410  -2.036  -8.487  1.00  0.00     0.210 HD
ENDBRANCH   9  29
TORSDOF 6
ENDMDL