MODEL 4
REMARK VINA RESULT: -6.955560846      1.401      2.055
REMARK  8 active torsions:
REMARK  status: ('A' for Active; 'I' for Inactive)
REMARK    1  A    between atoms: C2_2  and  C3_3
REMARK    2  A    between atoms: C3_3  and  C4_5
REMARK    3  A    between atoms: C4_5  and  C5_6
REMARK    4  A    between atoms: C5_6  and  C8_9
REMARK    5  A    between atoms: C11_12  and  C13_14
REMARK    6  A    between atoms: C13_14  and  C14_16
REMARK    7  A    between atoms: C14_16  and  O3_17
REMARK    8  A    between atoms: C19_23  and  O4_24
ROOT
HETATM    1  C8  UNL     1     -14.554  -6.827 -11.787  1.00  0.00     0.029 C
HETATM    2  C9  UNL     1     -13.820  -6.540 -10.495  1.00  0.00    -0.015 C
HETATM    3  C10 UNL     1     -14.030  -5.232 -10.495  1.00  0.00    -0.059 C
HETATM    4  C11 UNL     1     -13.878  -3.893  -9.897  1.00  0.00     0.044 C
HETATM    5  C12 UNL     1     -15.087  -3.427  -9.115  1.00  0.00     0.028 C
HETATM    6  C20 UNL     1     -13.726  -2.891 -11.051  1.00  0.00     0.022 C
HETATM    7  C21 UNL     1     -14.787  -3.000 -12.079  1.00  0.00     0.002 C
HETATM    8  C22 UNL     1     -14.794  -4.400 -12.716  1.00  0.00     0.014 C
HETATM    9  C23 UNL     1     -14.913  -5.454 -11.715  1.00  0.00    -0.012 C
HETATM   10  C24 UNL     1     -16.386  -5.353 -11.181  1.00  0.00     0.021 C
ENDROOT
BRANCH   4  11
HETATM   11  C13 UNL     1     -12.657  -3.770  -9.079  1.00  0.00     0.176 C
HETATM   12  O2  UNL     1     -11.889  -2.850  -9.288  1.00  0.00    -0.293 OA
BRANCH  11  13
HETATM   13  C14 UNL     1     -12.274  -4.706  -7.989  1.00  0.00     0.144 C
HETATM   14  C15 UNL     1     -11.208  -5.631  -8.526  1.00  0.00     0.049 C
HETATM   15  C16 UNL     1     -10.543  -6.316  -7.336  1.00  0.00     0.004 C
HETATM   16  C17 UNL     1      -9.617  -5.356  -6.608  1.00  0.00     0.003 C
HETATM   17  C18 UNL     1     -10.116  -3.961  -6.940  1.00  0.00     0.035 C
HETATM   18  C19 UNL     1     -11.617  -3.915  -6.861  1.00  0.00     0.160 C
BRANCH  13  19
HETATM   19  O3  UNL     1     -13.296  -5.475  -7.498  1.00  0.00    -0.379 OA
ATOM     20  H3  UNL     1     -13.059  -6.369  -7.280  1.00  0.00     0.211 HD
ENDBRANCH  13  19
BRANCH  18  21
HETATM   21  O4  UNL     1     -11.985  -4.393  -5.605  1.00  0.00    -0.392 OA
ATOM     22  H4  UNL     1     -12.853  -4.781  -5.613  1.00  0.00     0.210 HD
ENDBRANCH  18  21
ENDBRANCH  11  13
ENDBRANCH   4  11
BRANCH   1  23
HETATM   23  C5  UNL     1     -13.616  -7.501 -12.725  1.00  0.00    -0.033 C
HETATM   24  C6  UNL     1     -13.655  -8.998 -12.646  1.00  0.00     0.016 C
HETATM   25  C7  UNL     1     -13.728  -6.968 -14.139  1.00  0.00     0.016 C
BRANCH  23  26
HETATM   26  C4  UNL     1     -12.194  -7.086 -12.289  1.00  0.00     0.087 C
BRANCH  26  27
HETATM   27  C3  UNL     1     -11.392  -6.493 -13.345  1.00  0.00     0.127 C
HETATM   28  O1  UNL     1     -10.831  -7.173 -14.176  1.00  0.00    -0.298 OA
BRANCH  27  29
HETATM   29  C2  UNL     1     -11.210  -5.013 -13.475  1.00  0.00     0.074 C
HETATM   30  C1  UNL     1     -10.639  -4.395 -12.226  1.00  0.00     0.013 C
ENDBRANCH  27  29
ENDBRANCH  26  27
ENDBRANCH  23  26
ENDBRANCH   1  23
TORSDOF 8
ENDMDL