MODEL 2
REMARK VINA RESULT: -8.296750386      0.305      1.007
REMARK  8 active torsions:
REMARK  status: ('A' for Active; 'I' for Inactive)
REMARK    1  A    between atoms: N1_4  and  C4_5
REMARK    2  A    between atoms: C4_5  and  C5_6
REMARK    3  A    between atoms: C5_6  and  C6_7
REMARK    4  A    between atoms: N2_17  and  C14_18
REMARK    5  A    between atoms: C16_21  and  C17_22
REMARK    6  A    between atoms: C17_22  and  O2_23
REMARK    7  A    between atoms: C17_22  and  N3_25
REMARK    8  A    between atoms: N3_25  and  O3_27
ROOT
HETATM    1  C1  UNL     1     -21.430  -0.397 -10.981  1.00  0.00     0.034 C
HETATM    2  C2  UNL     1     -22.067  -0.753 -12.317  1.00  0.00     0.107 C
HETATM    3  C3  UNL     1     -21.022  -0.361 -13.379  1.00  0.00     0.149 C
HETATM    4  N1  UNL     1     -20.686   1.041 -13.218  1.00  0.00    -0.365 N
HETATM    5  C12 UNL     1     -21.808   1.909 -13.184  1.00  0.00     0.167 C
HETATM    6  S1  UNL     1     -21.654   3.503 -13.522  1.00  0.00    -0.054 SA
HETATM    7  C13 UNL     1     -23.140   1.345 -12.823  1.00  0.00     0.286 C
HETATM    8  O1  UNL     1     -24.083   2.154 -12.807  1.00  0.00    -0.265 OA
HETATM    9  N2  UNL     1     -23.298  -0.020 -12.521  1.00  0.00    -0.305 N
ENDROOT
BRANCH   9  10
HETATM   10  C14 UNL     1     -24.586  -0.689 -12.403  1.00  0.00     0.046 A
HETATM   11  C15 UNL     1     -25.222  -1.125 -13.556  1.00  0.00     0.080 A
HETATM   12  S2  UNL     1     -26.660  -1.818 -12.993  1.00  0.00    -0.095 SA
HETATM   13  C16 UNL     1     -26.455  -1.557 -11.324  1.00  0.00     0.059 A
HETATM   14  C18 UNL     1     -25.241  -0.921 -11.248  1.00  0.00     0.053 A
BRANCH  13  15
HETATM   15  C17 UNL     1     -27.373  -1.920 -10.212  1.00  0.00     0.177 C
BRANCH  15  16
HETATM   16  O2  UNL     1     -28.438  -1.115  -9.880  1.00  0.00    -0.344 OA
ATOM     17  H2  UNL     1     -29.148  -1.440  -9.338  1.00  0.00     0.219 HD
ENDBRANCH  15  16
BRANCH  15  18
HETATM   18  N3  UNL     1     -27.161  -2.996  -9.563  1.00  0.00    -0.246 N
ATOM     19  H3  UNL     1     -27.066  -3.879 -10.065  1.00  0.00     0.196 HD
BRANCH  18  20
HETATM   20  O3  UNL     1     -27.060  -2.977  -8.202  1.00  0.00    -0.288 OA
ATOM     21  H3  UNL     1     -27.786  -3.261  -7.660  1.00  0.00     0.244 HD
ENDBRANCH  18  20
ENDBRANCH  15  18
ENDBRANCH  13  15
ENDBRANCH   9  10
BRANCH   4  22
HETATM   22  C4  UNL     1     -19.380   1.564 -13.069  1.00  0.00     0.124 C
BRANCH  22  23
HETATM   23  C5  UNL     1     -18.328   1.008 -13.941  1.00  0.00     0.024 C
BRANCH  23  24
HETATM   24  C6  UNL     1     -17.275   2.074 -14.192  1.00  0.00    -0.013 C
HETATM   25  C7  UNL     1     -17.893   3.200 -15.040  1.00  0.00     0.005 C
HETATM   26  C8  UNL     1     -16.847   4.292 -15.075  1.00  0.00     0.000 C
HETATM   27  C9  UNL     1     -15.755   3.799 -15.993  1.00  0.00     0.000 C
HETATM   28  C10 UNL     1     -15.226   2.461 -15.629  1.00  0.00     0.000 C
HETATM   29  C11 UNL     1     -16.180   1.487 -15.040  1.00  0.00     0.005 C
ENDBRANCH  23  24
ENDBRANCH  22  23
ENDBRANCH   4  22
TORSDOF 8
ENDMDL