MODEL 4
REMARK VINA RESULT: -8.770999346      2.962     10.561
REMARK  8 active torsions:
REMARK  status: ('A' for Active; 'I' for Inactive)
REMARK    1  A    between atoms: C3_3  and  O1_4
REMARK    2  A    between atoms: C4_6  and  C5_7
REMARK    3  A    between atoms: C5_7  and  O2_8
REMARK    4  A    between atoms: C5_7  and  N1_10
REMARK    5  A    between atoms: N1_10  and  C6_12
REMARK    6  A    between atoms: N2_20  and  C14_21
REMARK    7  A    between atoms: C17_24  and  C18_25
REMARK    8  A    between atoms: C18_25  and  C19_26
ROOT
HETATM    1  C1  UNL     1     -22.586   3.321 -12.961  1.00  0.00     0.071 C
HETATM    2  C2  UNL     1     -21.371   2.571 -13.395  1.00  0.00     0.042 A
HETATM    3  C3  UNL     1     -20.190   3.097 -13.823  1.00  0.00     0.104 A
HETATM    4  C4  UNL     1     -19.324   2.045 -14.120  1.00  0.00     0.072 A
HETATM    5  C12 UNL     1     -20.045   0.907 -13.848  1.00  0.00     0.025 A
HETATM    6  C13 UNL     1     -19.512  -0.477 -14.009  1.00  0.00     0.069 C
HETATM    7  N2  UNL     1     -21.300   1.235 -13.405  1.00  0.00    -0.346 N
ENDROOT
BRANCH   4   8
HETATM    8  C5  UNL     1     -17.973   2.259 -14.607  1.00  0.00     0.151 C
BRANCH   8   9
HETATM    9  O2  UNL     1     -17.579   3.507 -14.625  1.00  0.00    -0.346 OA
ATOM     10  H2  UNL     1     -17.061   3.757 -15.381  1.00  0.00     0.219 HD
ENDBRANCH   8   9
BRANCH   8  11
HETATM   11  N1  UNL     1     -17.055   1.294 -15.054  1.00  0.00    -0.366 N
ATOM     12  H1  UNL     1     -17.267   0.743 -15.886  1.00  0.00     0.162 HD
BRANCH  11  13
HETATM   13  C6  UNL     1     -15.798   1.071 -14.337  1.00  0.00     0.083 C
HETATM   14  C7  UNL     1     -16.035   0.881 -12.851  1.00  0.00     0.025 C
HETATM   15  C8  UNL     1     -14.707   0.358 -12.292  1.00  0.00     0.002 C
HETATM   16  C9  UNL     1     -13.636   1.395 -12.476  1.00  0.00     0.000 C
HETATM   17  C10 UNL     1     -13.517   1.818 -13.910  1.00  0.00     0.002 C
HETATM   18  C11 UNL     1     -14.829   2.188 -14.531  1.00  0.00     0.025 C
ENDBRANCH  11  13
ENDBRANCH   8  11
ENDBRANCH   4   8
BRANCH   3  19
HETATM   19  O1  UNL     1     -19.954   4.453 -13.923  1.00  0.00    -0.358 OA
ATOM     20  H1  UNL     1     -19.132   4.860 -13.678  1.00  0.00     0.217 HD
ENDBRANCH   3  19
BRANCH   7  21
HETATM   21  C14 UNL     1     -22.246   0.240 -13.064  1.00  0.00     0.090 C
HETATM   22  C15 UNL     1     -23.681   0.522 -13.193  1.00  0.00     0.026 C
HETATM   23  C16 UNL     1     -24.453  -0.785 -12.930  1.00  0.00     0.007 C
HETATM   24  C17 UNL     1     -23.906  -1.713 -11.947  1.00  0.00    -0.014 C
HETATM   25  C22 UNL     1     -22.499  -1.546 -11.462  1.00  0.00     0.007 C
HETATM   26  C23 UNL     1     -22.055  -0.138 -11.587  1.00  0.00     0.026 C
BRANCH  24  27
HETATM   27  C18 UNL     1     -24.830  -2.127 -10.818  1.00  0.00     0.013 C
BRANCH  27  28
HETATM   28  C19 UNL     1     -26.121  -1.489 -10.663  1.00  0.00     0.034 C
HETATM   29  C20 UNL     1     -26.949  -1.875  -9.431  1.00  0.00     0.174 C
HETATM   30  O3  UNL     1     -28.078  -1.536 -10.226  1.00  0.00    -0.390 OA
HETATM   31  C21 UNL     1     -27.336  -1.851 -11.428  1.00  0.00     0.174 C
ENDBRANCH  27  28
ENDBRANCH  24  27
ENDBRANCH   7  21
TORSDOF 8
ENDMDL