MODEL 5
REMARK VINA RESULT: -5.310773303     11.081     13.872
REMARK  3 active torsions:
REMARK  status: ('A' for Active; 'I' for Inactive)
REMARK       I    between atoms: C1_2  and  N1_3
REMARK       I    between atoms: C1_2  and  N2_16
REMARK    1  A    between atoms: N1_3  and  C2_5
REMARK    2  A    between atoms: C2_5  and  C3_6
REMARK    3  A    between atoms: C4_7  and  C5_8
ROOT
HETATM    1  C5  UNL     1      91.323  92.438 -46.353  1.00  0.00    -0.003 C
HETATM    2  C6  UNL     1      91.715  92.704 -45.232  1.00  0.00    -0.009 C
HETATM    3 BR1  UNL     1      92.331  93.139 -43.503  1.00  0.00     0.011 Br
ENDROOT
BRANCH   1   4
HETATM    4  C4  UNL     1      90.848  92.135 -47.648  1.00  0.00    -0.012 C
HETATM    5  C3  UNL     1      90.427  91.892 -48.752  1.00  0.00    -0.061 C
BRANCH   5   6
HETATM    6  C2  UNL     1      89.893  91.612 -50.108  1.00  0.00     0.099 C
HETATM    7  C7  UNL     1      88.940  92.711 -50.517  1.00  0.00     0.044 C
HETATM    8  C8  UNL     1      89.709  93.910 -51.042  1.00  0.00     0.004 C
HETATM    9  C9  UNL     1      90.398  93.609 -52.349  1.00  0.00     0.000 C
HETATM   10  C10 UNL     1      90.570  92.128 -52.463  1.00  0.00     0.004 C
HETATM   11  C11 UNL     1      90.999  91.559 -51.104  1.00  0.00     0.044 C
BRANCH   6  12
HETATM   12  N1  UNL     1      89.154  90.370 -49.988  1.00  0.00    -0.323 N
HETATM   13  C1  UNL     1      89.814  89.134 -49.746  1.00  0.00     0.324 C
HETATM   14  O1  UNL     1      91.107  89.143 -49.630  1.00  0.00    -0.247 OA
HETATM   15  N2  UNL     1      89.186  87.901 -49.620  1.00  0.00    -0.264 N
HETATM   16  C12 UNL     1      89.912  86.648 -49.343  1.00  0.00     0.259 C
HETATM   17  C14 UNL     1      87.818  87.522 -49.709  1.00  0.00     0.322 C
HETATM   18  N3  UNL     1      89.217  85.761 -50.290  1.00  0.00    -0.339 N
HETATM   19  C13 UNL     1      87.888  86.214 -50.426  1.00  0.00     0.292 C
ATOM     20  H3  UNL     1      89.626  84.957 -50.766  1.00  0.00     0.164 HD
HETATM   21  O2  UNL     1      86.937  85.668 -51.013  1.00  0.00    -0.267 OA
HETATM   22  F1  UNL     1      86.994  88.397 -50.386  1.00  0.00    -0.195 F
HETATM   23 BR2  UNL     1      87.092  87.136 -47.945  1.00  0.00    -0.013 Br
ATOM     24  H1  UNL     1      88.139  90.383 -50.079  1.00  0.00     0.166 HD
ENDBRANCH   6  12
ENDBRANCH   5   6
ENDBRANCH   1   4
TORSDOF 3
ENDMDL