MODEL 5
REMARK VINA RESULT: -4.688422692      2.561      3.431
REMARK  3 active torsions:
REMARK  status: ('A' for Active; 'I' for Inactive)
REMARK    1  A    between atoms: C1_4  and  C2_5
REMARK    2  A    between atoms: C1_4  and  N2_8
REMARK    3  A    between atoms: C8_15  and  C9_16
ROOT
HETATM    1  N2  UNL     1      91.680 100.164 -43.996  1.00  0.00    -0.366 N
HETATM    2  C3  UNL     1      91.643  99.554 -45.309  1.00  0.00     0.152 C
HETATM    3  C4  UNL     1      91.881  98.067 -45.054  1.00  0.00     0.257 C
HETATM    4  N3  UNL     1      90.858  97.496 -44.245  1.00  0.00    -0.063 N
HETATM    5  C5  UNL     1      89.614  97.366 -44.976  1.00  0.00     0.237 C
HETATM    6  C6  UNL     1      89.712  96.520 -46.198  1.00  0.00     0.029 C
HETATM    7  C7  UNL     1      90.476  95.266 -46.064  1.00  0.00     0.019 C
HETATM    8  C8  UNL     1      91.622  95.304 -45.095  1.00  0.00     0.113 C
HETATM    9  C10 UNL     1      91.259  96.138 -43.904  1.00  0.00     0.253 C
HETATM   10  C11 UNL     1      90.597  98.178 -43.013  1.00  0.00     0.257 C
HETATM   11  C12 UNL     1      90.783  99.636 -42.999  1.00  0.00     0.152 C
ENDROOT
BRANCH   8  12
HETATM   12  C9  UNL     1      91.928  93.948 -44.615  1.00  0.00     0.178 C
HETATM   13  O1  UNL     1      91.897  92.985 -45.395  1.00  0.00    -0.648 OA
HETATM   14  O2  UNL     1      92.252  93.742 -43.299  1.00  0.00    -0.648 OA
ENDBRANCH   8  12
BRANCH   1  15
HETATM   15  C1  UNL     1      92.572 101.229 -43.730  1.00  0.00     0.098 C
HETATM   16  N1  UNL     1      93.193 101.772 -44.719  1.00  0.00    -0.387 N
ATOM     17  H12 UNL     1      93.836 102.541 -44.528  1.00  0.00     0.157 HD
ATOM     18  H11 UNL     1      93.045 101.441 -45.673  1.00  0.00     0.157 HD
BRANCH  15  19
HETATM   19  C2  UNL     1      92.787 101.710 -42.345  1.00  0.00     0.196 C
HETATM   20 BR1  UNL     1      91.433 102.981 -41.814  1.00  0.00    -0.071 Br
HETATM   21 BR2  UNL     1      94.566 102.467 -42.138  1.00  0.00    -0.071 Br
ENDBRANCH  15  19
ENDBRANCH   1  15
TORSDOF 3
ENDMDL