MODEL 4
REMARK VINA RESULT: -4.743626546      3.361      4.177
REMARK  5 active torsions:
REMARK  status: ('A' for Active; 'I' for Inactive)
REMARK       I    between atoms: N3_4  and  C2_6
REMARK       I    between atoms: N5_8  and  C3_10
REMARK    1  A    between atoms: C3_10  and  C4_12
REMARK    2  A    between atoms: C4_12  and  C5_14
REMARK    3  A    between atoms: C5_14  and  C6_15
REMARK    4  A    between atoms: C6_15  and  C7_17
REMARK    5  A    between atoms: C7_17  and  C8_18
ROOT
HETATM    1  N1  UNL     1      87.972  99.468 -46.113  1.00  0.00    -0.066 NA
HETATM    2  C1  UNL     1      88.954  98.483 -46.351  1.00  0.00     0.203 C
HETATM    3  N2  UNL     1      90.016  98.774 -47.255  1.00  0.00    -0.066 NA
HETATM    4  N3  UNL     1      88.841  97.347 -45.727  1.00  0.00    -0.307 N
ATOM      5  H3  UNL     1      88.061  97.193 -45.089  1.00  0.00     0.170 HD
HETATM    6  C2  UNL     1      89.806  96.317 -45.933  1.00  0.00     0.197 C
HETATM    7  N4  UNL     1      89.800  95.495 -47.082  1.00  0.00    -0.063 NA
HETATM    8  N5  UNL     1      90.708  96.146 -45.027  1.00  0.00    -0.296 N
ATOM      9  H5  UNL     1      90.727  96.729 -44.190  1.00  0.00     0.171 HD
HETATM   10  C3  UNL     1      91.650  95.147 -45.223  1.00  0.00     0.265 C
HETATM   11  O1  UNL     1      92.703  95.429 -45.879  1.00  0.00    -0.267 OA
ENDROOT
BRANCH  10  12
HETATM   12  C4  UNL     1      91.517  93.788 -44.729  1.00  0.00     0.080 C
HETATM   13 BR1  UNL     1      91.655  92.323 -45.952  1.00  0.00    -0.045 Br
BRANCH  12  14
HETATM   14  C5  UNL     1      91.315  93.617 -43.466  1.00  0.00     0.052 C
BRANCH  14  15
HETATM   15  C6  UNL     1      92.163  94.058 -42.384  1.00  0.00     0.058 C
HETATM   16 BR2  UNL     1      93.553  92.795 -41.823  1.00  0.00    -0.042 Br
BRANCH  15  17
HETATM   17  C7  UNL     1      92.104  95.143 -41.789  1.00  0.00    -0.102 C
BRANCH  17  18
HETATM   18  C8  UNL     1      92.037  96.380 -41.110  1.00  0.00     0.112 C
HETATM   19 BR3  UNL     1      92.022  98.040 -42.053  1.00  0.00    -0.055 Br
ENDBRANCH  17  18
ENDBRANCH  15  17
ENDBRANCH  14  15
ENDBRANCH  12  14
ENDBRANCH  10  12
TORSDOF 5
ENDMDL