MODEL 5
REMARK VINA RESULT: -5.043086561      3.888      6.411
REMARK  2 active torsions:
REMARK  status: ('A' for Active; 'I' for Inactive)
REMARK       I    between atoms: C1_2  and  N3_16
REMARK       I    between atoms: N2_3  and  C2_5
REMARK    1  A    between atoms: C2_5  and  C3_7
REMARK    2  A    between atoms: C3_7  and  C4_8
ROOT
HETATM    1  N1  UNL     1      91.579 100.963 -43.321  1.00  0.00    -0.063 NA
HETATM    2  C1  UNL     1      90.750 100.557 -42.232  1.00  0.00     0.196 C
HETATM    3  N2  UNL     1      90.187  99.405 -42.194  1.00  0.00    -0.301 N
ATOM      4  H2  UNL     1      89.598  99.137 -41.406  1.00  0.00     0.171 HD
HETATM    5  C2  UNL     1      90.403  98.519 -43.271  1.00  0.00     0.226 C
HETATM    6  O1  UNL     1      91.194  97.567 -43.139  1.00  0.00    -0.273 OA
HETATM    7  N3  UNL     1      90.529 101.448 -41.145  1.00  0.00    -0.320 N
ATOM      8  H3  UNL     1      89.639 101.932 -41.034  1.00  0.00     0.169 HD
HETATM    9  C9  UNL     1      91.490 101.623 -40.308  1.00  0.00     0.079 C
HETATM   10  C10 UNL     1      92.823 101.012 -40.319  1.00  0.00     0.078 C
HETATM   11  C11 UNL     1      93.663 101.953 -39.484  1.00  0.00     0.027 C
HETATM   12  C12 UNL     1      92.731 102.820 -38.703  1.00  0.00     0.121 C
HETATM   13  N4  UNL     1      91.401 102.487 -39.176  1.00  0.00    -0.380 N
ATOM     14  H4  UNL     1      90.531 102.821 -38.761  1.00  0.00     0.160 HD
ENDROOT
BRANCH   5  15
HETATM   15  C3  UNL     1      89.695  98.724 -44.543  1.00  0.00     0.135 C
BRANCH  15  16
HETATM   16  C4  UNL     1      88.256  98.281 -44.369  1.00  0.00     0.133 C
HETATM   17  C5  UNL     1      87.601  98.071 -45.684  1.00  0.00     0.048 C
HETATM   18  C6  UNL     1      86.115  98.128 -45.698  1.00  0.00     0.063 C
HETATM   19 BR1  UNL     1      85.366  96.357 -46.049  1.00  0.00    -0.091 Br
HETATM   20  C7  UNL     1      85.493  98.619 -44.436  1.00  0.00     0.059 C
HETATM   21  C8  UNL     1      86.435  99.611 -43.797  1.00  0.00     0.194 C
HETATM   22 BR2  UNL     1      86.546 101.204 -44.909  1.00  0.00    -0.061 Br
HETATM   23  O2  UNL     1      87.642  99.094 -43.482  1.00  0.00    -0.369 OA
ENDBRANCH  15  16
ENDBRANCH   5  15
TORSDOF 2
ENDMDL