MODEL 3
REMARK VINA RESULT: -5.301739949      1.545      1.862
REMARK  5 active torsions:
REMARK  status: ('A' for Active; 'I' for Inactive)
REMARK    1  A    between atoms: C2_2  and  C3_3
REMARK    2  A    between atoms: C3_3  and  N1_4
REMARK       I    between atoms: N4_13  and  C9_14
REMARK    3  A    between atoms: C9_14  and  C10_16
REMARK    4  A    between atoms: C11_17  and  C12_18
REMARK    5  A    between atoms: C14_21  and  C15_22
ROOT
HETATM    1  C15 UNL     1      89.724  98.573 -43.982  1.00  0.00    -0.082 C
HETATM    2  C16 UNL     1      88.532  98.474 -44.195  1.00  0.00    -0.023 C
HETATM    3 BR1  UNL     1      86.687  98.324 -44.509  1.00  0.00     0.010 Br
ENDROOT
BRANCH   1   4
HETATM    4  C14 UNL     1      91.149  98.678 -43.711  1.00  0.00     0.046 C
HETATM    5  C7  UNL     1      91.893  98.459 -45.039  1.00  0.00     0.026 C
HETATM    6  C6  UNL     1      91.395  99.491 -45.981  1.00  0.00     0.009 C
HETATM    7  C8  UNL     1      91.511  97.055 -45.327  1.00  0.00     0.133 C
HETATM    8  C5  UNL     1      91.948 100.826 -45.464  1.00  0.00     0.011 C
HETATM    9  C2  UNL     1      91.565 101.122 -44.067  1.00  0.00    -0.026 C
HETATM   10  C1  UNL     1      90.223 101.862 -44.097  1.00  0.00     0.017 C
HETATM   11  C17 UNL     1      91.555  99.977 -43.125  1.00  0.00     0.035 C
HETATM   12  N4  UNL     1      91.554  96.445 -44.009  1.00  0.00    -0.339 N
HETATM   13  C9  UNL     1      91.551  95.047 -43.788  1.00  0.00     0.298 C
HETATM   14  C13 UNL     1      91.602  97.463 -42.976  1.00  0.00     0.149 C
HETATM   15  O1  UNL     1      91.592  94.587 -42.606  1.00  0.00    -0.258 OA
BRANCH   9  16
HETATM   16  C3  UNL     1      92.569 102.148 -43.523  1.00  0.00     0.131 C
BRANCH  16  17
HETATM   17  N1  UNL     1      93.336 102.725 -44.608  1.00  0.00    -0.366 N
HETATM   18  C4  UNL     1      93.896 103.861 -44.388  1.00  0.00     0.196 C
HETATM   19  N2  UNL     1      94.651 104.440 -45.444  1.00  0.00    -0.067 NA
HETATM   20  N3  UNL     1      93.813 104.578 -43.164  1.00  0.00    -0.067 NA
ATOM     21  H1  UNL     1      93.427 102.252 -45.507  1.00  0.00     0.161 HD
ENDBRANCH  16  17
ENDBRANCH   9  16
BRANCH  13  22
HETATM   22  C10 UNL     1      91.505  94.085 -44.841  1.00  0.00    -0.003 C
HETATM   23  C11 UNL     1      91.470  93.257 -45.717  1.00  0.00    -0.065 C
BRANCH  23  24
HETATM   24  C12 UNL     1      91.448  92.243 -46.776  1.00  0.00     0.316 C
HETATM   25  F1  UNL     1      91.204  91.015 -46.215  1.00  0.00    -0.242 F
ENDBRANCH  23  24
ENDBRANCH  13  22
ENDBRANCH   1   4
TORSDOF 5
ENDMDL