MODEL 1
REMARK VINA RESULT: -5.373652401      0.000      0.000
REMARK  5 active torsions:
REMARK  status: ('A' for Active; 'I' for Inactive)
REMARK    1  A    between atoms: N1_2  and  C2_3
REMARK    2  A    between atoms: N2_6  and  C5_7
REMARK    3  A    between atoms: C5_7  and  C6_8
REMARK       I    between atoms: N3_11  and  C8_13
REMARK    4  A    between atoms: C13_20  and  C14_22
REMARK    5  A    between atoms: C14_22  and  N5_23
ROOT
HETATM    1  C6  UNL     1      91.587  94.084 -44.743  1.00  0.00    -0.018 C
HETATM    2  C7  UNL     1      91.481  93.275 -45.640  1.00  0.00    -0.015 C
HETATM    3 BR1  UNL     1      91.332  91.993 -47.019  1.00  0.00     0.011 Br
ENDROOT
BRANCH   1   4
HETATM    4  C5  UNL     1      91.733  95.029 -43.680  1.00  0.00     0.164 C
HETATM    5  N3  UNL     1      92.195  94.677 -42.557  1.00  0.00    -0.290 N
HETATM    6  C8  UNL     1      92.613  93.390 -42.187  1.00  0.00     0.334 C
ATOM      7  H3  UNL     1      92.272  95.404 -41.846  1.00  0.00     0.172 HD
HETATM    8  N4  UNL     1      93.774  93.211 -41.386  1.00  0.00    -0.040 NA
HETATM    9  O1  UNL     1      91.950  92.388 -42.570  1.00  0.00    -0.251 OA
BRANCH   4  10
HETATM   10  N2  UNL     1      91.352  96.370 -43.906  1.00  0.00    -0.360 N
HETATM   11  C4  UNL     1      91.352  97.337 -42.805  1.00  0.00     0.127 C
HETATM   12  C3  UNL     1      90.364  98.430 -43.074  1.00  0.00     0.053 C
HETATM   13  C2  UNL     1      90.556  99.133 -44.377  1.00  0.00     0.193 C
HETATM   14  C10 UNL     1      91.465  98.332 -45.250  1.00  0.00     0.053 C
HETATM   15  C9  UNL     1      90.946  96.885 -45.198  1.00  0.00     0.127 C
BRANCH  13  16
HETATM   16  N1  UNL     1      90.968 100.521 -44.231  1.00  0.00    -0.066 N
HETATM   17  C1  UNL     1      90.322 101.321 -45.283  1.00  0.00     0.273 C
HETATM   18  C11 UNL     1      90.409 100.989 -42.982  1.00  0.00     0.240 C
HETATM   19  C12 UNL     1      90.800 102.425 -42.677  1.00  0.00     0.073 C
HETATM   20  C13 UNL     1      92.277 102.608 -42.682  1.00  0.00     0.130 C
HETATM   21  F1  UNL     1      92.655 102.754 -41.334  1.00  0.00    -0.241 F
HETATM   22  C15 UNL     1      93.054 101.526 -43.336  1.00  0.00     0.073 C
HETATM   23  C16 UNL     1      92.371 100.658 -44.303  1.00  0.00     0.240 C
BRANCH  20  24
HETATM   24  C14 UNL     1      92.633 103.980 -43.280  1.00  0.00     0.273 C
BRANCH  24  25
HETATM   25  N5  UNL     1      91.497 104.514 -43.993  1.00  0.00    -0.076 N
ATOM     26  H53 UNL     1      91.437 104.152 -44.945  1.00  0.00     0.274 HD
ATOM     27  H52 UNL     1      90.614 104.145 -43.639  1.00  0.00     0.274 HD
ATOM     28  H51 UNL     1      91.521 105.533 -43.971  1.00  0.00     0.274 HD
ENDBRANCH  24  25
ENDBRANCH  20  24
ENDBRANCH  13  16
ENDBRANCH   4  10
ENDBRANCH   1   4
TORSDOF 5
ENDMDL