MODEL 1
REMARK VINA RESULT: -5.341473709      0.000      0.000
REMARK  2 active torsions:
REMARK  status: ('A' for Active; 'I' for Inactive)
REMARK    1  A    between atoms: C5_5  and  C6_6
REMARK       I    between atoms: N2_9  and  C7_10
REMARK       I    between atoms: C7_10  and  N4_19
REMARK       I    between atoms: N3_11  and  C8_13
REMARK    2  A    between atoms: C8_13  and  C9_15
ROOT
HETATM    1  C1  UNL     1      86.493  97.802 -44.684  1.00  0.00     0.012 C
HETATM    2  C2  UNL     1      87.496  98.414 -44.430  1.00  0.00    -0.111 C
HETATM    3  C3  UNL     1      88.720  99.142 -44.139  1.00  0.00     0.085 C
HETATM    4  C4  UNL     1      89.721  98.937 -45.287  1.00  0.00     0.054 C
HETATM    5  C5  UNL     1      90.970  99.529 -44.623  1.00  0.00     0.192 C
HETATM    6  N2  UNL     1      90.889  98.981 -43.297  1.00  0.00    -0.203 N
HETATM    7  C7  UNL     1      91.885  98.826 -42.298  1.00  0.00     0.679 C
HETATM    8  N3  UNL     1      92.261  99.835 -41.611  1.00  0.00    -0.158 N
ATOM      9  H3  UNL     1      92.978  99.683 -40.901  1.00  0.00     0.187 HD
HETATM   10  C8  UNL     1      91.752 101.154 -41.763  1.00  0.00     0.266 C
HETATM   11  O2  UNL     1      90.524 101.376 -41.889  1.00  0.00    -0.270 OA
HETATM   12  N4  UNL     1      92.488  97.571 -42.022  1.00  0.00    -0.230 N
ATOM     13  H4  UNL     1      93.504  97.515 -41.950  1.00  0.00     0.177 HD
HETATM   14  C11 UNL     1      91.708  96.373 -41.839  1.00  0.00     0.165 C
HETATM   15  C12 UNL     1      89.512  98.529 -43.013  1.00  0.00     0.159 C
ENDROOT
BRANCH   5  16
HETATM   16  C6  UNL     1      92.186  99.194 -45.369  1.00  0.00     0.254 C
HETATM   17  N1  UNL     1      92.671  97.914 -45.677  1.00  0.00    -0.060 NA
HETATM   18  O1  UNL     1      92.871 100.193 -45.781  1.00  0.00    -0.275 OA
ENDBRANCH   5  16
BRANCH  10  19
HETATM   19  C9  UNL     1      92.674 102.314 -41.776  1.00  0.00     0.153 C
HETATM   20  C10 UNL     1      93.668 102.119 -42.891  1.00  0.00     0.051 C
HETATM   21 BR1  UNL     1      93.675 102.414 -40.108  1.00  0.00    -0.063 Br
HETATM   22 BR2  UNL     1      91.724 103.967 -42.088  1.00  0.00    -0.063 Br
ENDBRANCH  10  19
TORSDOF 2
ENDMDL