MODEL 2
REMARK VINA RESULT: -4.409687375      2.414      3.006
REMARK  4 active torsions:
REMARK  status: ('A' for Active; 'I' for Inactive)
REMARK       I    between atoms: N1_2  and  C3_4
REMARK    1  A    between atoms: C3_4  and  C4_6
REMARK       I    between atoms: N2_9  and  C7_10
REMARK    2  A    between atoms: N4_12  and  C8_14
REMARK    3  A    between atoms: C8_14  and  N5_16
REMARK    4  A    between atoms: N5_16  and  C9_18
ROOT
HETATM    1  C4  UNL     1      90.989  97.406 -44.856  1.00  0.00     0.081 C
HETATM    2  C5  UNL     1      92.216  98.180 -45.266  1.00  0.00     0.034 C
HETATM    3  C6  UNL     1      92.664  99.160 -44.205  1.00  0.00     0.126 C
HETATM    4  N2  UNL     1      91.540  99.914 -43.677  1.00  0.00    -0.355 N
HETATM    5  C7  UNL     1      91.721 100.789 -42.608  1.00  0.00     0.192 C
HETATM    6  N3  UNL     1      92.333 100.338 -41.411  1.00  0.00    -0.063 NA
HETATM    7  N4  UNL     1      91.318 102.016 -42.740  1.00  0.00    -0.307 N
ATOM      8  H4  UNL     1      90.884 102.295 -43.620  1.00  0.00     0.171 HD
HETATM    9  C11 UNL     1      90.272  99.676 -44.340  1.00  0.00     0.126 C
HETATM   10  C12 UNL     1      89.952  98.208 -44.148  1.00  0.00     0.034 C
ENDROOT
BRANCH   7  11
HETATM   11  C8  UNL     1      91.454 102.989 -41.714  1.00  0.00     0.176 C
HETATM   12  S1  UNL     1      90.190 103.864 -41.166  1.00  0.00    -0.041 SA
BRANCH  11  13
HETATM   13  N5  UNL     1      92.737 103.205 -41.145  1.00  0.00    -0.336 N
ATOM     14  H5  UNL     1      92.955 102.823 -40.225  1.00  0.00     0.164 HD
BRANCH  13  15
HETATM   15  C9  UNL     1      93.751 103.974 -41.872  1.00  0.00     0.164 C
HETATM   16  C10 UNL     1      94.791 103.066 -42.469  1.00  0.00     0.070 C
HETATM   17 CL1  UNL     1      92.932 104.859 -43.166  1.00  0.00    -0.083 Cl
HETATM   18 BR1  UNL     1      94.527 105.263 -40.662  1.00  0.00    -0.044 Br
ENDBRANCH  13  15
ENDBRANCH  11  13
ENDBRANCH   7  11
BRANCH   1  19
HETATM   19  C3  UNL     1      91.354  96.253 -43.965  1.00  0.00     0.223 C
HETATM   20  N1  UNL     1      91.490  94.941 -44.460  1.00  0.00    -0.360 N
HETATM   21  C1  UNL     1      91.292  94.663 -45.853  1.00  0.00     0.152 C
HETATM   22  C2  UNL     1      91.830  93.872 -43.560  1.00  0.00     0.152 C
HETATM   23  O1  UNL     1      91.532  96.534 -42.738  1.00  0.00    -0.273 OA
ENDBRANCH   1  19
TORSDOF 4
ENDMDL