MODEL 1
REMARK VINA RESULT: -7.041536917      0.000      0.000
REMARK  5 active torsions:
REMARK  status: ('A' for Active; 'I' for Inactive)
REMARK    1  A    between atoms: N2_4  and  N3_6
REMARK       I    between atoms: N3_6  and  C1_8
REMARK       I    between atoms: C1_8  and  N4_10
REMARK       I    between atoms: C2_12  and  N5_13
REMARK       I    between atoms: C2_12  and  N7_26
REMARK    2  A    between atoms: C3_15  and  C4_16
REMARK       I    between atoms: N6_21  and  C8_22
REMARK    3  A    between atoms: C8_22  and  C9_24
REMARK    4  A    between atoms: N7_26  and  C10_28
REMARK    5  A    between atoms: C10_28  and  C11_29
ROOT
HETATM    1  N3  UNL     1      91.572  95.655 -40.492  1.00  0.00    -0.237 N
ATOM      2  H3  UNL     1      91.852  95.970 -39.563  1.00  0.00     0.193 HD
HETATM    3  C1  UNL     1      91.514  96.572 -41.561  1.00  0.00     0.354 C
HETATM    4  O1  UNL     1      91.166  96.185 -42.717  1.00  0.00    -0.245 OA
HETATM    5  N4  UNL     1      91.849  97.932 -41.328  1.00  0.00    -0.140 N
ATOM      6  H4  UNL     1      92.373  98.150 -40.480  1.00  0.00     0.189 HD
HETATM    7  C2  UNL     1      91.541  98.908 -42.107  1.00  0.00     0.682 C
HETATM    8  N5  UNL     1      90.825  98.713 -43.294  1.00  0.00    -0.203 N
ATOM      9  H5  UNL     1      91.375  98.535 -44.134  1.00  0.00     0.183 HD
HETATM   10  C3  UNL     1      89.551  98.735 -43.435  1.00  0.00     0.104 C
HETATM   11  N7  UNL     1      91.961 100.206 -41.713  1.00  0.00    -0.222 N
ATOM     12  H7  UNL     1      92.961 100.383 -41.612  1.00  0.00     0.178 HD
ENDROOT
BRANCH  11  13
HETATM   13  C10 UNL     1      91.048 101.282 -41.449  1.00  0.00     0.176 C
BRANCH  13  14
HETATM   14  C11 UNL     1      91.474 102.073 -40.268  1.00  0.00    -0.040 A
HETATM   15  C12 UNL     1      92.803 102.086 -39.896  1.00  0.00     0.010 A
HETATM   16  C13 UNL     1      93.247 102.812 -38.798  1.00  0.00     0.019 A
HETATM   17  C14 UNL     1      92.296 103.517 -38.100  1.00  0.00     0.011 A
HETATM   18 BR2  UNL     1      92.868 104.533 -36.578  1.00  0.00    -0.051 Br
HETATM   19  C15 UNL     1      90.958 103.517 -38.459  1.00  0.00     0.019 A
HETATM   20  C16 UNL     1      90.528 102.785 -39.562  1.00  0.00     0.010 A
ENDBRANCH  13  14
ENDBRANCH  11  13
BRANCH  10  21
HETATM   21  C4  UNL     1      88.989  98.506 -44.782  1.00  0.00     0.127 C
HETATM   22  C5  UNL     1      90.050  98.959 -45.773  1.00  0.00     0.048 C
HETATM   23  C6  UNL     1      89.386 100.104 -46.521  1.00  0.00     0.078 C
HETATM   24 BR1  UNL     1      89.727 101.715 -45.541  1.00  0.00    -0.089 Br
HETATM   25  C7  UNL     1      87.930  99.693 -46.442  1.00  0.00     0.142 C
HETATM   26  N6  UNL     1      87.809  99.306 -45.050  1.00  0.00    -0.341 N
HETATM   27  C8  UNL     1      86.762  99.635 -44.138  1.00  0.00     0.234 C
HETATM   28  O2  UNL     1      86.806  99.217 -42.955  1.00  0.00    -0.272 OA
BRANCH  27  29
HETATM   29  C9  UNL     1      85.613 100.467 -44.567  1.00  0.00     0.217 C
HETATM   30 CL1  UNL     1      85.963 102.207 -44.495  1.00  0.00    -0.121 Cl
ENDBRANCH  27  29
ENDBRANCH  10  21
BRANCH   1  31
HETATM   31  N2  UNL     1      91.247  94.324 -40.705  1.00  0.00    -0.245 N
HETATM   32  N1  UNL     1      92.149  93.533 -41.112  1.00  0.00    -0.331 N
ATOM     33  H12 UNL     1      93.093  93.885 -41.275  1.00  0.00     0.178 HD
ATOM     34  H11 UNL     1      91.910  92.553 -41.269  1.00  0.00     0.178 HD
ATOM     35  H2  UNL     1      90.299  93.988 -40.537  1.00  0.00     0.208 HD
ENDBRANCH   1  31
TORSDOF 5
ENDMDL