MODEL 2
REMARK VINA RESULT: -6.298127197      6.415      9.907
REMARK  6 active torsions:
REMARK  status: ('A' for Active; 'I' for Inactive)
REMARK    1  A    between atoms: C3_4  and  C4_5
REMARK    2  A    between atoms: C4_5  and  C5_7
REMARK    3  A    between atoms: C5_7  and  C6_10
REMARK    4  A    between atoms: C9_14  and  C10_15
REMARK    5  A    between atoms: C10_15  and  N2_16
REMARK    6  A    between atoms: C12_20  and  C13_21
ROOT
HETATM    1  C1  UNL     1      93.847 102.715 -42.704  1.00  0.00     0.155 C
HETATM    2  N1  UNL     1      92.922 102.549 -41.616  1.00  0.00    -0.362 N
HETATM    3  C2  UNL     1      93.377 102.982 -40.412  1.00  0.00     0.105 A
HETATM    4  C3  UNL     1      92.619 102.903 -39.239  1.00  0.00     0.028 A
HETATM    5  C7  UNL     1      91.369 102.355 -39.371  1.00  0.00     0.018 A
HETATM    6  C8  UNL     1      90.923 101.916 -40.621  1.00  0.00     0.028 A
HETATM    7  C9  UNL     1      91.704 102.014 -41.748  1.00  0.00     0.029 A
ENDROOT
BRANCH   7   8
HETATM    8  C10 UNL     1      91.198 101.547 -43.030  1.00  0.00     0.186 C
BRANCH   8   9
HETATM    9  N2  UNL     1      90.785 100.143 -43.032  1.00  0.00    -0.345 N
HETATM   10  C11 UNL     1      89.680  99.602 -43.557  1.00  0.00     0.183 A
HETATM   11  N3  UNL     1      89.669  98.297 -43.348  1.00  0.00    -0.349 N
HETATM   12  C12 UNL     1      90.795  97.912 -42.657  1.00  0.00     0.077 A
ATOM     13  H3  UNL     1      88.930  97.664 -43.655  1.00  0.00     0.166 HD
HETATM   14  C17 UNL     1      91.465  99.094 -42.481  1.00  0.00     0.124 A
BRANCH  12  15
HETATM   15  C13 UNL     1      91.116  96.552 -42.254  1.00  0.00     0.079 A
HETATM   16  C14 UNL     1      91.385  96.114 -40.954  1.00  0.00     0.121 A
HETATM   17  N4  UNL     1      91.640  94.797 -40.954  1.00  0.00    -0.360 N
HETATM   18  C15 UNL     1      91.537  94.394 -42.230  1.00  0.00     0.182 A
ATOM     19  H4  UNL     1      91.868  94.217 -40.146  1.00  0.00     0.166 HD
HETATM   20  N5  UNL     1      91.217  95.473 -43.010  1.00  0.00    -0.344 N
HETATM   21  C16 UNL     1      91.033  95.374 -44.434  1.00  0.00     0.157 C
ENDBRANCH  12  15
ENDBRANCH   8   9
ENDBRANCH   7   8
BRANCH   4  22
HETATM   22  C4  UNL     1      93.171 103.410 -37.977  1.00  0.00     0.191 C
HETATM   23  O1  UNL     1      94.140 102.731 -37.473  1.00  0.00    -0.290 OA
BRANCH  22  24
HETATM   24  C5  UNL     1      92.746 104.582 -37.237  1.00  0.00     0.149 C
HETATM   25 BR1  UNL     1      94.327 105.613 -36.688  1.00  0.00    -0.063 Br
HETATM   26 BR2  UNL     1      91.686 105.752 -38.386  1.00  0.00    -0.063 Br
BRANCH  24  27
HETATM   27  C6  UNL     1      91.991 104.188 -36.006  1.00  0.00     0.126 C
HETATM   28 BR3  UNL     1      90.076 104.295 -36.376  1.00  0.00    -0.093 Br
ENDBRANCH  24  27
ENDBRANCH  22  24
ENDBRANCH   4  22
TORSDOF 6
ENDMDL