MODEL 3
REMARK VINA RESULT: -5.977871550      3.285      6.070
REMARK  10 active torsions:
REMARK  status: ('A' for Active; 'I' for Inactive)
REMARK    1  A    between atoms: C5_8  and  C6_9
REMARK    2  A    between atoms: C6_9  and  N2_10
REMARK    3  A    between atoms: N2_10  and  C7_11
REMARK    4  A    between atoms: C7_11  and  C8_12
REMARK    5  A    between atoms: C16_21  and  C17_22
REMARK    6  A    between atoms: C17_22  and  C18_23
REMARK    7  A    between atoms: C18_23  and  C19_24
REMARK       I    between atoms: C19_24  and  N3_26
REMARK    8  A    between atoms: N3_26  and  C20_28
REMARK    9  A    between atoms: C20_28  and  C21_29
REMARK   10  A    between atoms: C22_30  and  C23_31
ROOT
HETATM    1  C1  UNL     1      91.494  94.561 -41.262  1.00  0.00     0.049 C
HETATM    2  C2  UNL     1      91.268  94.854 -42.682  1.00  0.00    -0.044 A
HETATM    3  C3  UNL     1      91.372  93.743 -43.537  1.00  0.00     0.082 A
HETATM    4  C4  UNL     1      91.194  93.870 -44.884  1.00  0.00     0.246 A
HETATM    5  O1  UNL     1      91.288  92.867 -45.675  1.00  0.00    -0.268 OA
HETATM    6  N1  UNL     1      90.914  95.092 -45.363  1.00  0.00    -0.322 N
ATOM      7  H1  UNL     1      90.779  95.200 -46.368  1.00  0.00     0.169 HD
HETATM    8  C5  UNL     1      90.805  96.177 -44.585  1.00  0.00     0.069 A
HETATM    9  C16 UNL     1      90.982  96.092 -43.184  1.00  0.00    -0.005 A
ENDROOT
BRANCH   8  10
HETATM   10  C6  UNL     1      90.527  97.322 -45.168  1.00  0.00     0.239 C
BRANCH  10  11
HETATM   11  N2  UNL     1      89.222  97.746 -45.637  1.00  0.00    -0.010 N
HETATM   12  C9  UNL     1      89.315  98.791 -46.590  1.00  0.00     0.290 A
HETATM   13  C10 UNL     1      88.831  99.790 -45.609  1.00  0.00     0.004 A
HETATM   14  C11 UNL     1      88.501 101.087 -45.277  1.00  0.00     0.011 A
HETATM   15  C15 UNL     1      88.680  98.740 -44.729  1.00  0.00     0.150 A
HETATM   16  C12 UNL     1      87.994 101.323 -43.995  1.00  0.00     0.001 A
HETATM   17  C13 UNL     1      87.848 100.263 -43.132  1.00  0.00     0.002 A
HETATM   18  C14 UNL     1      88.184  98.981 -43.485  1.00  0.00     0.038 A
BRANCH  11  19
HETATM   19  C7  UNL     1      88.322  96.702 -45.916  1.00  0.00     0.261 C
BRANCH  19  20
HETATM   20  C8  UNL     1      87.007  97.006 -46.531  1.00  0.00     0.114 C
HETATM   21 BR1  UNL     1      85.499  96.933 -45.358  1.00  0.00    -0.095 Br
ENDBRANCH  19  20
ENDBRANCH  11  19
ENDBRANCH  10  11
ENDBRANCH   8  10
BRANCH   9  22
HETATM   22  C17 UNL     1      90.862  97.133 -42.429  1.00  0.00    -0.003 C
BRANCH  22  23
HETATM   23  C18 UNL     1      91.735  98.097 -41.794  1.00  0.00     0.131 C
BRANCH  23  24
HETATM   24  C19 UNL     1      91.707  99.441 -42.448  1.00  0.00     0.221 C
HETATM   25  O2  UNL     1      91.089 100.351 -41.887  1.00  0.00    -0.273 OA
HETATM   26  N3  UNL     1      92.367  99.645 -43.661  1.00  0.00    -0.350 N
ATOM     27  H3  UNL     1      92.871  98.877 -44.105  1.00  0.00     0.163 HD
BRANCH  26  28
HETATM   28  C20 UNL     1      92.334 100.949 -44.286  1.00  0.00     0.217 C
BRANCH  28  29
HETATM   29  C21 UNL     1      92.395 100.851 -45.743  1.00  0.00    -0.086 C
HETATM   30  C22 UNL     1      92.464 100.763 -46.943  1.00  0.00    -0.094 C
BRANCH  30  31
HETATM   31  C23 UNL     1      92.570 100.642 -48.414  1.00  0.00     0.178 C
HETATM   32 BR2  UNL     1      90.874 101.137 -49.240  1.00  0.00    -0.083 Br
ENDBRANCH  30  31
ENDBRANCH  28  29
ENDBRANCH  26  28
ENDBRANCH  23  24
ENDBRANCH  22  23
ENDBRANCH   9  22
TORSDOF 10
ENDMDL