MODEL 4
REMARK VINA RESULT: -7.040112177      2.066      2.461
REMARK  6 active torsions:
REMARK  status: ('A' for Active; 'I' for Inactive)
REMARK       I    between atoms: C1_2  and  N6_24
REMARK    1  A    between atoms: N2_3  and  C2_5
REMARK    2  A    between atoms: C2_5  and  N3_6
REMARK    3  A    between atoms: C5_9  and  C6_10
REMARK    4  A    between atoms: C6_10  and  C7_11
REMARK    5  A    between atoms: C7_11  and  C8_12
REMARK    6  A    between atoms: C8_12  and  C9_13
ROOT
HETATM    1  N3  UNL     1      91.347  93.928 -44.651  1.00  0.00    -0.333 N
HETATM    2  C3  UNL     1      90.986  94.792 -45.619  1.00  0.00     0.094 A
HETATM    3  C4  UNL     1      90.733  96.141 -45.343  1.00  0.00     0.026 A
HETATM    4  C5  UNL     1      90.853  96.610 -44.055  1.00  0.00    -0.037 A
HETATM    5  C12 UNL     1      91.224  95.716 -43.078  1.00  0.00     0.051 A
HETATM    6 BR1  UNL     1      91.415  96.309 -41.258  1.00  0.00    -0.048 Br
HETATM    7  C13 UNL     1      91.461  94.400 -43.403  1.00  0.00     0.101 A
HETATM    8 BR2  UNL     1      91.972  93.184 -42.028  1.00  0.00    -0.029 Br
ENDROOT
BRANCH   1   9
HETATM    9  C2  UNL     1      91.604  92.529 -44.978  1.00  0.00     0.254 C
BRANCH   9  10
HETATM   10  N2  UNL     1      90.767  92.055 -46.035  1.00  0.00    -0.347 N
HETATM   11  C1  UNL     1      91.267  91.354 -46.985  1.00  0.00     0.207 C
HETATM   12  N1  UNL     1      92.654  91.057 -46.969  1.00  0.00    -0.062 NA
HETATM   13  N6  UNL     1      90.446  90.879 -48.034  1.00  0.00    -0.250 N
HETATM   14  N7  UNL     1      89.416  89.953 -47.892  1.00  0.00    -0.310 N
HETATM   15  C16 UNL     1      90.504  91.246 -49.434  1.00  0.00     0.187 C
HETATM   16  C14 UNL     1      89.158  89.394 -49.034  1.00  0.00     0.083 C
ATOM     17  H7  UNL     1      88.935  89.745 -47.018  1.00  0.00     0.186 HD
HETATM   18  C15 UNL     1      90.057  89.949 -50.074  1.00  0.00     0.085 C
HETATM   19 BR3  UNL     1      89.153  92.572 -49.864  1.00  0.00    -0.066 Br
ATOM     20  H2  UNL     1      89.771  92.275 -46.033  1.00  0.00     0.163 HD
ENDBRANCH   9  10
ENDBRANCH   1   9
BRANCH   4  21
HETATM   21  C6  UNL     1      90.585  98.037 -43.754  1.00  0.00     0.040 C
BRANCH  21  22
HETATM   22  C7  UNL     1      89.132  98.372 -43.773  1.00  0.00     0.011 C
BRANCH  22  23
HETATM   23  C8  UNL     1      88.807  99.302 -42.640  1.00  0.00     0.059 C
BRANCH  23  24
HETATM   24  C9  UNL     1      87.471  99.889 -42.729  1.00  0.00     0.025 A
HETATM   25  C10 UNL     1      86.411  99.439 -43.504  1.00  0.00     0.113 A
HETATM   26  N4  UNL     1      85.353 100.246 -43.312  1.00  0.00    -0.360 N
HETATM   27  C11 UNL     1      85.716 101.193 -42.438  1.00  0.00     0.180 A
ATOM     28  H4  UNL     1      84.439 100.154 -43.752  1.00  0.00     0.166 HD
HETATM   29  N5  UNL     1      86.982 100.973 -42.096  1.00  0.00    -0.355 N
ATOM     30  H5  UNL     1      87.512 101.549 -41.442  1.00  0.00     0.166 HD
ENDBRANCH  23  24
ENDBRANCH  22  23
ENDBRANCH  21  22
ENDBRANCH   4  21
TORSDOF 6
ENDMDL