MODEL 2
REMARK VINA RESULT: -5.831082943      3.322      3.953
REMARK  8 active torsions:
REMARK  status: ('A' for Active; 'I' for Inactive)
REMARK    1  A    between atoms: C2_2  and  C3_3
REMARK    2  A    between atoms: C3_3  and  C4_4
REMARK    3  A    between atoms: C4_4  and  C5_5
REMARK    4  A    between atoms: C9_10  and  C10_12
REMARK    5  A    between atoms: C10_12  and  N2_13
REMARK    6  A    between atoms: C10_12  and  N6_24
REMARK    7  A    between atoms: N2_13  and  C11_15
REMARK    8  A    between atoms: N6_24  and  N7_25
ROOT
HETATM    1  C10 UNL     1      91.233  99.005 -43.152  1.00  0.00     0.214 C
ENDROOT
BRANCH   1   2
HETATM    2  C9  UNL     1      90.683  97.755 -42.625  1.00  0.00     0.194 A
HETATM    3  C8  UNL     1      90.831  96.553 -43.436  1.00  0.00     0.053 A
HETATM    4  N1  UNL     1      90.410  96.419 -44.701  1.00  0.00    -0.361 N
HETATM    5  C13 UNL     1      91.421  95.426 -42.845  1.00  0.00     0.053 A
HETATM    6  C6  UNL     1      90.548  95.272 -45.366  1.00  0.00     0.103 A
HETATM    7  C7  UNL     1      89.720  97.524 -45.396  1.00  0.00     0.155 C
HETATM    8  C5  UNL     1      91.135  94.115 -44.818  1.00  0.00    -0.005 A
HETATM    9  C14 UNL     1      91.561  94.241 -43.538  1.00  0.00     0.041 A
HETATM   10 BR3  UNL     1      92.357  92.724 -42.746  1.00  0.00    -0.049 Br
HETATM   11 BR2  UNL     1      92.061  95.483 -41.049  1.00  0.00    -0.052 Br
HETATM   12 BR1  UNL     1      91.484  97.471 -40.869  1.00  0.00    -0.071 Br
BRANCH   8  13
HETATM   13  C4  UNL     1      91.201  92.987 -45.664  1.00  0.00    -0.013 C
BRANCH  13  14
HETATM   14  C3  UNL     1      90.451  92.755 -46.874  1.00  0.00     0.028 C
BRANCH  14  15
HETATM   15  C2  UNL     1      90.750  91.280 -47.270  1.00  0.00    -0.001 C
HETATM   16  C1  UNL     1      92.203  90.978 -47.122  1.00  0.00     0.005 C
ENDBRANCH  14  15
ENDBRANCH  13  14
ENDBRANCH   8  13
ENDBRANCH   1   2
BRANCH   1  17
HETATM   17  N2  UNL     1      90.614 100.215 -42.695  1.00  0.00    -0.163 N
ATOM     18  H2  UNL     1      89.843 100.599 -43.242  1.00  0.00     0.186 HD
BRANCH  17  19
HETATM   19  C11 UNL     1      90.979 100.844 -41.631  1.00  0.00     0.703 A
HETATM   20  N3  UNL     1      90.127 101.364 -40.749  1.00  0.00    -0.128 N
HETATM   21  N4  UNL     1      90.801 101.934 -39.785  1.00  0.00    -0.237 N
ATOM     22  H3  UNL     1      89.110 101.326 -40.816  1.00  0.00     0.205 HD
HETATM   23  C12 UNL     1      92.105 101.772 -40.058  1.00  0.00     0.353 A
ATOM     24  H4  UNL     1      90.408 102.412 -38.975  1.00  0.00     0.192 HD
HETATM   25  O1  UNL     1      93.031 102.213 -39.311  1.00  0.00    -0.245 OA
HETATM   26  N5  UNL     1      92.219 101.091 -41.210  1.00  0.00    -0.139 N
ATOM     27  H5  UNL     1      93.086 100.817 -41.672  1.00  0.00     0.189 HD
ENDBRANCH  17  19
ENDBRANCH   1  17
BRANCH   1  28
HETATM   28  N6  UNL     1      92.208  99.126 -43.931  1.00  0.00    -0.317 NA
BRANCH  28  29
HETATM   29  N7  UNL     1      93.078  99.655 -44.629  1.00  0.00    -0.279 N
ATOM     30  H72 UNL     1      93.848  99.534 -43.971  1.00  0.00     0.191 HD
ATOM     31  H71 UNL     1      93.520 100.125 -45.419  1.00  0.00     0.191 HD
ENDBRANCH  28  29
ENDBRANCH   1  28
TORSDOF 8
ENDMDL