MODEL 2
REMARK VINA RESULT: -5.865053013      3.672      5.866
REMARK  7 active torsions:
REMARK  status: ('A' for Active; 'I' for Inactive)
REMARK    1  A    between atoms: C2_2  and  C3_3
REMARK    2  A    between atoms: C3_3  and  C4_11
REMARK    3  A    between atoms: N1_4  and  N2_6
REMARK    4  A    between atoms: N2_6  and  N3_8
REMARK    5  A    between atoms: C11_19  and  C12_21
REMARK    6  A    between atoms: N4_25  and  C14_26
REMARK    7  A    between atoms: C14_26  and  C15_27
ROOT
HETATM    1  C1  UNL     1      90.854 100.187 -43.467  1.00  0.00     0.047 C
HETATM    2  C2  UNL     1      90.256  98.718 -43.562  1.00  0.00     0.092 C
HETATM    3  C10 UNL     1      90.528  98.296 -44.953  1.00  0.00     0.121 C
HETATM    4 BR1  UNL     1      91.874  99.422 -45.839  1.00  0.00    -0.086 Br
HETATM    5  C11 UNL     1      89.206  98.465 -45.669  1.00  0.00     0.123 C
HETATM    6 BR2  UNL     1      89.317 100.121 -46.694  1.00  0.00    -0.073 Br
HETATM    7  C13 UNL     1      88.208  98.591 -44.584  1.00  0.00     0.242 C
HETATM    8  O1  UNL     1      86.975  98.388 -44.755  1.00  0.00    -0.271 OA
HETATM    9  N4  UNL     1      88.876  98.967 -43.364  1.00  0.00    -0.326 N
ENDROOT
BRANCH   2  10
HETATM   10  C3  UNL     1      91.022  97.945 -42.567  1.00  0.00     0.066 C
HETATM   11  N1  UNL     1      91.595  98.651 -41.717  1.00  0.00    -0.288 N
ATOM     12  H1  UNL     1      91.327  99.591 -42.007  1.00  0.00     0.188 HD
BRANCH  11  13
HETATM   13  N2  UNL     1      92.330  98.888 -40.680  1.00  0.00    -0.249 N
ATOM     14  H2  UNL     1      92.799  98.123 -40.195  1.00  0.00     0.207 HD
BRANCH  13  15
HETATM   15  N3  UNL     1      92.467 100.119 -40.258  1.00  0.00    -0.331 N
ATOM     16  H32 UNL     1      91.787 100.501 -39.600  1.00  0.00     0.178 HD
ATOM     17  H31 UNL     1      93.252 100.679 -40.592  1.00  0.00     0.178 HD
ENDBRANCH  13  15
ENDBRANCH  11  13
BRANCH  10  18
HETATM   18  C4  UNL     1      91.163  96.501 -42.491  1.00  0.00    -0.009 A
HETATM   19  C5  UNL     1      91.369  95.896 -41.254  1.00  0.00     0.013 A
HETATM   20  C6  UNL     1      91.527  94.515 -41.119  1.00  0.00     0.001 A
HETATM   21  C7  UNL     1      91.486  93.689 -42.209  1.00  0.00     0.000 A
HETATM   22  C8  UNL     1      91.286  94.260 -43.422  1.00  0.00     0.001 A
HETATM   23  C9  UNL     1      91.128  95.630 -43.554  1.00  0.00     0.013 A
ENDBRANCH  10  18
ENDBRANCH   2  10
BRANCH   9  24
HETATM   24  C14 UNL     1      88.222  99.575 -42.261  1.00  0.00     0.226 C
BRANCH  24  25
HETATM   25  C15 UNL     1      87.525 100.839 -42.442  1.00  0.00     0.249 C
HETATM   26  N5  UNL     1      86.182 101.020 -42.806  1.00  0.00    -0.061 NA
HETATM   27  O2  UNL     1      88.174 101.940 -42.264  1.00  0.00    -0.275 OA
ENDBRANCH  24  25
ENDBRANCH   9  24
BRANCH   5  28
HETATM   28  C12 UNL     1      88.866  97.316 -46.561  1.00  0.00     0.117 C
HETATM   29 BR3  UNL     1      88.061  97.894 -48.219  1.00  0.00    -0.094 Br
ENDBRANCH   5  28
TORSDOF 7
ENDMDL