MODEL 2
REMARK VINA RESULT: -6.910899260      3.279      6.843
REMARK  8 active torsions:
REMARK  status: ('A' for Active; 'I' for Inactive)
REMARK    1  A    between atoms: N1_4  and  C4_5
REMARK    2  A    between atoms: C4_5  and  N2_6
REMARK    3  A    between atoms: C7_10  and  C8_11
REMARK    4  A    between atoms: C12_20  and  N5_21
REMARK    5  A    between atoms: N5_21  and  C13_23
REMARK    6  A    between atoms: C13_23  and  C14_24
REMARK    7  A    between atoms: C14_24  and  C15_25
REMARK    8  A    between atoms: C21_33  and  O1_34
ROOT
HETATM    1  N2  UNL     1      91.357  98.840 -43.508  1.00  0.00    -0.175 N
HETATM    2  C5  UNL     1      91.624 100.112 -43.850  1.00  0.00     0.132 A
HETATM    3  C6  UNL     1      91.839 101.067 -42.866  1.00  0.00     0.056 A
HETATM    4 BR1  UNL     1      92.161 102.847 -43.479  1.00  0.00    -0.047 Br
HETATM    5  C7  UNL     1      91.780 100.716 -41.551  1.00  0.00     0.094 A
HETATM    6  N4  UNL     1      91.505  99.408 -41.284  1.00  0.00    -0.188 N
ATOM      7  H4  UNL     1      91.457  99.122 -40.306  1.00  0.00     0.184 HD
HETATM    8  C12 UNL     1      91.294  98.472 -42.220  1.00  0.00     0.685 A
ENDROOT
BRANCH   1   9
HETATM    9  C4  UNL     1      91.127  97.875 -44.592  1.00  0.00     0.277 C
BRANCH   9  10
HETATM   10  N1  UNL     1      89.717  97.769 -44.894  1.00  0.00    -0.348 N
HETATM   11  C3  UNL     1      88.823  98.552 -44.248  1.00  0.00     0.101 A
HETATM   12  C2  UNL     1      87.483  98.533 -44.493  1.00  0.00    -0.013 A
HETATM   13  C1  UNL     1      86.503  99.399 -43.771  1.00  0.00     0.052 C
HETATM   14  C21 UNL     1      87.001  97.678 -45.447  1.00  0.00     0.074 A
HETATM   15  C20 UNL     1      87.906  96.889 -46.098  1.00  0.00     0.054 A
HETATM   16  C19 UNL     1      89.256  96.937 -45.823  1.00  0.00     0.095 A
BRANCH  14  17
HETATM   17  O1  UNL     1      85.637  97.643 -45.712  1.00  0.00    -0.360 OA
ATOM     18  H1  UNL     1      85.026  97.467 -45.007  1.00  0.00     0.217 HD
ENDBRANCH  14  17
ENDBRANCH   9  10
ENDBRANCH   1   9
BRANCH   8  19
HETATM   19  N5  UNL     1      91.055  97.284 -41.865  1.00  0.00    -0.205 N
ATOM     20  H5  UNL     1      90.260  96.873 -42.354  1.00  0.00     0.183 HD
BRANCH  19  21
HETATM   21  C13 UNL     1      91.644  96.408 -40.945  1.00  0.00     0.083 C
BRANCH  21  22
HETATM   22  C14 UNL     1      91.217  94.960 -41.037  1.00  0.00     0.085 C
BRANCH  22  23
HETATM   23  C15 UNL     1      91.592  94.315 -42.312  1.00  0.00    -0.037 A
HETATM   24  C16 UNL     1      90.907  94.313 -43.512  1.00  0.00     0.025 A
HETATM   25  C17 UNL     1      91.637  93.590 -44.429  1.00  0.00     0.088 A
HETATM   26  N6  UNL     1      92.750  93.154 -43.818  1.00  0.00    -0.375 N
HETATM   27  C18 UNL     1      92.735  93.589 -42.523  1.00  0.00     0.095 A
ATOM     28  H6  UNL     1      93.485  92.591 -44.249  1.00  0.00     0.164 HD
ENDBRANCH  22  23
ENDBRANCH  21  22
ENDBRANCH  19  21
ENDBRANCH   8  19
BRANCH   5  29
HETATM   29  C8  UNL     1      92.036 101.642 -40.457  1.00  0.00     0.062 A
HETATM   30  C9  UNL     1      90.997 102.270 -39.734  1.00  0.00     0.052 A
HETATM   31  C10 UNL     1      91.524 103.110 -38.796  1.00  0.00     0.028 A
HETATM   32 BR2  UNL     1      90.560 104.215 -37.540  1.00  0.00    -0.050 Br
HETATM   33  C11 UNL     1      92.878 103.016 -38.922  1.00  0.00     0.107 A
HETATM   34  N3  UNL     1      93.143 102.125 -39.927  1.00  0.00    -0.363 N
ATOM     35  H3  UNL     1      94.082 101.867 -40.230  1.00  0.00     0.165 HD
ENDBRANCH   5  29
TORSDOF 8
ENDMDL