MODEL 2
REMARK VINA RESULT: -6.441473778      1.589      2.297
REMARK  7 active torsions:
REMARK  status: ('A' for Active; 'I' for Inactive)
REMARK    1  A    between atoms: C4_5  and  C5_6
REMARK    2  A    between atoms: C5_6  and  C6_7
REMARK    3  A    between atoms: C6_7  and  N2_8
REMARK    4  A    between atoms: C6_7  and  N3_12
REMARK    5  A    between atoms: N3_12  and  C7_14
REMARK    6  A    between atoms: C7_14  and  C8_15
REMARK    7  A    between atoms: C8_15  and  N4_16
ROOT
HETATM    1  C6  UNL     1      91.667  90.033 -47.913  1.00  0.00     0.281 C
ENDROOT
BRANCH   1   2
HETATM    2  C5  UNL     1      91.174  90.231 -49.358  1.00  0.00     0.092 C
BRANCH   2   3
HETATM    3  C4  UNL     1      89.705  90.043 -49.348  1.00  0.00    -0.051 A
HETATM    4  C3  UNL     1      88.950  91.075 -49.859  1.00  0.00     0.037 A
HETATM    5  C2  UNL     1      87.556  90.931 -49.855  1.00  0.00     0.042 A
HETATM    6  N1  UNL     1      86.686  91.760 -50.275  1.00  0.00    -0.381 N
HETATM    7  C16 UNL     1      86.981  89.787 -49.352  1.00  0.00     0.006 A
HETATM    8  C1  UNL     1      86.972  93.078 -50.869  1.00  0.00     0.150 C
HETATM    9  C18 UNL     1      85.375  91.187 -50.066  1.00  0.00     0.151 A
HETATM   10  C17 UNL     1      85.665  89.877 -49.451  1.00  0.00     0.008 A
HETATM   11  C15 UNL     1      87.763  88.761 -48.843  1.00  0.00     0.023 A
HETATM   12  C14 UNL     1      89.130  88.904 -48.848  1.00  0.00     0.027 A
HETATM   13 BR3  UNL     1      87.035  87.151 -48.136  1.00  0.00    -0.050 Br
ENDBRANCH   2   3
ENDBRANCH   1   2
BRANCH   1  14
HETATM   14  N2  UNL     1      92.723  89.044 -48.027  1.00  0.00    -0.058 N
ATOM     15  H23 UNL     1      93.241  88.885 -47.163  1.00  0.00     0.276 HD
ATOM     16  H22 UNL     1      92.388  88.087 -48.135  1.00  0.00     0.276 HD
ATOM     17  H21 UNL     1      93.296  89.376 -48.803  1.00  0.00     0.276 HD
ENDBRANCH   1  14
BRANCH   1  18
HETATM   18  N3  UNL     1      92.073  91.307 -47.448  1.00  0.00    -0.394 N
ATOM     19  H3  UNL     1      92.787  91.837 -47.946  1.00  0.00     0.155 HD
BRANCH  18  20
HETATM   20  C7  UNL     1      91.471  91.832 -46.278  1.00  0.00     0.136 C
BRANCH  20  21
HETATM   21  C8  UNL     1      90.759  93.129 -46.502  1.00  0.00     0.147 C
BRANCH  21  22
HETATM   22  N4  UNL     1      90.933  93.933 -45.284  1.00  0.00    -0.363 N
HETATM   23  C9  UNL     1      90.643  95.237 -45.257  1.00  0.00     0.092 A
HETATM   24  C10 UNL     1      90.834  95.914 -44.066  1.00  0.00     0.038 A
HETATM   25  C11 UNL     1      91.304  95.302 -42.931  1.00  0.00     0.031 A
HETATM   26 BR1  UNL     1      91.571  96.219 -41.290  1.00  0.00    -0.050 Br
HETATM   27  C12 UNL     1      91.592  93.962 -42.992  1.00  0.00     0.043 A
HETATM   28 BR2  UNL     1      92.253  93.040 -41.441  1.00  0.00    -0.048 Br
HETATM   29  C13 UNL     1      91.393  93.309 -44.192  1.00  0.00     0.111 A
ENDBRANCH  21  22
ENDBRANCH  20  21
ENDBRANCH  18  20
ENDBRANCH   1  18
TORSDOF 7
ENDMDL