MODEL 1
REMARK VINA RESULT: -5.746334891      0.000      0.000
REMARK  4 active torsions:
REMARK  status: ('A' for Active; 'I' for Inactive)
REMARK    1  A    between atoms: O1_2  and  C2_3
REMARK    2  A    between atoms: C6_10  and  C7_11
REMARK    3  A    between atoms: C7_11  and  N2_12
REMARK    4  A    between atoms: C12_20  and  N3_21
ROOT
HETATM    1  N2  UNL     1      90.886  98.133 -43.283  1.00  0.00    -0.315 N
HETATM    2  C8  UNL     1      91.039  99.038 -42.268  1.00  0.00     0.118 A
HETATM    3  C9  UNL     1      91.571 100.277 -42.382  1.00  0.00     0.045 A
HETATM    4 BR1  UNL     1      91.747 101.435 -40.881  1.00  0.00    -0.048 Br
HETATM    5  C10 UNL     1      92.007 100.688 -43.629  1.00  0.00     0.051 A
HETATM    6 BR2  UNL     1      92.776 102.414 -43.804  1.00  0.00    -0.048 Br
HETATM    7  C11 UNL     1      91.871  99.812 -44.671  1.00  0.00     0.075 A
HETATM    8 BR3  UNL     1      92.464 100.371 -46.393  1.00  0.00    -0.045 Br
HETATM    9  C12 UNL     1      91.305  98.538 -44.469  1.00  0.00     0.144 A
ENDROOT
BRANCH   1  10
HETATM   10  C7  UNL     1      90.353  96.877 -42.905  1.00  0.00     0.113 C
BRANCH  10  11
HETATM   11  C6  UNL     1      91.247  95.791 -42.572  1.00  0.00     0.029 A
HETATM   12  C2  UNL     1      91.585  94.805 -43.467  1.00  0.00     0.086 A
HETATM   13  C3  UNL     1      92.359  93.735 -43.080  1.00  0.00     0.112 A
HETATM   14  C4  UNL     1      92.781  93.693 -41.762  1.00  0.00     0.247 A
HETATM   15  O2  UNL     1      93.492  92.704 -41.411  1.00  0.00    -0.268 OA
HETATM   16  N1  UNL     1      92.454  94.658 -40.889  1.00  0.00    -0.333 N
HETATM   17  C5  UNL     1      91.708  95.685 -41.270  1.00  0.00     0.107 A
ATOM     18  H1  UNL     1      92.782  94.601 -39.924  1.00  0.00     0.168 HD
BRANCH  12  19
HETATM   19  O1  UNL     1      91.170  94.839 -44.813  1.00  0.00    -0.355 OA
HETATM   20  C1  UNL     1      90.910  93.694 -45.584  1.00  0.00     0.210 C
ENDBRANCH  12  19
ENDBRANCH  10  11
ENDBRANCH   1  10
BRANCH   9  21
HETATM   21  N3  UNL     1      91.220  97.738 -45.625  1.00  0.00    -0.290 N
HETATM   22  N4  UNL     1      90.115  97.449 -46.152  1.00  0.00    -0.344 N
ATOM     23  H42 UNL     1      89.267  97.812 -45.717  1.00  0.00     0.176 HD
ATOM     24  H41 UNL     1      90.054  96.869 -46.988  1.00  0.00     0.176 HD
ATOM     25  H3  UNL     1      92.078  97.383 -46.047  1.00  0.00     0.188 HD
ENDBRANCH   9  21
TORSDOF 4
ENDMDL