MODEL 3
REMARK VINA RESULT: -6.832549970      5.057     10.663
REMARK  6 active torsions:
REMARK  status: ('A' for Active; 'I' for Inactive)
REMARK    1  A    between atoms: C2_2  and  C3_3
REMARK    2  A    between atoms: C3_3  and  C4_4
REMARK    3  A    between atoms: C8_10  and  C9_11
REMARK    4  A    between atoms: C9_11  and  C10_12
REMARK    5  A    between atoms: C13_17  and  C14_18
REMARK    6  A    between atoms: C14_18  and  C15_19
ROOT
HETATM    1  C10 UNL     1      90.260  99.827 -45.319  1.00  0.00     0.020 A
HETATM    2  N2  UNL     1      89.075  99.248 -45.535  1.00  0.00    -0.359 N
ATOM      3  H2  UNL     1      88.203  99.759 -45.674  1.00  0.00     0.166 HD
HETATM    4  C11 UNL     1      89.177  97.892 -45.548  1.00  0.00     0.033 A
HETATM    5  C12 UNL     1      88.170  97.068 -45.737  1.00  0.00     0.044 C
HETATM    6  C13 UNL     1      90.529  97.579 -45.323  1.00  0.00    -0.000 A
HETATM    7  C19 UNL     1      91.167  98.784 -45.188  1.00  0.00    -0.027 A
HETATM    8  C20 UNL     1      92.610  98.977 -44.942  1.00  0.00     0.051 C
ENDROOT
BRANCH   1   9
HETATM    9  C9  UNL     1      90.531 101.315 -45.228  1.00  0.00     0.087 C
BRANCH   9  10
HETATM   10  C8  UNL     1      89.915 101.895 -44.042  1.00  0.00     0.010 C
HETATM   11  C7  UNL     1      90.459 102.397 -42.979  1.00  0.00     0.039 A
HETATM   12  N1  UNL     1      89.739 102.913 -41.934  1.00  0.00    -0.359 N
HETATM   13  C21 UNL     1      91.788 102.555 -42.623  1.00  0.00    -0.011 A
HETATM   14  C5  UNL     1      90.556 103.367 -40.982  1.00  0.00     0.013 A
ATOM     15  H1  UNL     1      88.720 102.945 -41.890  1.00  0.00     0.166 HD
HETATM   16  C4  UNL     1      91.856 103.165 -41.370  1.00  0.00    -0.021 A
HETATM   17  C6  UNL     1      90.138 104.001 -39.693  1.00  0.00     0.068 C
HETATM   18  C22 UNL     1      92.853 102.203 -43.281  1.00  0.00     0.026 C
BRANCH  16  19
HETATM   19  C3  UNL     1      93.088 103.539 -40.585  1.00  0.00     0.067 C
BRANCH  19  20
HETATM   20  C2  UNL     1      93.377 102.535 -39.533  1.00  0.00    -0.032 C
HETATM   21  C1  UNL     1      93.535 102.951 -38.286  1.00  0.00     0.007 C
ENDBRANCH  19  20
ENDBRANCH  16  19
ENDBRANCH   9  10
ENDBRANCH   1   9
BRANCH   6  22
HETATM   22  C14 UNL     1      90.942  96.336 -45.280  1.00  0.00     0.046 C
BRANCH  22  23
HETATM   23  C15 UNL     1      91.192  95.524 -44.107  1.00  0.00     0.070 A
HETATM   24  N3  UNL     1      91.282  96.012 -42.860  1.00  0.00    -0.316 N
HETATM   25  C16 UNL     1      91.536  95.205 -41.793  1.00  0.00     0.314 A
ATOM     26  H3  UNL     1      91.157  97.013 -42.708  1.00  0.00     0.169 HD
HETATM   27  O1  UNL     1      91.608  95.737 -40.640  1.00  0.00    -0.262 OA
HETATM   28  C17 UNL     1      91.707  93.857 -41.985  1.00  0.00     0.314 A
HETATM   29  O2  UNL     1      91.945  93.086 -41.007  1.00  0.00    -0.262 OA
HETATM   30  N4  UNL     1      91.622  93.329 -43.232  1.00  0.00    -0.311 N
HETATM   31  C18 UNL     1      91.366  94.167 -44.275  1.00  0.00     0.109 A
ATOM     32  H4  UNL     1      91.747  92.328 -43.384  1.00  0.00     0.170 HD
HETATM   33 BR1  UNL     1      91.242  93.467 -46.041  1.00  0.00    -0.029 Br
ENDBRANCH  22  23
ENDBRANCH   6  22
TORSDOF 6
ENDMDL