MODEL 3
REMARK VINA RESULT: -7.010639884      1.791      2.284
REMARK  8 active torsions:
REMARK  status: ('A' for Active; 'I' for Inactive)
REMARK    1  A    between atoms: C3_3  and  N6_29
REMARK       I    between atoms: N1_4  and  C4_6
REMARK    2  A    between atoms: C4_6  and  C5_8
REMARK    3  A    between atoms: C5_8  and  C6_9
REMARK    4  A    between atoms: C5_8  and  N2_16
REMARK    5  A    between atoms: C6_9  and  C7_10
REMARK       I    between atoms: N2_16  and  C13_18
REMARK    6  A    between atoms: C13_18  and  C14_20
REMARK    7  A    between atoms: C14_20  and  C16_22
REMARK       I    between atoms: C16_22  and  N3_24
REMARK    8  A    between atoms: N6_29  and  C18_31
ROOT
HETATM    1  C1  UNL     1      90.726 104.688 -43.218  1.00  0.00     0.021 C
HETATM    2  C2  UNL     1      91.012 103.519 -43.279  1.00  0.00    -0.041 C
HETATM    3  C3  UNL     1      91.352 102.103 -43.379  1.00  0.00     0.164 C
HETATM    4  N1  UNL     1      90.634 101.376 -44.159  1.00  0.00    -0.304 N
ATOM      5  H1  UNL     1      89.860 101.787 -44.683  1.00  0.00     0.171 HD
HETATM    6  C4  UNL     1      90.932  99.998 -44.282  1.00  0.00     0.246 C
HETATM    7  O1  UNL     1      92.021  99.663 -44.856  1.00  0.00    -0.271 OA
ENDROOT
BRANCH   3   8
HETATM    8  N6  UNL     1      92.409 101.536 -42.658  1.00  0.00    -0.321 N
ATOM      9  H6  UNL     1      92.581 100.538 -42.777  1.00  0.00     0.169 HD
BRANCH   8  10
HETATM   10  C18 UNL     1      93.173 102.175 -41.862  1.00  0.00     0.109 A
HETATM   11  C19 UNL     1      94.182 102.959 -42.340  1.00  0.00     0.049 A
HETATM   12  C20 UNL     1      94.996 103.646 -41.474  1.00  0.00     0.008 A
HETATM   13  C21 UNL     1      94.757 103.513 -40.104  1.00  0.00     0.061 A
HETATM   14  C22 UNL     1      93.731 102.714 -39.648  1.00  0.00     0.189 A
HETATM   15  F1  UNL     1      93.545 102.621 -38.310  1.00  0.00    -0.186 F
HETATM   16  N7  UNL     1      92.980 102.077 -40.536  1.00  0.00    -0.319 N
ATOM     17  H7  UNL     1      92.221 101.486 -40.197  1.00  0.00     0.169 HD
ENDBRANCH   8  10
ENDBRANCH   3   8
BRANCH   6  18
HETATM   18  C5  UNL     1      90.018  98.962 -43.763  1.00  0.00     0.181 C
BRANCH  18  19
HETATM   19  C6  UNL     1      88.648  99.579 -43.612  1.00  0.00     0.073 C
BRANCH  19  20
HETATM   20  C7  UNL     1      87.567  98.671 -44.119  1.00  0.00    -0.056 A
HETATM   21  C8  UNL     1      86.367  98.585 -43.449  1.00  0.00     0.007 A
HETATM   22  C9  UNL     1      85.354  97.755 -43.893  1.00  0.00     0.001 A
HETATM   23  C10 UNL     1      85.575  97.011 -45.029  1.00  0.00     0.000 A
HETATM   24  C11 UNL     1      86.770  97.085 -45.711  1.00  0.00     0.001 A
HETATM   25  C12 UNL     1      87.745  97.913 -45.245  1.00  0.00     0.007 A
ENDBRANCH  19  20
ENDBRANCH  18  19
BRANCH  18  26
HETATM   26  N2  UNL     1      90.521  98.478 -42.475  1.00  0.00    -0.343 N
HETATM   27  C13 UNL     1      91.093  97.207 -42.417  1.00  0.00     0.257 C
HETATM   28  O2  UNL     1      91.130  96.552 -43.526  1.00  0.00    -0.267 OA
ATOM     29  H2  UNL     1      90.455  99.059 -41.639  1.00  0.00     0.163 HD
BRANCH  27  30
HETATM   30  C14 UNL     1      91.636  96.561 -41.277  1.00  0.00     0.090 C
HETATM   31  C15 UNL     1      92.240  97.320 -40.343  1.00  0.00     0.035 C
BRANCH  30  32
HETATM   32  C16 UNL     1      91.588  95.145 -41.042  1.00  0.00     0.262 C
HETATM   33  O3  UNL     1      90.541  94.481 -40.920  1.00  0.00    -0.267 OA
HETATM   34  N3  UNL     1      92.796  94.361 -40.925  1.00  0.00    -0.299 N
HETATM   35  C17 UNL     1      93.049  93.388 -41.740  1.00  0.00     0.203 C
ATOM     36  H3  UNL     1      93.463  94.579 -40.185  1.00  0.00     0.171 HD
HETATM   37  N4  UNL     1      92.111  93.103 -42.760  1.00  0.00    -0.066 NA
HETATM   38  N5  UNL     1      94.257  92.694 -41.529  1.00  0.00    -0.066 NA
ENDBRANCH  30  32
ENDBRANCH  27  30
ENDBRANCH  18  26
ENDBRANCH   6  18
TORSDOF 8
ENDMDL