MODEL 5
REMARK VINA RESULT: -5.593082112      5.496     10.460
REMARK  6 active torsions:
REMARK  status: ('A' for Active; 'I' for Inactive)
REMARK    1  A    between atoms: C2_2  and  C4_4
REMARK    2  A    between atoms: C4_4  and  N1_5
REMARK    3  A    between atoms: C4_4  and  C13_23
REMARK       I    between atoms: N1_5  and  C5_7
REMARK       I    between atoms: C5_7  and  N2_9
REMARK    4  A    between atoms: N2_9  and  N3_11
REMARK    5  A    between atoms: C8_15  and  C9_16
REMARK    6  A    between atoms: C10_19  and  C12_21
REMARK       I    between atoms: C13_23  and  N4_25
ROOT
HETATM    1  N1  UNL     1      90.397  95.824 -46.340  1.00  0.00    -0.328 N
ATOM      2  H1  UNL     1      91.090  95.327 -46.901  1.00  0.00     0.165 HD
HETATM    3  C5  UNL     1      89.214  96.237 -46.960  1.00  0.00     0.335 C
HETATM    4  O1  UNL     1      88.356  96.841 -46.273  1.00  0.00    -0.246 OA
HETATM    5  N2  UNL     1      88.927  96.008 -48.330  1.00  0.00    -0.252 N
ATOM      6  H2  UNL     1      89.605  95.522 -48.916  1.00  0.00     0.191 HD
ENDROOT
BRANCH   1   7
HETATM    7  C4  UNL     1      90.696  96.068 -44.914  1.00  0.00     0.181 C
BRANCH   7   8
HETATM    8  C2  UNL     1      91.550  94.859 -44.544  1.00  0.00     0.009 C
HETATM    9  C1  UNL     1      91.359  93.667 -45.402  1.00  0.00     0.012 C
HETATM   10  C3  UNL     1      91.497  94.520 -43.088  1.00  0.00     0.012 C
ENDBRANCH   7   8
BRANCH   7  11
HETATM   11  C13 UNL     1      91.396  97.345 -44.832  1.00  0.00     0.243 C
HETATM   12  O4  UNL     1      92.269  97.587 -45.731  1.00  0.00    -0.271 OA
HETATM   13  N4  UNL     1      91.214  98.365 -43.856  1.00  0.00    -0.338 N
HETATM   14  C14 UNL     1      90.336  98.552 -42.705  1.00  0.00     0.173 C
HETATM   15  C16 UNL     1      91.885  99.638 -43.668  1.00  0.00     0.140 A
HETATM   16  C15 UNL     1      91.219  99.684 -42.280  1.00  0.00     0.149 A
HETATM   17  F1  UNL     1      92.017  99.604 -41.189  1.00  0.00    -0.238 F
HETATM   18  C17 UNL     1      91.230 100.848 -43.197  1.00  0.00     0.016 A
HETATM   19  C18 UNL     1      89.853 101.259 -43.701  1.00  0.00     0.020 C
HETATM   20  C19 UNL     1      92.141 101.999 -42.842  1.00  0.00     0.020 C
ENDBRANCH   7  11
ENDBRANCH   1   7
BRANCH   5  21
HETATM   21  N3  UNL     1      87.729  96.442 -48.874  1.00  0.00    -0.304 N
HETATM   22  C6  UNL     1      87.266  95.935 -49.947  1.00  0.00     0.015 C
HETATM   23  C7  UNL     1      86.035  96.151 -50.803  1.00  0.00     0.071 C
HETATM   24  C10 UNL     1      87.665  94.898 -50.904  1.00  0.00     0.019 C
HETATM   25  C8  UNL     1      86.637  95.365 -51.916  1.00  0.00     0.107 C
HETATM   26  C11 UNL     1      87.421  93.502 -50.365  1.00  0.00     0.023 C
ATOM     27  H3  UNL     1      87.207  97.182 -48.406  1.00  0.00     0.186 HD
BRANCH  25  28
HETATM   28  C9  UNL     1      85.849  94.227 -52.415  1.00  0.00     0.178 C
HETATM   29  O2  UNL     1      86.254  93.522 -53.369  1.00  0.00    -0.648 OA
HETATM   30  O3  UNL     1      84.636  93.935 -51.815  1.00  0.00    -0.648 OA
ENDBRANCH  25  28
BRANCH  24  31
HETATM   31  C12 UNL     1      89.089  95.031 -51.370  1.00  0.00     0.101 C
HETATM   32 BR1  UNL     1      89.845  93.288 -51.762  1.00  0.00    -0.095 Br
ENDBRANCH  24  31
ENDBRANCH   5  21
TORSDOF 6
ENDMDL