MODEL 2
REMARK VINA RESULT: -6.045870066      1.393      2.176
REMARK  9 active torsions:
REMARK  status: ('A' for Active; 'I' for Inactive)
REMARK    1  A    between atoms: C4_9  and  C5_10
REMARK    2  A    between atoms: C5_10  and  C6_11
REMARK    3  A    between atoms: C7_14  and  N4_15
REMARK       I    between atoms: N4_15  and  C8_17
REMARK    4  A    between atoms: C8_17  and  C9_19
REMARK    5  A    between atoms: C9_19  and  N5_20
REMARK    6  A    between atoms: N5_20  and  C12_23
REMARK    7  A    between atoms: C12_23  and  C13_24
REMARK    8  A    between atoms: C13_24  and  N6_25
REMARK    9  A    between atoms: N6_25  and  N7_27
ROOT
HETATM    1  C6  UNL     1      90.475  97.245 -43.858  1.00  0.00     0.056 A
HETATM    2  N3  UNL     1      90.259  98.196 -42.926  1.00  0.00    -0.341 N
ATOM      3  H3  UNL     1      90.888  98.247 -42.124  1.00  0.00     0.167 HD
HETATM    4  C7  UNL     1      89.247  99.080 -43.008  1.00  0.00     0.118 A
HETATM    5  C14 UNL     1      88.347  99.081 -44.062  1.00  0.00     0.034 A
HETATM    6  C15 UNL     1      87.235 100.061 -44.141  1.00  0.00     0.056 C
HETATM    7  C16 UNL     1      88.539  98.121 -45.034  1.00  0.00     0.201 A
HETATM    8  O3  UNL     1      87.729  98.105 -46.003  1.00  0.00    -0.286 OA
HETATM    9  C17 UNL     1      89.585  97.225 -44.928  1.00  0.00     0.088 A
HETATM   10 BR1  UNL     1      89.854  95.904 -46.262  1.00  0.00    -0.044 Br
ENDROOT
BRANCH   4  11
HETATM   11  N4  UNL     1      89.062 100.061 -42.000  1.00  0.00    -0.311 N
HETATM   12  C8  UNL     1      89.527 101.395 -42.107  1.00  0.00     0.249 C
HETATM   13  O2  UNL     1      89.104 102.203 -41.241  1.00  0.00    -0.271 OA
ATOM     14  H4  UNL     1      88.566  99.791 -41.151  1.00  0.00     0.170 HD
BRANCH  12  15
HETATM   15  C9  UNL     1      90.451 101.853 -43.152  1.00  0.00     0.339 C
BRANCH  15  16
HETATM   16  N5  UNL     1      91.835 101.700 -42.838  1.00  0.00    -0.062 N
HETATM   17  C10 UNL     1      92.556 100.905 -43.806  1.00  0.00     0.273 C
HETATM   18  C11 UNL     1      92.413 103.054 -42.925  1.00  0.00     0.273 C
BRANCH  16  19
HETATM   19  C12 UNL     1      92.067 101.267 -41.473  1.00  0.00     0.283 C
BRANCH  19  20
HETATM   20  C13 UNL     1      92.877 102.219 -40.699  1.00  0.00     0.107 C
BRANCH  20  21
HETATM   21  N6  UNL     1      93.961 101.824 -40.141  1.00  0.00    -0.321 N
ATOM     22  H6  UNL     1      93.922 101.212 -39.326  1.00  0.00     0.185 HD
BRANCH  21  23
HETATM   23  N7  UNL     1      95.196 102.231 -40.652  1.00  0.00    -0.346 N
ATOM     24  H72 UNL     1      95.338 103.215 -40.877  1.00  0.00     0.176 HD
ATOM     25  H71 UNL     1      95.938 101.547 -40.793  1.00  0.00     0.176 HD
ENDBRANCH  21  23
ENDBRANCH  20  21
ENDBRANCH  19  20
ENDBRANCH  16  19
ENDBRANCH  15  16
ENDBRANCH  12  15
ENDBRANCH   4  11
BRANCH   1  26
HETATM   26  C5  UNL     1      91.571  96.291 -43.766  1.00  0.00     0.050 C
BRANCH  26  27
HETATM   27  C4  UNL     1      91.529  95.262 -42.940  1.00  0.00     0.063 A
HETATM   28  C2  UNL     1      91.506  93.924 -43.243  1.00  0.00     0.054 A
HETATM   29  C1  UNL     1      91.523  93.376 -44.455  1.00  0.00     0.045 C
HETATM   30  N1  UNL     1      91.465  93.275 -42.068  1.00  0.00    -0.298 N
HETATM   31  N2  UNL     1      91.461  94.133 -41.069  1.00  0.00    -0.265 N
ATOM     32  H1  UNL     1      91.439  92.261 -41.964  1.00  0.00     0.187 HD
HETATM   33  C3  UNL     1      91.500  95.368 -41.575  1.00  0.00     0.272 A
ATOM     34  H2  UNL     1      91.434  93.894 -40.077  1.00  0.00     0.190 HD
HETATM   35  O1  UNL     1      91.509  96.464 -40.912  1.00  0.00    -0.266 OA
ENDBRANCH  26  27
ENDBRANCH   1  26
TORSDOF 9
ENDMDL