MODEL 1
REMARK VINA RESULT: -6.627475005      0.000      0.000
REMARK  5 active torsions:
REMARK  status: ('A' for Active; 'I' for Inactive)
REMARK       I    between atoms: C1_2  and  N6_24
REMARK       I    between atoms: N2_3  and  C2_5
REMARK    1  A    between atoms: C2_5  and  C3_7
REMARK    2  A    between atoms: C3_7  and  N3_8
REMARK    3  A    between atoms: N3_8  and  S1_10
REMARK    4  A    between atoms: S1_10  and  N4_13
REMARK    5  A    between atoms: N6_24  and  C13_26
ROOT
HETATM    1  C3  UNL     1      91.226 100.691 -41.610  1.00  0.00     0.122 A
HETATM    2  C11 UNL     1      92.303 100.824 -40.528  1.00  0.00     0.044 A
HETATM    3  C12 UNL     1      92.303 101.699 -41.720  1.00  0.00     0.044 A
ENDROOT
BRANCH   1   4
HETATM    4  C2  UNL     1      91.364  99.496 -42.533  1.00  0.00     0.253 C
HETATM    5  N2  UNL     1      92.014  99.671 -43.776  1.00  0.00    -0.299 N
HETATM    6  C1  UNL     1      91.649  99.062 -44.856  1.00  0.00     0.195 C
ATOM      7  H2  UNL     1      92.808 100.309 -43.823  1.00  0.00     0.171 HD
HETATM    8  N1  UNL     1      92.301  99.240 -46.095  1.00  0.00    -0.063 NA
HETATM    9  N6  UNL     1      90.531  98.176 -44.750  1.00  0.00    -0.330 N
ATOM     10  H6  UNL     1      89.587  98.530 -44.597  1.00  0.00     0.168 HD
HETATM   11  O1  UNL     1      90.924  98.380 -42.225  1.00  0.00    -0.270 OA
BRANCH   9  12
HETATM   12  C13 UNL     1      90.786  96.785 -44.865  1.00  0.00     0.034 A
HETATM   13  C14 UNL     1      90.432  96.106 -46.021  1.00  0.00     0.031 A
HETATM   14  C15 UNL     1      90.664  94.750 -46.167  1.00  0.00     0.026 A
HETATM   15  C16 UNL     1      91.262  94.017 -45.159  1.00  0.00     0.034 A
HETATM   16 CL1  UNL     1      91.552  92.296 -45.347  1.00  0.00    -0.084 Cl
HETATM   17  C17 UNL     1      91.616  94.686 -44.008  1.00  0.00     0.026 A
HETATM   18  C18 UNL     1      91.380  96.055 -43.863  1.00  0.00     0.031 A
ENDBRANCH   9  12
ENDBRANCH   1   4
BRANCH   1  19
HETATM   19  N3  UNL     1      89.901 100.982 -41.272  1.00  0.00    -0.288 N
ATOM     20  H3  UNL     1      89.570 100.773 -40.331  1.00  0.00     0.174 HD
BRANCH  19  21
HETATM   21  S1  UNL     1      88.845 101.664 -42.374  1.00  0.00     0.300 S
HETATM   22  O2  UNL     1      88.396 103.053 -42.137  1.00  0.00    -0.188 OA
HETATM   23  O3  UNL     1      89.553 101.685 -43.726  1.00  0.00    -0.188 OA
BRANCH  21  24
HETATM   24  N4  UNL     1      87.423 100.686 -42.468  1.00  0.00    -0.190 NA
HETATM   25  C4  UNL     1      86.397 101.313 -43.261  1.00  0.00     0.137 C
HETATM   26  C5  UNL     1      85.160 100.463 -43.371  1.00  0.00     0.253 C
HETATM   27  N5  UNL     1      85.427  99.146 -43.879  1.00  0.00    -0.065 N
HETATM   28  C6  UNL     1      84.985  98.933 -45.256  1.00  0.00     0.239 C
HETATM   29  C8  UNL     1      84.327  98.260 -43.486  1.00  0.00     0.239 C
HETATM   30  C9  UNL     1      86.678  98.575 -43.567  1.00  0.00     0.253 C
HETATM   31  C7  UNL     1      84.460  97.597 -44.841  1.00  0.00     0.056 C
HETATM   32  C10 UNL     1      87.652  99.325 -42.763  1.00  0.00     0.137 C
ENDBRANCH  21  24
ENDBRANCH  19  21
ENDBRANCH   1  19
TORSDOF 5
ENDMDL