MODEL 5
REMARK VINA RESULT: -6.478403455      1.603      2.346
REMARK  7 active torsions:
REMARK  status: ('A' for Active; 'I' for Inactive)
REMARK       I    between atoms: N3_4  and  C2_6
REMARK       I    between atoms: C2_6  and  N4_8
REMARK    1  A    between atoms: N4_8  and  C3_10
REMARK    2  A    between atoms: C3_10  and  C4_11
REMARK    3  A    between atoms: C3_10  and  C11_19
REMARK    4  A    between atoms: C4_11  and  C5_12
REMARK       I    between atoms: C11_19  and  N5_21
REMARK    5  A    between atoms: C12_23  and  C13_24
REMARK    6  A    between atoms: C13_24  and  C14_25
REMARK    7  A    between atoms: N6_30  and  O3_31
ROOT
HETATM    1  C3  UNL     1      90.010  98.207 -44.601  1.00  0.00     0.182 C
ENDROOT
BRANCH   1   2
HETATM    2  N4  UNL     1      88.627  98.253 -44.165  1.00  0.00    -0.329 N
HETATM    3  C2  UNL     1      87.556  97.949 -45.030  1.00  0.00     0.323 C
HETATM    4  N3  UNL     1      86.235  98.011 -44.537  1.00  0.00    -0.285 N
HETATM    5  O1  UNL     1      87.710  97.621 -46.234  1.00  0.00    -0.247 OA
HETATM    6  C1  UNL     1      85.721  99.004 -43.934  1.00  0.00     0.204 C
ATOM      7  H3  UNL     1      85.645  97.191 -44.676  1.00  0.00     0.172 HD
HETATM    8  N1  UNL     1      86.498 100.168 -43.716  1.00  0.00    -0.066 NA
HETATM    9  N2  UNL     1      84.369  98.952 -43.479  1.00  0.00    -0.066 NA
ATOM     10  H4  UNL     1      88.423  98.513 -43.200  1.00  0.00     0.165 HD
ENDBRANCH   1   2
BRANCH   1  11
HETATM   11  C4  UNL     1      90.803  97.216 -43.785  1.00  0.00     0.073 C
BRANCH  11  12
HETATM   12  C5  UNL     1      90.979  95.912 -44.411  1.00  0.00    -0.056 A
HETATM   13  C6  UNL     1      90.640  95.705 -45.727  1.00  0.00     0.008 A
HETATM   14  C7  UNL     1      90.801  94.473 -46.352  1.00  0.00     0.019 A
HETATM   15  C8  UNL     1      91.314  93.402 -45.657  1.00  0.00     0.011 A
HETATM   16 BR1  UNL     1      91.540  91.706 -46.506  1.00  0.00    -0.051 Br
HETATM   17  C9  UNL     1      91.659  93.591 -44.336  1.00  0.00     0.019 A
HETATM   18  C10 UNL     1      91.494  94.817 -43.733  1.00  0.00     0.008 A
ENDBRANCH  11  12
ENDBRANCH   1  11
BRANCH   1  19
HETATM   19  C11 UNL     1      90.613  99.534 -44.722  1.00  0.00     0.244 C
HETATM   20  O2  UNL     1      89.870 100.546 -44.686  1.00  0.00    -0.271 OA
HETATM   21  N5  UNL     1      92.002  99.726 -44.879  1.00  0.00    -0.339 N
HETATM   22  C12 UNL     1      92.696 100.713 -44.490  1.00  0.00     0.070 C
ATOM     23  H5  UNL     1      92.506  98.983 -45.363  1.00  0.00     0.167 HD
BRANCH  22  24
HETATM   24  C13 UNL     1      92.052 101.850 -43.775  1.00  0.00     0.104 C
BRANCH  24  25
HETATM   25  C14 UNL     1      92.542 101.917 -42.350  1.00  0.00     0.044 A
HETATM   26  C15 UNL     1      93.624 102.696 -42.011  1.00  0.00     0.028 A
HETATM   27  C16 UNL     1      94.037 102.724 -40.700  1.00  0.00     0.003 A
HETATM   28  C17 UNL     1      93.393 101.992 -39.726  1.00  0.00     0.020 A
HETATM   29  C18 UNL     1      92.317 101.223 -40.090  1.00  0.00     0.123 A
HETATM   30  N6  UNL     1      91.926 101.208 -41.377  1.00  0.00    -0.240 N
BRANCH  30  31
HETATM   31  O3  UNL     1      90.837 100.419 -41.686  1.00  0.00    -0.283 OA
ATOM     32  H3  UNL     1      90.749  99.559 -41.292  1.00  0.00     0.245 HD
ENDBRANCH  30  31
ENDBRANCH  24  25
ENDBRANCH  22  24
ENDBRANCH   1  19
TORSDOF 7
ENDMDL