MODEL 2
REMARK VINA RESULT: -5.513536404      3.456      6.141
REMARK  6 active torsions:
REMARK  status: ('A' for Active; 'I' for Inactive)
REMARK       I    between atoms: N3_4  and  C2_6
REMARK    1  A    between atoms: C2_6  and  C3_8
REMARK    2  A    between atoms: C7_12  and  C8_14
REMARK    3  A    between atoms: C8_14  and  C9_15
REMARK    4  A    between atoms: N4_17  and  C10_18
REMARK    5  A    between atoms: C11_20  and  N5_21
REMARK       I    between atoms: N5_21  and  C12_23
REMARK       I    between atoms: C12_23  and  N6_25
REMARK    6  A    between atoms: N6_25  and  C13_27
ROOT
HETATM    1  C3  UNL     1      89.895  97.321 -44.344  1.00  0.00     0.188 C
HETATM    2  C4  UNL     1      88.736  97.825 -45.105  1.00  0.00     0.047 A
HETATM    3  C5  UNL     1      88.707  99.255 -45.431  1.00  0.00     0.022 A
HETATM    4  C6  UNL     1      89.749 100.064 -44.695  1.00  0.00     0.074 C
HETATM    5  C7  UNL     1      89.808  99.536 -43.275  1.00  0.00     0.181 C
HETATM    6  F1  UNL     1      88.465  99.250 -42.908  1.00  0.00    -0.219 F
HETATM    7  N4  UNL     1      90.456  98.252 -43.353  1.00  0.00    -0.309 N
HETATM    8  C11 UNL     1      89.032  98.301 -46.498  1.00  0.00     0.098 A
ENDROOT
BRANCH   8   9
HETATM    9  N5  UNL     1      88.058  97.921 -47.494  1.00  0.00    -0.337 N
HETATM   10  C12 UNL     1      88.156  96.757 -48.290  1.00  0.00     0.322 C
HETATM   11  O3  UNL     1      89.114  95.955 -48.190  1.00  0.00    -0.247 OA
HETATM   12  N6  UNL     1      87.134  96.493 -49.235  1.00  0.00    -0.295 N
ATOM     13  H6  UNL     1      87.109  97.001 -50.120  1.00  0.00     0.172 HD
ATOM     14  H5  UNL     1      87.250  98.529 -47.631  1.00  0.00     0.164 HD
BRANCH  12  15
HETATM   15  C13 UNL     1      86.237  95.608 -48.969  1.00  0.00     0.108 A
HETATM   16  C14 UNL     1      86.139  94.459 -49.731  1.00  0.00     0.049 A
HETATM   17  C15 UNL     1      85.178  93.518 -49.439  1.00  0.00     0.005 A
HETATM   18  C16 UNL     1      84.334  93.757 -48.380  1.00  0.00     0.017 A
HETATM   19  C17 UNL     1      84.428  94.909 -47.610  1.00  0.00     0.089 A
HETATM   20  N7  UNL     1      85.382  95.793 -47.938  1.00  0.00    -0.352 N
ATOM     21  H7  UNL     1      85.468  96.644 -47.383  1.00  0.00     0.166 HD
ENDBRANCH  12  15
ENDBRANCH   8   9
BRANCH   1  22
HETATM   22  C2  UNL     1      91.023  96.880 -45.192  1.00  0.00     0.247 C
HETATM   23  N3  UNL     1      90.937  95.627 -45.830  1.00  0.00    -0.302 N
HETATM   24  C1  UNL     1      91.303  94.534 -45.253  1.00  0.00     0.203 C
ATOM     25  H3  UNL     1      90.572  95.583 -46.782  1.00  0.00     0.171 HD
HETATM   26  N1  UNL     1      91.813  94.529 -43.943  1.00  0.00    -0.066 NA
HETATM   27  N2  UNL     1      91.178  93.329 -45.978  1.00  0.00    -0.066 NA
HETATM   28  O1  UNL     1      92.034  97.572 -45.360  1.00  0.00    -0.271 OA
ENDBRANCH   1  22
BRANCH   7  29
HETATM   29  C10 UNL     1      91.552  97.824 -42.562  1.00  0.00     0.354 C
HETATM   30  O2  UNL     1      91.492  97.031 -41.610  1.00  0.00    -0.283 OA
ENDBRANCH   7  29
BRANCH   5  31
HETATM   31  C8  UNL     1      90.390 100.452 -42.277  1.00  0.00     0.077 C
BRANCH  31  32
HETATM   32  C9  UNL     1      89.315 101.272 -41.610  1.00  0.00     0.090 C
HETATM   33 BR1  UNL     1      90.196 102.642 -40.542  1.00  0.00    -0.096 Br
ENDBRANCH  31  32
ENDBRANCH   5  31
TORSDOF 6
ENDMDL