MODEL 3
REMARK VINA RESULT: -6.290814423      3.212      5.806
REMARK  7 active torsions:
REMARK  status: ('A' for Active; 'I' for Inactive)
REMARK    1  A    between atoms: S1_2  and  C2_3
REMARK    2  A    between atoms: C2_3  and  C3_4
REMARK    3  A    between atoms: C3_4  and  C4_5
REMARK    4  A    between atoms: N1_12  and  C10_14
REMARK    5  A    between atoms: C10_14  and  C11_15
REMARK    6  A    between atoms: C10_14  and  C13_22
REMARK       I    between atoms: C11_15  and  N2_17
REMARK       I    between atoms: C13_22  and  N5_24
REMARK    7  A    between atoms: N5_24  and  C14_26
ROOT
HETATM    1  C10 UNL     1      91.042 100.416 -45.240  1.00  0.00     0.268 C
ENDROOT
BRANCH   1   2
HETATM    2  N1  UNL     1      91.883  99.223 -44.858  1.00  0.00    -0.364 N
HETATM    3  C2  UNL     1      91.364  98.267 -44.159  1.00  0.00     0.067 C
ATOM      4  H1  UNL     1      92.859  99.171 -45.150  1.00  0.00     0.161 HD
BRANCH   3   5
HETATM    5  S1  UNL     1      91.110  99.541 -42.442  1.00  0.00    -0.117 SA
HETATM    6  C1  UNL     1      91.870 100.382 -41.618  1.00  0.00     0.097 C
ENDBRANCH   3   5
BRANCH   3   7
HETATM    7  C3  UNL     1      90.784  97.231 -43.394  1.00  0.00     0.048 C
BRANCH   7   8
HETATM    8  C4  UNL     1      90.962  95.918 -44.097  1.00  0.00    -0.034 A
HETATM    9  C5  UNL     1      91.491  94.812 -43.476  1.00  0.00     0.013 A
HETATM   10  C6  UNL     1      91.673  93.628 -44.144  1.00  0.00     0.020 A
HETATM   11  C7  UNL     1      91.288  93.626 -45.479  1.00  0.00     0.011 A
HETATM   12 BR1  UNL     1      91.505  91.978 -46.408  1.00  0.00    -0.051 Br
HETATM   13  C8  UNL     1      90.757  94.701 -46.141  1.00  0.00     0.020 A
HETATM   14  C9  UNL     1      90.590  95.873 -45.441  1.00  0.00     0.013 A
ENDBRANCH   7   8
ENDBRANCH   3   7
ENDBRANCH   1   2
BRANCH   1  15
HETATM   15  C11 UNL     1      91.689 101.415 -46.063  1.00  0.00     0.256 C
HETATM   16  O1  UNL     1      91.616 102.638 -45.844  1.00  0.00    -0.270 OA
HETATM   17  N2  UNL     1      92.417 100.937 -47.169  1.00  0.00    -0.301 N
HETATM   18  C12 UNL     1      92.852 101.150 -48.255  1.00  0.00     0.203 C
ATOM     19  H2  UNL     1      92.693  99.984 -46.935  1.00  0.00     0.171 HD
HETATM   20  N3  UNL     1      92.706 102.381 -48.954  1.00  0.00    -0.066 NA
HETATM   21  N4  UNL     1      93.479 100.110 -49.076  1.00  0.00    -0.066 NA
ENDBRANCH   1  15
BRANCH   1  22
HETATM   22  C13 UNL     1      89.956  99.563 -45.965  1.00  0.00     0.255 C
HETATM   23  O2  UNL     1      90.373  99.016 -47.058  1.00  0.00    -0.270 OA
HETATM   24  N5  UNL     1      88.714  99.387 -45.576  1.00  0.00    -0.311 N
ATOM     25  H5  UNL     1      88.285 100.256 -45.893  1.00  0.00     0.170 HD
BRANCH  24  26
HETATM   26  C14 UNL     1      87.775  98.836 -45.078  1.00  0.00     0.107 A
HETATM   27  C15 UNL     1      87.336  97.629 -45.656  1.00  0.00     0.048 A
HETATM   28  C16 UNL     1      86.243  97.003 -45.152  1.00  0.00     0.005 A
HETATM   29  C17 UNL     1      85.594  97.558 -44.092  1.00  0.00     0.017 A
HETATM   30  C18 UNL     1      85.992  98.733 -43.500  1.00  0.00     0.089 A
HETATM   31  N6  UNL     1      87.064  99.336 -44.004  1.00  0.00    -0.352 N
ATOM     32  H6  UNL     1      87.376 100.209 -43.578  1.00  0.00     0.166 HD
ENDBRANCH  24  26
ENDBRANCH   1  22
TORSDOF 7
ENDMDL