MODEL 4
REMARK VINA RESULT: -7.306121709      2.623      3.893
REMARK  6 active torsions:
REMARK  status: ('A' for Active; 'I' for Inactive)
REMARK    1  A    between atoms: C4_8  and  C5_9
REMARK    2  A    between atoms: C6_10  and  C7_11
REMARK    3  A    between atoms: C7_11  and  C8_12
REMARK    4  A    between atoms: C8_12  and  N3_14
REMARK    5  A    between atoms: N3_14  and  C10_16
REMARK    6  A    between atoms: C13_19  and  C14_20
ROOT
HETATM    1  C5  UNL     1      90.511  99.216 -43.117  1.00  0.00     0.044 A
HETATM    2  C6  UNL     1      89.782  99.550 -44.227  1.00  0.00    -0.007 A
HETATM    3  C24 UNL     1      89.593  98.557 -45.222  1.00  0.00     0.055 A
HETATM    4 CL1  UNL     1      88.673  98.965 -46.638  1.00  0.00    -0.083 Cl
HETATM    5  C25 UNL     1      90.107  97.296 -45.102  1.00  0.00     0.013 A
HETATM    6  C26 UNL     1      89.919  96.326 -46.076  1.00  0.00     0.015 A
HETATM    7  C27 UNL     1      90.442  95.053 -45.944  1.00  0.00     0.001 A
HETATM    8  C28 UNL     1      91.166  94.764 -44.807  1.00  0.00     0.002 A
HETATM    9  C29 UNL     1      91.358  95.725 -43.834  1.00  0.00     0.030 A
HETATM   10  C30 UNL     1      90.831  97.008 -43.966  1.00  0.00     0.046 A
HETATM   11  N5  UNL     1      91.009  97.948 -43.032  1.00  0.00    -0.350 N
HETATM   12  C31 UNL     1      91.776  97.606 -41.849  1.00  0.00     0.156 C
ENDROOT
BRANCH   2  13
HETATM   13  C7  UNL     1      89.146 100.848 -44.396  1.00  0.00     0.067 C
BRANCH  13  14
HETATM   14  C8  UNL     1      88.237 101.335 -43.328  1.00  0.00     0.082 C
HETATM   15  C9  UNL     1      88.418 102.786 -42.988  1.00  0.00     0.032 C
BRANCH  14  16
HETATM   16  N3  UNL     1      86.833 101.124 -43.677  1.00  0.00    -0.385 N
ATOM     17  H3  UNL     1      86.176 101.850 -43.395  1.00  0.00     0.160 HD
BRANCH  16  18
HETATM   18  C10 UNL     1      86.304 100.034 -44.354  1.00  0.00     0.028 A
HETATM   19  C11 UNL     1      86.373  98.768 -43.840  1.00  0.00     0.030 A
HETATM   20  C12 UNL     1      85.843  97.653 -44.487  1.00  0.00     0.014 A
HETATM   21  C13 UNL     1      85.219  97.835 -45.705  1.00  0.00    -0.019 A
HETATM   22  C22 UNL     1      85.147  99.108 -46.228  1.00  0.00     0.014 A
HETATM   23  C23 UNL     1      85.681 100.213 -45.571  1.00  0.00     0.030 A
BRANCH  21  24
HETATM   24  C14 UNL     1      84.662  96.667 -46.385  1.00  0.00     0.055 A
HETATM   25  C15 UNL     1      85.163  96.014 -47.430  1.00  0.00     0.007 A
HETATM   26  C16 UNL     1      86.308  96.233 -48.154  1.00  0.00     0.015 A
HETATM   27  C20 UNL     1      84.352  94.963 -47.792  1.00  0.00     0.046 A
HETATM   28  C17 UNL     1      86.669  95.438 -49.225  1.00  0.00     0.001 A
HETATM   29  C18 UNL     1      85.869  94.379 -49.601  1.00  0.00     0.002 A
HETATM   30  C19 UNL     1      84.717  94.158 -48.875  1.00  0.00     0.030 A
HETATM   31  N4  UNL     1      83.327  94.903 -47.010  1.00  0.00    -0.322 N
HETATM   32  C21 UNL     1      83.426  95.958 -46.065  1.00  0.00     0.258 A
ATOM     33  H4  UNL     1      82.574  94.216 -47.062  1.00  0.00     0.169 HD
HETATM   34  O1  UNL     1      82.611  96.228 -45.135  1.00  0.00    -0.267 OA
ENDBRANCH  21  24
ENDBRANCH  16  18
ENDBRANCH  14  16
ENDBRANCH  13  14
ENDBRANCH   2  13
BRANCH   1  35
HETATM   35  C4  UNL     1      90.849 100.146 -42.046  1.00  0.00     0.065 C
HETATM   36  C3  UNL     1      91.909 100.966 -42.147  1.00  0.00     0.102 A
HETATM   37  N2  UNL     1      92.770 101.063 -43.169  1.00  0.00    -0.296 N
HETATM   38  C32 UNL     1      92.292 101.869 -41.181  1.00  0.00     0.227 A
HETATM   39  N1  UNL     1      93.666 101.981 -42.881  1.00  0.00    -0.297 N
ATOM     40  H2  UNL     1      92.735 100.515 -44.029  1.00  0.00     0.187 HD
HETATM   41  C2  UNL     1      93.407 102.507 -41.659  1.00  0.00     0.091 A
ATOM     42  H1  UNL     1      94.439 102.256 -43.486  1.00  0.00     0.187 HD
HETATM   43  C1  UNL     1      94.110 103.461 -41.047  1.00  0.00     0.049 C
HETATM   44  O2  UNL     1      91.735 102.089 -40.052  1.00  0.00    -0.283 OA
ENDBRANCH   1  35
TORSDOF 6
ENDMDL