MODEL 4
REMARK VINA RESULT: -6.724938717      4.385      7.984
REMARK  6 active torsions:
REMARK  status: ('A' for Active; 'I' for Inactive)
REMARK    1  A    between atoms: C5_9  and  C6_10
REMARK    2  A    between atoms: C6_10  and  C12_20
REMARK    3  A    between atoms: N3_11  and  C7_13
REMARK    4  A    between atoms: C12_20  and  C13_21
REMARK    5  A    between atoms: C14_22  and  C15_23
REMARK       I    between atoms: N5_29  and  C21_31
REMARK       I    between atoms: C21_31  and  N6_33
REMARK    6  A    between atoms: N6_33  and  C22_35
ROOT
HETATM    1  C12 UNL     1      88.848  99.825 -43.994  1.00  0.00     0.064 C
HETATM    2  N5  UNL     1      89.253 100.924 -43.976  1.00  0.00    -0.306 N
ATOM      3  H5  UNL     1      88.832 101.597 -44.616  1.00  0.00     0.170 HD
HETATM    4  C21 UNL     1      90.334 101.400 -43.086  1.00  0.00     0.325 C
HETATM    5  O2  UNL     1      91.434 101.654 -43.635  1.00  0.00    -0.247 OA
HETATM    6  N6  UNL     1      90.075 101.519 -41.707  1.00  0.00    -0.309 N
ATOM      7  H6  UNL     1      89.129 101.299 -41.396  1.00  0.00     0.170 HD
ENDROOT
BRANCH   1   8
HETATM    8  C6  UNL     1      87.553  99.421 -45.120  1.00  0.00     0.079 C
HETATM    9  N3  UNL     1      88.550  98.931 -45.892  1.00  0.00    -0.340 N
ATOM     10  H3  UNL     1      88.829  97.955 -45.798  1.00  0.00     0.167 HD
BRANCH   8  11
HETATM   11  C5  UNL     1      86.631  99.875 -44.405  1.00  0.00     0.090 A
HETATM   12  C2  UNL     1      85.673  98.683 -44.157  1.00  0.00     0.057 A
HETATM   13  C1  UNL     1      85.852  97.487 -44.652  1.00  0.00     0.045 C
HETATM   14  N1  UNL     1      84.754  99.107 -43.348  1.00  0.00    -0.296 N
HETATM   15  N2  UNL     1      84.911 100.349 -43.006  1.00  0.00    -0.261 N
ATOM     16  H1  UNL     1      83.986  98.525 -43.015  1.00  0.00     0.187 HD
HETATM   17  C3  UNL     1      84.070 101.149 -42.121  1.00  0.00     0.181 C
HETATM   18  C4  UNL     1      86.043 100.785 -43.652  1.00  0.00     0.276 A
HETATM   19  O1  UNL     1      86.373 102.011 -43.420  1.00  0.00    -0.266 OA
ENDBRANCH   8  11
BRANCH   9  20
HETATM   20  C7  UNL     1      89.173  99.717 -46.779  1.00  0.00     0.105 A
HETATM   21  C8  UNL     1      88.440 100.577 -47.518  1.00  0.00     0.048 A
HETATM   22  C9  UNL     1      89.151 101.376 -48.420  1.00  0.00     0.005 A
HETATM   23  C10 UNL     1      90.516 101.241 -48.499  1.00  0.00     0.017 A
HETATM   24  C11 UNL     1      91.229 100.330 -47.714  1.00  0.00     0.089 A
HETATM   25  N4  UNL     1      90.511  99.584 -46.862  1.00  0.00    -0.352 N
ATOM     26  H4  UNL     1      90.986  98.904 -46.268  1.00  0.00     0.166 HD
ENDBRANCH   9  20
ENDBRANCH   1   8
BRANCH   1  27
HETATM   27  C13 UNL     1      89.426  98.596 -43.528  1.00  0.00     0.033 C
HETATM   28  C14 UNL     1      90.655  98.193 -43.404  1.00  0.00     0.013 C
BRANCH  28  29
HETATM   29  C15 UNL     1      91.014  96.854 -42.888  1.00  0.00    -0.036 A
HETATM   30  C16 UNL     1      91.029  95.789 -43.787  1.00  0.00     0.011 A
HETATM   31  C17 UNL     1      91.308  94.503 -43.379  1.00  0.00     0.001 A
HETATM   32  C18 UNL     1      91.583  94.223 -42.054  1.00  0.00     0.000 A
HETATM   33  C19 UNL     1      91.570  95.278 -41.174  1.00  0.00     0.001 A
HETATM   34  C20 UNL     1      91.290  96.592 -41.572  1.00  0.00     0.011 A
ENDBRANCH  28  29
ENDBRANCH   1  27
BRANCH   6  35
HETATM   35  C22 UNL     1      91.005 101.917 -40.700  1.00  0.00     0.037 A
HETATM   36  C23 UNL     1      92.258 101.278 -40.718  1.00  0.00     0.029 A
HETATM   37  C24 UNL     1      93.219 101.640 -39.815  1.00  0.00     0.004 A
HETATM   38  C25 UNL     1      92.971 102.619 -38.896  1.00  0.00     0.019 A
HETATM   39  C26 UNL     1      91.743 103.284 -38.843  1.00  0.00     0.013 A
HETATM   40 BR1  UNL     1      91.445 104.674 -37.592  1.00  0.00    -0.051 Br
HETATM   41  C27 UNL     1      90.783 102.894 -39.770  1.00  0.00     0.048 A
ENDBRANCH   6  35
TORSDOF 6
ENDMDL