MODEL 2
REMARK VINA RESULT: -7.730449006      3.445      7.355
REMARK  7 active torsions:
REMARK  status: ('A' for Active; 'I' for Inactive)
REMARK    1  A    between atoms: C2_2  and  C3_3
REMARK    2  A    between atoms: N2_22  and  C18_23
REMARK    3  A    between atoms: C18_23  and  C19_24
REMARK    4  A    between atoms: C19_24  and  C20_25
REMARK    5  A    between atoms: C20_25  and  C21_26
REMARK       I    between atoms: C21_26  and  N3_28
REMARK    6  A    between atoms: C23_33  and  N6_34
REMARK    7  A    between atoms: C24_38  and  C25_39
ROOT
HETATM    1  C3  UNL     1      91.130 101.057 -41.511  1.00  0.00     0.032 A
HETATM    2  C4  UNL     1      91.462  99.749 -41.887  1.00  0.00     0.030 A
HETATM    3  C5  UNL     1      90.783  99.135 -42.934  1.00  0.00    -0.007 A
HETATM    4  C6  UNL     1      89.794  99.774 -43.629  1.00  0.00     0.056 A
HETATM    5  N1  UNL     1      89.490 101.043 -43.238  1.00  0.00    -0.322 N
ATOM      6  H1  UNL     1      88.752 101.544 -43.731  1.00  0.00     0.169 HD
HETATM    7  C7  UNL     1      90.125 101.657 -42.229  1.00  0.00     0.256 A
HETATM    8  O1  UNL     1      89.779 102.839 -41.929  1.00  0.00    -0.267 OA
HETATM    9  C8  UNL     1      89.308  99.308 -44.814  1.00  0.00     0.033 C
HETATM   10  C9  UNL     1      88.252 100.102 -45.369  1.00  0.00     0.068 A
HETATM   11  C10 UNL     1      86.978  99.910 -44.755  1.00  0.00     0.072 A
HETATM   12 CL1  UNL     1      86.765  98.759 -43.449  1.00  0.00    -0.081 Cl
HETATM   13  C11 UNL     1      85.860 100.606 -45.140  1.00  0.00    -0.001 A
HETATM   14  C12 UNL     1      84.630 100.401 -44.521  1.00  0.00     0.014 A
HETATM   15  C13 UNL     1      83.535 101.118 -44.931  1.00  0.00     0.001 A
HETATM   16  C14 UNL     1      83.626 102.035 -45.942  1.00  0.00     0.001 A
HETATM   17  C15 UNL     1      84.824 102.265 -46.577  1.00  0.00     0.014 A
HETATM   18  C16 UNL     1      85.933 101.526 -46.147  1.00  0.00    -0.009 A
HETATM   19  C17 UNL     1      87.161 101.702 -46.731  1.00  0.00     0.103 A
HETATM   20  N2  UNL     1      88.270 100.998 -46.335  1.00  0.00    -0.354 N
HETATM   21  C23 UNL     1      90.030  98.147 -45.322  1.00  0.00     0.255 C
HETATM   22  C24 UNL     1      90.325  97.177 -44.221  1.00  0.00    -0.012 C
HETATM   23  C31 UNL     1      91.047  97.828 -43.145  1.00  0.00     0.024 C
ENDROOT
BRANCH  21  24
HETATM   24  N6  UNL     1      91.341  98.627 -45.820  1.00  0.00    -0.067 N
ATOM     25  H63 UNL     1      91.288  99.032 -46.755  1.00  0.00     0.275 HD
ATOM     26  H62 UNL     1      91.672  99.460 -45.333  1.00  0.00     0.275 HD
ATOM     27  H61 UNL     1      91.994  97.844 -45.760  1.00  0.00     0.275 HD
ENDBRANCH  21  24
BRANCH  20  28
HETATM   28  C18 UNL     1      89.461 101.294 -47.079  1.00  0.00     0.129 C
BRANCH  28  29
HETATM   29  C19 UNL     1      90.210 102.476 -46.483  1.00  0.00     0.029 C
BRANCH  29  30
HETATM   30  C20 UNL     1      91.465 102.812 -47.257  1.00  0.00     0.105 C
BRANCH  30  31
HETATM   31  C21 UNL     1      92.567 101.867 -46.954  1.00  0.00     0.223 C
HETATM   32  O2  UNL     1      92.655 101.325 -45.828  1.00  0.00    -0.273 OA
HETATM   33  N3  UNL     1      93.520 101.586 -47.957  1.00  0.00    -0.304 N
HETATM   34  C22 UNL     1      93.331 100.621 -48.812  1.00  0.00     0.203 C
ATOM     35  H3  UNL     1      94.371 102.146 -48.013  1.00  0.00     0.171 HD
HETATM   36  N4  UNL     1      92.151  99.863 -48.710  1.00  0.00    -0.066 NA
HETATM   37  N5  UNL     1      94.317 100.358 -49.820  1.00  0.00    -0.066 NA
ENDBRANCH  30  31
ENDBRANCH  29  30
ENDBRANCH  28  29
ENDBRANCH  20  28
BRANCH  22  38
HETATM   38  C25 UNL     1      90.753  95.834 -44.614  1.00  0.00    -0.028 A
HETATM   39  C26 UNL     1      90.573  95.337 -45.888  1.00  0.00     0.012 A
HETATM   40  C27 UNL     1      90.983  94.048 -46.211  1.00  0.00     0.001 A
HETATM   41  C28 UNL     1      91.575  93.221 -45.299  1.00  0.00     0.000 A
HETATM   42  C29 UNL     1      91.768  93.698 -44.010  1.00  0.00     0.001 A
HETATM   43  C30 UNL     1      91.358  94.983 -43.690  1.00  0.00     0.012 A
ENDBRANCH  22  38
BRANCH   1  44
HETATM   44  C2  UNL     1      91.797 101.740 -40.427  1.00  0.00     0.007 C
HETATM   45  C1  UNL     1      93.035 101.471 -40.113  1.00  0.00     0.012 C
ENDBRANCH   1  44
TORSDOF 7
ENDMDL