MODEL 2
REMARK VINA RESULT: -5.622302823      1.895      2.629
REMARK  9 active torsions:
REMARK  status: ('A' for Active; 'I' for Inactive)
REMARK    1  A    between atoms: N2_4  and  C3_5
REMARK    2  A    between atoms: C3_5  and  C4_6
REMARK    3  A    between atoms: C8_11  and  C9_12
REMARK    4  A    between atoms: C12_17  and  N4_18
REMARK    5  A    between atoms: N5_21  and  C13_22
REMARK    6  A    between atoms: C13_22  and  C14_23
REMARK    7  A    between atoms: C17_26  and  C18_27
REMARK    8  A    between atoms: C21_30  and  S1_31
REMARK    9  A    between atoms: S1_31  and  N6_32
ROOT
HETATM    1  C9  UNL     1      88.898  99.062 -44.381  1.00  0.00     0.080 A
HETATM    2  C10 UNL     1      87.506  99.023 -44.212  1.00  0.00     0.050 A
HETATM    3  C11 UNL     1      86.751 100.162 -44.266  1.00  0.00     0.108 A
HETATM    4  N3  UNL     1      87.371 101.328 -44.485  1.00  0.00    -0.202 N
ATOM      5  H3  UNL     1      86.816 102.183 -44.527  1.00  0.00     0.183 HD
HETATM    6  C12 UNL     1      88.714 101.409 -44.652  1.00  0.00     0.678 A
HETATM    7  N5  UNL     1      89.446 100.283 -44.596  1.00  0.00    -0.177 N
ENDROOT
BRANCH   7   8
HETATM    8  C13 UNL     1      90.867 100.429 -44.709  1.00  0.00     0.186 C
BRANCH   8   9
HETATM    9  C14 UNL     1      91.559 100.991 -43.534  1.00  0.00    -0.039 A
HETATM   10  C15 UNL     1      92.589 101.891 -43.787  1.00  0.00     0.010 A
HETATM   11  C16 UNL     1      93.242 102.465 -42.732  1.00  0.00     0.013 A
HETATM   12  C17 UNL     1      92.963 102.225 -41.406  1.00  0.00    -0.026 A
HETATM   13  C24 UNL     1      91.938 101.330 -41.162  1.00  0.00     0.013 A
HETATM   14  C25 UNL     1      91.265 100.738 -42.223  1.00  0.00     0.010 A
BRANCH  12  15
HETATM   15  C18 UNL     1      93.705 102.877 -40.333  1.00  0.00    -0.026 A
HETATM   16  C19 UNL     1      93.260 102.827 -39.013  1.00  0.00     0.014 A
HETATM   17  C20 UNL     1      93.965 103.442 -38.003  1.00  0.00     0.026 A
HETATM   18  C21 UNL     1      95.136 104.133 -38.253  1.00  0.00     0.079 A
HETATM   19  C22 UNL     1      95.588 104.190 -39.551  1.00  0.00     0.026 A
HETATM   20  C23 UNL     1      94.877 103.571 -40.557  1.00  0.00     0.014 A
BRANCH  18  21
HETATM   21  S1  UNL     1      96.026 104.914 -36.966  1.00  0.00     0.256 S
HETATM   22  O1  UNL     1      96.898 103.836 -36.339  1.00  0.00    -0.201 OA
HETATM   23  O2  UNL     1      96.862 106.020 -37.492  1.00  0.00    -0.201 OA
BRANCH  21  24
HETATM   24  N6  UNL     1      95.004 105.514 -35.731  1.00  0.00    -0.324 N
ATOM     25  H62 UNL     1      94.076 105.131 -35.545  1.00  0.00     0.169 HD
ATOM     26  H61 UNL     1      95.426 106.285 -35.214  1.00  0.00     0.169 HD
ENDBRANCH  21  24
ENDBRANCH  18  21
ENDBRANCH  12  15
ENDBRANCH   8   9
ENDBRANCH   7   8
BRANCH   1  27
HETATM   27  C8  UNL     1      89.648  97.814 -44.397  1.00  0.00     0.064 A
HETATM   28  N1  UNL     1      89.601  97.063 -45.498  1.00  0.00    -0.345 N
HETATM   29  C1  UNL     1      88.836  97.414 -46.700  1.00  0.00     0.157 C
HETATM   30  C2  UNL     1      90.292  95.898 -45.508  1.00  0.00     0.185 A
HETATM   31  N2  UNL     1      91.018  95.469 -44.463  1.00  0.00    -0.349 N
HETATM   32  C6  UNL     1      91.084  96.205 -43.339  1.00  0.00     0.094 A
HETATM   33  C7  UNL     1      90.379  97.395 -43.329  1.00  0.00     0.049 A
BRANCH  31  34
HETATM   34  C3  UNL     1      91.748  94.202 -44.526  1.00  0.00     0.156 C
BRANCH  34  35
HETATM   35  C4  UNL     1      91.501  93.527 -45.813  1.00  0.00     0.001 C
HETATM   36  C5  UNL     1      91.570  92.217 -45.944  1.00  0.00     0.053 C
HETATM   37 BR1  UNL     1      91.250  91.342 -47.605  1.00  0.00    -0.064 Br
ENDBRANCH  34  35
ENDBRANCH  31  34
ENDBRANCH   1  27
BRANCH   6  38
HETATM   38  N4  UNL     1      89.167 102.586 -44.860  1.00  0.00    -0.234 N
ATOM     39  H42 UNL     1      88.764 103.279 -45.491  1.00  0.00     0.174 HD
ATOM     40  H41 UNL     1      90.004 102.829 -44.331  1.00  0.00     0.174 HD
ENDBRANCH   6  38
TORSDOF 9
ENDMDL