MODEL 5
REMARK VINA RESULT: -6.592520611      4.281      6.570
REMARK  8 active torsions:
REMARK  status: ('A' for Active; 'I' for Inactive)
REMARK       I    between atoms: C1_4  and  N3_6
REMARK       I    between atoms: N3_6  and  C2_7
REMARK    1  A    between atoms: C2_7  and  C3_9
REMARK    2  A    between atoms: C6_12  and  C7_13
REMARK    3  A    between atoms: N4_16  and  C10_17
REMARK    4  A    between atoms: C10_17  and  C11_18
REMARK    5  A    between atoms: C11_18  and  N5_19
REMARK    6  A    between atoms: C11_18  and  C12_23
REMARK    7  A    between atoms: N6_27  and  C16_28
REMARK    8  A    between atoms: C16_28  and  C17_29
ROOT
HETATM    1  C7  UNL     1      90.793  97.550 -44.348  1.00  0.00     0.045 A
HETATM    2  C8  UNL     1      89.949  97.825 -43.298  1.00  0.00     0.037 A
HETATM    3  C9  UNL     1      89.853  99.156 -42.927  1.00  0.00     0.111 A
HETATM    4  N4  UNL     1      90.521 100.162 -43.517  1.00  0.00    -0.298 N
HETATM    5  N7  UNL     1      91.323  99.842 -44.529  1.00  0.00    -0.264 N
ATOM      6  H7  UNL     1      91.841 100.584 -44.999  1.00  0.00     0.190 HD
HETATM    7  C24 UNL     1      91.474  98.565 -44.957  1.00  0.00     0.271 A
HETATM    8  O2  UNL     1      92.271  98.353 -45.942  1.00  0.00    -0.266 OA
ENDROOT
BRANCH   4   9
HETATM    9  C10 UNL     1      90.364 101.535 -43.043  1.00  0.00     0.186 C
BRANCH   9  10
HETATM   10  C11 UNL     1      90.306 101.580 -41.536  1.00  0.00     0.237 C
BRANCH  10  11
HETATM   11  N5  UNL     1      89.278 102.513 -41.082  1.00  0.00    -0.069 N
ATOM     12  H53 UNL     1      89.686 103.339 -40.644  1.00  0.00     0.275 HD
ATOM     13  H52 UNL     1      88.809 102.969 -41.865  1.00  0.00     0.275 HD
ATOM     14  H51 UNL     1      88.613 102.048 -40.463  1.00  0.00     0.275 HD
ENDBRANCH  10  11
BRANCH  10  15
HETATM   15  C12 UNL     1      91.614 102.030 -40.960  1.00  0.00    -0.011 A
HETATM   16  C13 UNL     1      92.381 101.074 -40.283  1.00  0.00     0.012 A
HETATM   17  C14 UNL     1      93.582 101.477 -39.769  1.00  0.00     0.018 A
HETATM   18  C15 UNL     1      94.008 102.767 -39.916  1.00  0.00     0.090 A
HETATM   19  N6  UNL     1      93.281 103.706 -40.568  1.00  0.00    -0.362 N
HETATM   20  C23 UNL     1      92.105 103.305 -41.069  1.00  0.00     0.100 A
BRANCH  19  21
HETATM   21  C16 UNL     1      93.831 105.038 -40.679  1.00  0.00     0.166 C
BRANCH  21  22
HETATM   22  C17 UNL     1      95.039 105.000 -41.541  1.00  0.00    -0.040 A
HETATM   23  C18 UNL     1      96.278 105.384 -41.080  1.00  0.00     0.010 A
HETATM   24  C19 UNL     1      97.405 105.357 -41.883  1.00  0.00     0.019 A
HETATM   25  C20 UNL     1      97.335 104.943 -43.193  1.00  0.00     0.011 A
HETATM   26 BR1  UNL     1      98.880 104.911 -44.321  1.00  0.00    -0.051 Br
HETATM   27  C21 UNL     1      96.093 104.556 -43.659  1.00  0.00     0.019 A
HETATM   28  C22 UNL     1      94.973 104.584 -42.856  1.00  0.00     0.010 A
ENDBRANCH  21  22
ENDBRANCH  19  21
ENDBRANCH  10  15
ENDBRANCH   9  10
ENDBRANCH   4   9
BRANCH   1  29
HETATM   29  C6  UNL     1      90.951  96.159 -44.767  1.00  0.00    -0.020 A
HETATM   30  C5  UNL     1      90.504  95.807 -46.016  1.00  0.00     0.013 A
HETATM   31  C4  UNL     1      90.679  94.475 -46.414  1.00  0.00     0.019 A
HETATM   32  C3  UNL     1      91.269  93.550 -45.598  1.00  0.00     0.046 A
HETATM   33  C26 UNL     1      91.697  93.955 -44.362  1.00  0.00     0.019 A
HETATM   34  C25 UNL     1      91.548  95.260 -43.920  1.00  0.00     0.013 A
BRANCH  32  35
HETATM   35  C2  UNL     1      91.441  92.129 -46.060  1.00  0.00     0.328 C
HETATM   36  N3  UNL     1      91.099  91.731 -47.290  1.00  0.00    -0.334 NA
HETATM   37  C1  UNL     1      90.748  91.322 -48.554  1.00  0.00     0.264 C
HETATM   38  N1  UNL     1      90.229  92.295 -49.325  1.00  0.00    -0.362 N
HETATM   39  N2  UNL     1      90.854  90.039 -49.144  1.00  0.00    -0.049 NA
ATOM     40  H12 UNL     1      89.967  91.992 -50.263  1.00  0.00     0.159 HD
ATOM     41  H11 UNL     1      90.152  93.219 -48.901  1.00  0.00     0.159 HD
HETATM   42  O1  UNL     1      91.941  91.416 -45.125  1.00  0.00    -0.251 OA
ENDBRANCH  32  35
ENDBRANCH   1  29
TORSDOF 8
ENDMDL