MODEL 5
REMARK VINA RESULT: -6.666643033      3.293      5.743
REMARK  9 active torsions:
REMARK  status: ('A' for Active; 'I' for Inactive)
REMARK    1  A    between atoms: C3_3  and  S1_4
REMARK    2  A    between atoms: C8_10  and  S2_11
REMARK    3  A    between atoms: S2_11  and  N1_14
REMARK    4  A    between atoms: N1_14  and  C9_16
REMARK    5  A    between atoms: C10_19  and  C11_20
REMARK    6  A    between atoms: C11_20  and  C12_21
REMARK    7  A    between atoms: C12_21  and  C13_22
REMARK    8  A    between atoms: C17_29  and  C18_30
REMARK    9  A    between atoms: C22_36  and  N5_37
ROOT
HETATM    1  C9  UNL     1      88.028  98.409 -44.282  1.00  0.00     0.160 A
HETATM    2  N2  UNL     1      87.175  97.903 -45.168  1.00  0.00    -0.337 N
ATOM      3  H2  UNL     1      87.571  97.462 -45.999  1.00  0.00     0.167 HD
HETATM    4  C10 UNL     1      85.810  97.923 -45.059  1.00  0.00     0.057 A
HETATM    5  C17 UNL     1      85.276  98.517 -43.935  1.00  0.00     0.060 A
HETATM    6  N4  UNL     1      86.155  99.050 -43.002  1.00  0.00    -0.338 N
ATOM      7  H4  UNL     1      85.780  99.495 -42.164  1.00  0.00     0.167 HD
HETATM    8  C22 UNL     1      87.484  98.996 -43.174  1.00  0.00     0.145 A
ENDROOT
BRANCH   1   9
HETATM    9  N1  UNL     1      89.298  98.388 -44.368  1.00  0.00    -0.263 N
ATOM     10  H1  UNL     1      89.811  98.827 -43.603  1.00  0.00     0.180 HD
BRANCH   9  11
HETATM   11  S2  UNL     1      90.239  97.709 -45.620  1.00  0.00     0.264 S
HETATM   12  O2  UNL     1      91.443  98.556 -45.914  1.00  0.00    -0.200 OA
HETATM   13  O3  UNL     1      89.388  97.624 -46.854  1.00  0.00    -0.200 OA
BRANCH  11  14
HETATM   14  C8  UNL     1      90.746  96.105 -45.126  1.00  0.00     0.087 A
HETATM   15  C2  UNL     1      91.163  95.942 -43.808  1.00  0.00    -0.020 A
HETATM   16  C1  UNL     1      91.172  97.087 -42.871  1.00  0.00     0.051 C
HETATM   17  C3  UNL     1      91.560  94.675 -43.433  1.00  0.00     0.038 A
HETATM   18  C5  UNL     1      91.556  93.597 -44.299  1.00  0.00     0.021 A
HETATM   19  C6  UNL     1      91.135  93.801 -45.601  1.00  0.00     0.003 A
HETATM   20  C7  UNL     1      90.733  95.064 -45.997  1.00  0.00     0.026 A
BRANCH  17  21
HETATM   21  S1  UNL     1      92.087  94.489 -41.754  1.00  0.00     0.046 S
HETATM   22  C4  UNL     1      93.093  93.019 -41.599  1.00  0.00     0.133 C
HETATM   23  O1  UNL     1      90.711  94.357 -40.806  1.00  0.00    -0.253 OA
ENDBRANCH  17  21
ENDBRANCH  11  14
ENDBRANCH   9  11
ENDBRANCH   1   9
BRANCH   8  24
HETATM   24  N5  UNL     1      88.227  99.511 -42.267  1.00  0.00    -0.382 N
ATOM     25  H52 UNL     1      87.926 100.390 -41.845  1.00  0.00     0.157 HD
ATOM     26  H51 UNL     1      89.093  99.056 -41.976  1.00  0.00     0.157 HD
ENDBRANCH   8  24
BRANCH   4  27
HETATM   27  C11 UNL     1      85.106  97.366 -46.023  1.00  0.00     0.011 C
BRANCH  27  28
HETATM   28  C12 UNL     1      85.772  96.913 -47.265  1.00  0.00     0.086 C
BRANCH  28  29
HETATM   29  C13 UNL     1      85.224  95.655 -47.811  1.00  0.00     0.013 A
HETATM   30  C14 UNL     1      84.142  94.985 -47.310  1.00  0.00     0.028 A
HETATM   31  C15 UNL     1      83.912  93.851 -48.069  1.00  0.00     0.039 A
HETATM   32  C16 UNL     1      84.879  93.843 -49.045  1.00  0.00     0.080 A
HETATM   33 BR1  UNL     1      85.034  92.483 -50.387  1.00  0.00    -0.031 Br
HETATM   34  N3  UNL     1      85.642  94.929 -48.864  1.00  0.00    -0.354 N
ATOM     35  H3  UNL     1      86.440  95.173 -49.450  1.00  0.00     0.166 HD
ENDBRANCH  28  29
ENDBRANCH  27  28
ENDBRANCH   4  27
BRANCH   5  36
HETATM   36  C18 UNL     1      84.025  98.643 -43.631  1.00  0.00     0.034 C
HETATM   37  C19 UNL     1      82.843  99.422 -43.896  1.00  0.00    -0.085 C
HETATM   38  C20 UNL     1      82.823 100.829 -43.376  1.00  0.00     0.043 C
HETATM   39  C21 UNL     1      82.192  99.313 -45.234  1.00  0.00     0.043 C
ENDBRANCH   5  36
TORSDOF 9
ENDMDL