MODEL 2
REMARK VINA RESULT: -7.104325820      1.070      1.505
REMARK  7 active torsions:
REMARK  status: ('A' for Active; 'I' for Inactive)
REMARK    1  A    between atoms: N1_2  and  C2_3
REMARK       I    between atoms: N1_2  and  C13_23
REMARK    2  A    between atoms: C2_3  and  C3_4
REMARK    3  A    between atoms: C6_7  and  C7_8
REMARK    4  A    between atoms: C10_11  and  N2_12
REMARK    5  A    between atoms: N2_12  and  S1_14
REMARK    6  A    between atoms: C13_23  and  C14_25
REMARK    7  A    between atoms: C18_29  and  C19_30
REMARK       I    between atoms: C19_30  and  N5_32
ROOT
HETATM    1  C3  UNL     1      89.893 100.536 -44.705  1.00  0.00     0.027 A
HETATM    2  C4  UNL     1      89.026 101.323 -44.001  1.00  0.00     0.029 A
HETATM    3  C5  UNL     1      89.836 101.999 -43.077  1.00  0.00     0.032 A
HETATM    4  C6  UNL     1      91.134 101.612 -43.242  1.00  0.00     0.044 A
HETATM    5  N4  UNL     1      91.144 100.713 -44.247  1.00  0.00    -0.357 N
ATOM      6  H4  UNL     1      91.975 100.240 -44.604  1.00  0.00     0.166 HD
ENDROOT
BRANCH   1   7
HETATM    7  C2  UNL     1      89.581  99.610 -45.824  1.00  0.00     0.182 C
BRANCH   7   8
HETATM    8  N1  UNL     1      89.756  98.252 -45.371  1.00  0.00    -0.347 N
HETATM    9  C1  UNL     1      88.564  97.572 -44.856  1.00  0.00     0.153 C
HETATM   10  C13 UNL     1      91.022  97.615 -45.410  1.00  0.00     0.255 C
HETATM   11  O3  UNL     1      91.993  98.237 -45.870  1.00  0.00    -0.267 OA
BRANCH  10  12
HETATM   12  C14 UNL     1      91.131  96.249 -44.902  1.00  0.00     0.050 A
HETATM   13  C15 UNL     1      91.013  95.210 -45.832  1.00  0.00     0.018 A
HETATM   14  C16 UNL     1      91.129  93.932 -45.335  1.00  0.00     0.002 A
HETATM   15  C17 UNL     1      91.351  93.688 -43.999  1.00  0.00     0.018 A
HETATM   16  C18 UNL     1      91.467  94.715 -43.084  1.00  0.00     0.050 A
HETATM   17  C21 UNL     1      91.353  96.001 -43.559  1.00  0.00     0.042 A
HETATM   18 BR1  UNL     1      91.505  97.441 -42.299  1.00  0.00    -0.049 Br
BRANCH  16  19
HETATM   19  C19 UNL     1      91.714  94.419 -41.661  1.00  0.00     0.259 C
HETATM   20  O4  UNL     1      90.753  94.507 -40.856  1.00  0.00    -0.267 OA
HETATM   21  N5  UNL     1      92.979  94.048 -41.187  1.00  0.00    -0.299 N
HETATM   22  C20 UNL     1      93.477  92.850 -41.242  1.00  0.00     0.203 C
ATOM     23  H5  UNL     1      93.555  94.776 -40.764  1.00  0.00     0.171 HD
HETATM   24  N6  UNL     1      92.671  91.850 -41.829  1.00  0.00    -0.066 NA
HETATM   25  N7  UNL     1      94.782  92.580 -40.731  1.00  0.00    -0.066 NA
ENDBRANCH  16  19
ENDBRANCH  10  12
ENDBRANCH   7   8
ENDBRANCH   1   7
BRANCH   4  26
HETATM   26  C7  UNL     1      92.289 102.083 -42.500  1.00  0.00     0.006 A
HETATM   27  C8  UNL     1      93.392 102.624 -43.126  1.00  0.00     0.019 A
HETATM   28  C9  UNL     1      94.491 103.073 -42.435  1.00  0.00     0.050 A
HETATM   29  C10 UNL     1      94.528 102.994 -41.077  1.00  0.00     0.114 A
HETATM   30  N3  UNL     1      93.433 102.456 -40.456  1.00  0.00    -0.351 N
HETATM   31  C12 UNL     1      92.369 102.022 -41.123  1.00  0.00     0.103 A
ATOM     32  H3  UNL     1      93.435 102.386 -39.438  1.00  0.00     0.166 HD
BRANCH  29  33
HETATM   33  N2  UNL     1      95.519 103.391 -40.342  1.00  0.00    -0.270 N
ATOM     34  H2  UNL     1      96.469 103.109 -40.582  1.00  0.00     0.180 HD
BRANCH  33  35
HETATM   35  S1  UNL     1      95.253 104.379 -38.980  1.00  0.00     0.228 S
HETATM   36  C11 UNL     1      96.708 105.303 -38.588  1.00  0.00     0.186 C
HETATM   37  O1  UNL     1      94.102 105.322 -39.297  1.00  0.00    -0.206 OA
HETATM   38  O2  UNL     1      94.873 103.495 -37.814  1.00  0.00    -0.206 OA
ENDBRANCH  33  35
ENDBRANCH  29  33
ENDBRANCH   4  26
TORSDOF 7
ENDMDL