MODEL 1
REMARK VINA RESULT: -6.313704088      0.000      0.000
REMARK  11 active torsions:
REMARK  status: ('A' for Active; 'I' for Inactive)
REMARK    1  A    between atoms: C5_5  and  C6_6
REMARK    2  A    between atoms: C6_6  and  C7_7
REMARK    3  A    between atoms: C7_7  and  C8_8
REMARK    4  A    between atoms: C8_8  and  C9_9
REMARK    5  A    between atoms: C9_9  and  C10_10
REMARK    6  A    between atoms: C13_13  and  C14_14
REMARK    7  A    between atoms: C22_25  and  C23_26
REMARK    8  A    between atoms: C23_26  and  C24_27
REMARK    9  A    between atoms: C24_27  and  C25_29
REMARK   10  A    between atoms: C26_32  and  C27_33
REMARK   11  A    between atoms: C30_36  and  C31_37
ROOT
HETATM    1  C10 UNL     1      91.948 101.462 -43.316  1.00  0.00    -0.026 A
HETATM    2  C11 UNL     1      92.546 100.643 -44.281  1.00  0.00     0.013 A
HETATM    3  C12 UNL     1      92.199  99.339 -44.449  1.00  0.00     0.015 A
HETATM    4  C13 UNL     1      91.183  98.707 -43.659  1.00  0.00     0.003 A
HETATM    5  C22 UNL     1      90.594  99.527 -42.750  1.00  0.00    -0.006 A
HETATM    6  C26 UNL     1      90.943 100.875 -42.519  1.00  0.00     0.012 A
ENDROOT
BRANCH   1   7
HETATM    7  C9  UNL     1      92.417 102.682 -43.205  1.00  0.00    -0.014 C
BRANCH   7   8
HETATM    8  C8  UNL     1      92.777 103.419 -44.490  1.00  0.00     0.032 C
BRANCH   8   9
HETATM    9  C7  UNL     1      91.686 104.427 -44.786  1.00  0.00     0.033 C
BRANCH   9  10
HETATM   10  C6  UNL     1      91.109 104.099 -46.104  1.00  0.00     0.003 C
BRANCH  10  11
HETATM   11  C5  UNL     1      90.425 102.981 -46.238  1.00  0.00     0.028 A
HETATM   12  C4  UNL     1      89.270 102.627 -45.580  1.00  0.00     0.031 A
HETATM   13  C3  UNL     1      88.882 101.378 -46.010  1.00  0.00     0.031 A
HETATM   14  C2  UNL     1      89.795 100.962 -46.930  1.00  0.00     0.023 A
HETATM   15  C1  UNL     1      89.774  99.796 -47.583  1.00  0.00     0.043 C
HETATM   16  N3  UNL     1      90.721 101.934 -47.061  1.00  0.00    -0.357 N
ATOM     17  H3  UNL     1      91.526 101.893 -47.685  1.00  0.00     0.166 HD
ENDBRANCH  10  11
ENDBRANCH   9  10
ENDBRANCH   8   9
ENDBRANCH   7   8
ENDBRANCH   1   7
BRANCH   6  18
HETATM   18  C27 UNL     1      90.370 101.573 -41.587  1.00  0.00     0.044 A
HETATM   19  C28 UNL     1      89.617 102.665 -41.426  1.00  0.00     0.033 A
HETATM   20  C29 UNL     1      89.825 103.398 -40.303  1.00  0.00     0.032 A
HETATM   21  C30 UNL     1      90.818 102.712 -39.656  1.00  0.00     0.043 A
HETATM   22  N2  UNL     1      91.152 101.646 -40.382  1.00  0.00    -0.355 N
ATOM     23  H2  UNL     1      91.868 100.971 -40.117  1.00  0.00     0.166 HD
BRANCH  21  24
HETATM   24  C31 UNL     1      91.354 103.067 -38.485  1.00  0.00     0.114 C
HETATM   25 CL1  UNL     1      90.328 103.481 -37.145  1.00  0.00    -0.095 Cl
ENDBRANCH  21  24
ENDBRANCH   6  18
BRANCH   5  26
HETATM   26  C23 UNL     1      89.221  99.334 -42.719  1.00  0.00     0.075 C
BRANCH  26  27
HETATM   27  C24 UNL     1      87.946  99.619 -43.145  1.00  0.00     0.248 C
HETATM   28  O2  UNL     1      87.177 100.556 -42.974  1.00  0.00    -0.281 OA
BRANCH  27  29
HETATM   29  C25 UNL     1      87.279  98.572 -44.041  1.00  0.00     0.251 C
HETATM   30  O3  UNL     1      87.869  98.085 -45.004  1.00  0.00    -0.642 OA
HETATM   31  O4  UNL     1      86.008  98.210 -43.719  1.00  0.00    -0.642 OA
ENDBRANCH  27  29
ENDBRANCH  26  27
ENDBRANCH   5  26
BRANCH   4  32
HETATM   32  C14 UNL     1      90.930  97.471 -43.965  1.00  0.00     0.057 A
HETATM   33  N1  UNL     1      90.773  96.971 -45.329  1.00  0.00    -0.321 N
HETATM   34  C15 UNL     1      90.869  95.595 -45.359  1.00  0.00     0.257 A
ATOM     35  H1  UNL     1      90.612  97.559 -46.146  1.00  0.00     0.169 HD
HETATM   36  O1  UNL     1      90.767  94.895 -46.409  1.00  0.00    -0.267 OA
HETATM   37  C16 UNL     1      91.102  95.144 -44.012  1.00  0.00     0.044 A
HETATM   38  C17 UNL     1      91.345  93.837 -43.562  1.00  0.00     0.018 A
HETATM   39  C21 UNL     1      91.149  96.231 -43.155  1.00  0.00     0.007 A
HETATM   40  C18 UNL     1      91.649  93.606 -42.248  1.00  0.00     0.001 A
HETATM   41  C19 UNL     1      91.705  94.699 -41.402  1.00  0.00     0.001 A
HETATM   42  C20 UNL     1      91.466  95.972 -41.830  1.00  0.00     0.015 A
ENDBRANCH   4  32
TORSDOF 11
ENDMDL