MODEL 4
REMARK VINA RESULT: -7.887154506      1.744      2.357
REMARK  10 active torsions:
REMARK  status: ('A' for Active; 'I' for Inactive)
REMARK    1  A    between atoms: C3_5  and  C4_6
REMARK    2  A    between atoms: C4_6  and  C5_7
REMARK    3  A    between atoms: C10_15  and  N3_16
REMARK    4  A    between atoms: N3_16  and  C11_17
REMARK    5  A    between atoms: C11_17  and  C12_18
REMARK    6  A    between atoms: C12_18  and  C13_19
REMARK    7  A    between atoms: C16_22  and  S1_23
REMARK    8  A    between atoms: C23_33  and  C24_34
REMARK    9  A    between atoms: C24_34  and  C25_35
REMARK   10  A    between atoms: C30_40  and  C31_41
ROOT
HETATM    1  C5  UNL     1      91.227  96.015 -43.466  1.00  0.00     0.034 A
HETATM    2  C6  UNL     1      91.398  96.090 -42.084  1.00  0.00     0.129 A
HETATM    3  F1  UNL     1      91.311  97.266 -41.452  1.00  0.00    -0.205 F
HETATM    4  C7  UNL     1      91.658  94.939 -41.382  1.00  0.00     0.045 A
HETATM    5  C8  UNL     1      91.760  93.703 -41.973  1.00  0.00     0.035 A
HETATM    6  C9  UNL     1      91.589  93.637 -43.342  1.00  0.00     0.063 A
HETATM    7  N2  UNL     1      91.631  92.603 -44.162  1.00  0.00    -0.314 N
ATOM      8  H2  UNL     1      91.808  91.638 -43.881  1.00  0.00     0.170 HD
HETATM    9  C10 UNL     1      91.399  93.025 -45.458  1.00  0.00     0.259 A
HETATM   10  N4  UNL     1      91.218  94.381 -45.343  1.00  0.00    -0.313 N
ATOM     11  H4  UNL     1      91.023  95.007 -46.124  1.00  0.00     0.170 HD
HETATM   12  C20 UNL     1      91.329  94.768 -44.076  1.00  0.00     0.076 A
ENDROOT
BRANCH   1  13
HETATM   13  C4  UNL     1      90.940  97.236 -44.191  1.00  0.00     0.047 C
BRANCH  13  14
HETATM   14  C3  UNL     1      89.753  97.806 -44.276  1.00  0.00     0.044 A
HETATM   15  N1  UNL     1      89.254  98.667 -43.394  1.00  0.00    -0.355 N
HETATM   16  C2  UNL     1      87.995  99.036 -43.807  1.00  0.00     0.034 A
ATOM     17  H1  UNL     1      89.726  98.997 -42.552  1.00  0.00     0.166 HD
HETATM   18  C1  UNL     1      87.281  99.879 -43.096  1.00  0.00     0.044 C
HETATM   19  C23 UNL     1      87.709  98.384 -44.980  1.00  0.00     0.002 A
HETATM   20  C21 UNL     1      88.834  97.598 -45.279  1.00  0.00    -0.006 A
HETATM   21  C22 UNL     1      88.960  96.818 -46.321  1.00  0.00     0.026 C
BRANCH  19  22
HETATM   22  C24 UNL     1      86.622  98.458 -45.712  1.00  0.00     0.027 C
BRANCH  22  23
HETATM   23  C25 UNL     1      85.372  97.771 -45.652  1.00  0.00    -0.020 A
HETATM   24  C26 UNL     1      84.645  97.869 -44.450  1.00  0.00     0.012 A
HETATM   25  C27 UNL     1      83.418  97.261 -44.340  1.00  0.00     0.001 A
HETATM   26  C28 UNL     1      82.880  96.555 -45.375  1.00  0.00     0.001 A
HETATM   27  C29 UNL     1      83.592  96.467 -46.535  1.00  0.00     0.017 A
HETATM   28  C30 UNL     1      84.846  97.065 -46.709  1.00  0.00     0.039 A
BRANCH  28  29
HETATM   29  C31 UNL     1      85.542  96.955 -47.971  1.00  0.00     0.265 C
HETATM   30  N5  UNL     1      85.481  97.902 -48.998  1.00  0.00    -0.057 NA
HETATM   31  O2  UNL     1      86.258  95.932 -48.168  1.00  0.00    -0.271 OA
ENDBRANCH  28  29
ENDBRANCH  22  23
ENDBRANCH  19  22
ENDBRANCH  13  14
ENDBRANCH   1  13
BRANCH   9  32
HETATM   32  N3  UNL     1      91.346  92.395 -46.459  1.00  0.00    -0.388 NA
BRANCH  32  33
HETATM   33  C11 UNL     1      91.450  91.458 -47.417  1.00  0.00     0.163 C
BRANCH  33  34
HETATM   34  C12 UNL     1      90.613  91.683 -48.679  1.00  0.00     0.098 C
BRANCH  34  35
HETATM   35  C13 UNL     1      90.199  90.363 -49.255  1.00  0.00    -0.052 A
HETATM   36  C14 UNL     1      90.823  89.185 -48.887  1.00  0.00     0.009 A
HETATM   37  C15 UNL     1      90.413  87.974 -49.432  1.00  0.00     0.021 A
HETATM   38  C16 UNL     1      89.390  87.885 -50.345  1.00  0.00     0.031 A
HETATM   39  C18 UNL     1      88.767  89.062 -50.714  1.00  0.00     0.021 A
HETATM   40  C19 UNL     1      89.176  90.265 -50.169  1.00  0.00     0.009 A
BRANCH  38  41
HETATM   41  S1  UNL     1      88.888  86.337 -51.021  1.00  0.00     0.045 S
HETATM   42  C17 UNL     1      87.890  85.477 -49.807  1.00  0.00     0.133 C
HETATM   43  O1  UNL     1      90.263  85.393 -51.323  1.00  0.00    -0.253 OA
ENDBRANCH  38  41
ENDBRANCH  34  35
ENDBRANCH  33  34
ENDBRANCH  32  33
ENDBRANCH   9  32
TORSDOF 10
ENDMDL