MODEL 4
REMARK VINA RESULT: -6.254702160      2.061      3.590
REMARK  8 active torsions:
REMARK  status: ('A' for Active; 'I' for Inactive)
REMARK    1  A    between atoms: C2_2  and  C4_4
REMARK    2  A    between atoms: C9_9  and  C10_10
REMARK    3  A    between atoms: C16_18  and  C17_19
REMARK    4  A    between atoms: C17_19  and  N2_20
REMARK    5  A    between atoms: N2_20  and  C19_22
REMARK    6  A    between atoms: N2_20  and  C21_25
REMARK    7  A    between atoms: C19_22  and  C20_23
REMARK    8  A    between atoms: C27_31  and  O1_32
ROOT
HETATM    1  C10 UNL     1      88.270 100.124 -43.196  1.00  0.00     0.047 C
HETATM    2  C11 UNL     1      89.436  99.850 -42.704  1.00  0.00     0.104 A
HETATM    3  N1  UNL     1      90.054 100.795 -41.842  1.00  0.00    -0.335 N
ATOM      4  H1  UNL     1      89.585 101.686 -41.680  1.00  0.00     0.168 HD
HETATM    5  C12 UNL     1      91.367 100.542 -41.161  1.00  0.00     0.148 A
HETATM    6  C13 UNL     1      91.569 101.574 -40.362  1.00  0.00     0.080 A
HETATM    7  C14 UNL     1      91.772 102.513 -39.623  1.00  0.00     0.034 A
HETATM    8  C15 UNL     1      92.561 103.378 -38.971  1.00  0.00     0.020 A
HETATM    9  C16 UNL     1      93.956 103.178 -39.201  1.00  0.00     0.039 A
HETATM   10  C27 UNL     1      94.093 102.118 -40.046  1.00  0.00     0.152 A
HETATM   11  N3  UNL     1      93.213 101.370 -40.602  1.00  0.00    -0.333 N
ATOM     12  H3  UNL     1      93.527 100.619 -41.216  1.00  0.00     0.168 HD
HETATM   13  N4  UNL     1      91.915  99.365 -41.423  1.00  0.00    -0.281 N
ATOM     14  H4  UNL     1      92.805  99.159 -40.969  1.00  0.00     0.188 HD
HETATM   15  N5  UNL     1      91.385  98.367 -42.273  1.00  0.00    -0.263 N
ATOM     16  H5  UNL     1      91.880  97.488 -42.420  1.00  0.00     0.190 HD
HETATM   17  C28 UNL     1      90.156  98.619 -42.908  1.00  0.00     0.286 A
HETATM   18  O2  UNL     1      89.673  97.742 -43.670  1.00  0.00    -0.264 OA
ENDROOT
BRANCH  10  19
HETATM   19  O1  UNL     1      95.328 101.786 -40.356  1.00  0.00    -0.345 OA
ATOM     20  H1  UNL     1      95.684 102.192 -41.137  1.00  0.00     0.219 HD
ENDBRANCH  10  19
BRANCH   9  21
HETATM   21  C17 UNL     1      94.783 103.960 -38.648  1.00  0.00     0.224 C
BRANCH  21  22
HETATM   22  N2  UNL     1      95.593 105.022 -38.957  1.00  0.00    -0.019 N
HETATM   23  C18 UNL     1      95.655 106.114 -37.999  1.00  0.00     0.285 C
BRANCH  22  24
HETATM   24  C19 UNL     1      97.014 104.559 -39.051  1.00  0.00     0.260 C
BRANCH  24  25
HETATM   25  C20 UNL     1      97.715 104.577 -37.756  1.00  0.00     0.114 C
HETATM   26 BR1  UNL     1      99.463 103.739 -38.078  1.00  0.00    -0.095 Br
ENDBRANCH  24  25
ENDBRANCH  22  24
BRANCH  22  27
HETATM   27  C21 UNL     1      95.370 105.535 -40.261  1.00  0.00     0.141 A
HETATM   28  C22 UNL     1      94.388 106.445 -40.506  1.00  0.00     0.038 A
HETATM   29  C23 UNL     1      94.188 106.930 -41.788  1.00  0.00     0.002 A
HETATM   30  C24 UNL     1      94.990 106.486 -42.833  1.00  0.00     0.000 A
HETATM   31  C25 UNL     1      96.004 105.556 -42.608  1.00  0.00     0.002 A
HETATM   32  C26 UNL     1      96.159 105.113 -41.336  1.00  0.00     0.038 A
ENDBRANCH  22  27
ENDBRANCH  21  22
ENDBRANCH   9  21
BRANCH   1  33
HETATM   33  C9  UNL     1      87.415  99.414 -44.083  1.00  0.00    -0.027 A
HETATM   34  C4  UNL     1      87.560  99.381 -45.444  1.00  0.00    -0.044 A
HETATM   35  C5  UNL     1      86.769  98.487 -46.166  1.00  0.00     0.008 A
HETATM   36  C6  UNL     1      85.856  97.650 -45.606  1.00  0.00     0.001 A
HETATM   37  C7  UNL     1      85.699  97.683 -44.224  1.00  0.00     0.001 A
HETATM   38  C8  UNL     1      86.460  98.535 -43.493  1.00  0.00     0.012 A
BRANCH  34  39
HETATM   39  C2  UNL     1      88.503 100.232 -46.201  1.00  0.00     0.011 C
HETATM   40  C1  UNL     1      89.602  99.350 -46.836  1.00  0.00     0.015 C
HETATM   41  C3  UNL     1      87.890 100.960 -47.375  1.00  0.00     0.015 C
ENDBRANCH  34  39
ENDBRANCH   1  33
TORSDOF 8
ENDMDL