MODEL 1
REMARK VINA RESULT: -6.215671630      0.000      0.000
REMARK  10 active torsions:
REMARK  status: ('A' for Active; 'I' for Inactive)
REMARK    1  A    between atoms: C6_9  and  C7_10
REMARK       I    between atoms: C7_10  and  N2_12
REMARK    2  A    between atoms: C10_15  and  C11_16
REMARK    3  A    between atoms: C11_16  and  N3_17
REMARK       I    between atoms: N3_17  and  C12_19
REMARK    4  A    between atoms: C12_19  and  C13_21
REMARK    5  A    between atoms: C13_21  and  C14_22
REMARK    6  A    between atoms: C18_26  and  N4_27
REMARK    7  A    between atoms: N4_27  and  C19_29
REMARK    8  A    between atoms: C19_29  and  O3_30
REMARK    9  A    between atoms: C19_29  and  C20_32
REMARK   10  A    between atoms: C20_32  and  N5_33
ROOT
HETATM    1  C1  UNL     1      88.674  98.490 -49.370  1.00  0.00     0.069 C
HETATM    2  C2  UNL     1      88.102  98.364 -48.009  1.00  0.00     0.024 A
HETATM    3  N1  UNL     1      87.621  97.201 -47.497  1.00  0.00    -0.358 N
ATOM      4  H1  UNL     1      87.592  96.293 -47.962  1.00  0.00     0.166 HD
HETATM    5  C3  UNL     1      87.188  97.492 -46.240  1.00  0.00     0.040 A
HETATM    6  C4  UNL     1      87.406  98.820 -45.966  1.00  0.00     0.003 A
HETATM    7  C5  UNL     1      87.969  99.370 -47.072  1.00  0.00     0.042 A
HETATM    8 BR1  UNL     1      88.443 101.163 -47.398  1.00  0.00    -0.048 Br
HETATM    9  C6  UNL     1      87.147  99.269 -44.594  1.00  0.00     0.141 C
HETATM   10  C18 UNL     1      85.926  98.584 -43.982  1.00  0.00     0.124 C
HETATM   11  C24 UNL     1      85.783  97.173 -44.308  1.00  0.00     0.001 C
HETATM   12  C25 UNL     1      86.363  96.650 -45.370  1.00  0.00     0.028 C
ENDROOT
BRANCH   9  13
HETATM   13  C7  UNL     1      88.258  98.973 -43.655  1.00  0.00     0.231 C
HETATM   14  O1  UNL     1      88.058  99.207 -42.404  1.00  0.00    -0.272 OA
HETATM   15  N2  UNL     1      89.488  98.461 -44.103  1.00  0.00    -0.337 N
HETATM   16  C8  UNL     1      90.590  97.944 -44.877  1.00  0.00     0.108 A
HETATM   17  C10 UNL     1      90.863  98.132 -43.480  1.00  0.00     0.128 A
HETATM   18  C9  UNL     1      90.578  96.476 -45.323  1.00  0.00     0.034 C
BRANCH  17  19
HETATM   19  C11 UNL     1      90.683  97.021 -42.455  1.00  0.00     0.150 C
BRANCH  19  20
HETATM   20  N3  UNL     1      91.885  96.330 -42.132  1.00  0.00    -0.359 N
HETATM   21  C12 UNL     1      91.852  95.110 -41.379  1.00  0.00     0.218 C
HETATM   22  O2  UNL     1      90.782  94.614 -40.985  1.00  0.00    -0.274 OA
ATOM     23  H3  UNL     1      92.781  96.708 -42.440  1.00  0.00     0.162 HD
BRANCH  21  24
HETATM   24  C13 UNL     1      93.133  94.431 -41.069  1.00  0.00     0.111 C
BRANCH  24  25
HETATM   25  C14 UNL     1      93.217  93.164 -41.862  1.00  0.00    -0.043 C
HETATM   26  C15 UNL     1      94.628  92.598 -41.676  1.00  0.00     0.015 C
HETATM   27  C16 UNL     1      92.239  92.159 -41.328  1.00  0.00     0.015 C
HETATM   28  C17 UNL     1      93.007  93.458 -43.324  1.00  0.00     0.015 C
ENDBRANCH  24  25
ENDBRANCH  21  24
ENDBRANCH  19  20
ENDBRANCH  17  19
ENDBRANCH   9  13
BRANCH  10  29
HETATM   29  N4  UNL     1      84.726  99.352 -44.372  1.00  0.00    -0.364 N
ATOM     30  H4  UNL     1      84.553  99.583 -45.351  1.00  0.00     0.162 HD
BRANCH  29  31
HETATM   31  C19 UNL     1      83.832  99.757 -43.376  1.00  0.00     0.138 C
BRANCH  31  32
HETATM   32  O3  UNL     1      83.573  98.920 -42.401  1.00  0.00    -0.348 OA
ATOM     33  H3  UNL     1      82.904  98.260 -42.543  1.00  0.00     0.219 HD
ENDBRANCH  31  32
BRANCH  31  34
HETATM   34  C20 UNL     1      83.131 101.039 -43.290  1.00  0.00     0.319 C
BRANCH  34  35
HETATM   35  N5  UNL     1      83.830 102.073 -42.616  1.00  0.00    -0.071 N
HETATM   36  C21 UNL     1      83.522 103.346 -43.328  1.00  0.00     0.272 C
HETATM   37  C22 UNL     1      85.250 101.936 -42.636  1.00  0.00     0.272 C
HETATM   38  C23 UNL     1      83.297 102.219 -41.267  1.00  0.00     0.272 C
ENDBRANCH  34  35
ENDBRANCH  31  34
ENDBRANCH  29  31
ENDBRANCH  10  29
TORSDOF 10
ENDMDL