MODEL 3
REMARK VINA RESULT: -6.934939164      2.457      3.442
REMARK  8 active torsions:
REMARK  status: ('A' for Active; 'I' for Inactive)
REMARK    1  A    between atoms: N2_4  and  N3_6
REMARK    2  A    between atoms: N3_6  and  C1_8
REMARK       I    between atoms: N4_11  and  C4_12
REMARK    3  A    between atoms: C4_12  and  C5_14
REMARK    4  A    between atoms: C5_14  and  C6_15
REMARK    5  A    between atoms: C7_16  and  C8_17
REMARK    6  A    between atoms: C11_20  and  C12_21
REMARK    7  A    between atoms: C12_21  and  C13_22
REMARK       I    between atoms: N5_29  and  C19_30
REMARK    8  A    between atoms: C19_30  and  C20_32
ROOT
HETATM    1  C8  UNL     1      91.818  98.733 -45.108  1.00  0.00     0.115 C
HETATM    2  C9  UNL     1      92.792  99.953 -44.960  1.00  0.00     0.035 C
HETATM    3  C10 UNL     1      91.854 100.775 -44.037  1.00  0.00     0.055 C
HETATM    4  C11 UNL     1      91.502  99.696 -43.018  1.00  0.00    -0.003 C
HETATM    5  N5  UNL     1      91.543  98.471 -43.730  1.00  0.00    -0.316 N
HETATM    6  C19 UNL     1      91.462  97.164 -43.154  1.00  0.00     0.228 C
HETATM    7  O2  UNL     1      91.130  97.112 -41.912  1.00  0.00    -0.273 OA
ENDROOT
BRANCH   1   8
HETATM    8  C7  UNL     1      90.740  99.124 -46.015  1.00  0.00    -0.005 C
HETATM    9  C6  UNL     1      89.535  98.655 -45.981  1.00  0.00    -0.019 C
BRANCH   9  10
HETATM   10  C5  UNL     1      88.334  98.886 -46.760  1.00  0.00     0.130 C
BRANCH  10  11
HETATM   11  C4  UNL     1      87.312  97.856 -46.850  1.00  0.00     0.223 C
HETATM   12  N4  UNL     1      85.936  98.245 -46.804  1.00  0.00    -0.350 N
HETATM   13  C3  UNL     1      85.458  99.587 -46.676  1.00  0.00     0.128 C
HETATM   14  C26 UNL     1      84.802  97.361 -46.877  1.00  0.00     0.152 C
HETATM   15  C2  UNL     1      84.195  99.488 -45.877  1.00  0.00     0.048 C
HETATM   16  C1  UNL     1      83.677  98.123 -46.196  1.00  0.00     0.120 C
HETATM   17  O1  UNL     1      87.559  96.651 -46.965  1.00  0.00    -0.273 OA
BRANCH  16  18
HETATM   18  N3  UNL     1      83.259  97.424 -44.996  1.00  0.00    -0.316 N
ATOM     19  H3  UNL     1      82.271  97.211 -44.864  1.00  0.00     0.182 HD
BRANCH  18  20
HETATM   20  N2  UNL     1      84.173  97.039 -44.018  1.00  0.00    -0.253 N
HETATM   21  N1  UNL     1      84.185  97.612 -42.872  1.00  0.00    -0.331 N
ATOM     22  H12 UNL     1      83.512  98.355 -42.690  1.00  0.00     0.178 HD
ATOM     23  H11 UNL     1      84.855  97.329 -42.156  1.00  0.00     0.178 HD
ATOM     24  H2  UNL     1      84.840  96.293 -44.216  1.00  0.00     0.207 HD
ENDBRANCH  18  20
ENDBRANCH  16  18
ENDBRANCH  10  11
ENDBRANCH   9  10
ENDBRANCH   1   8
BRANCH   4  25
HETATM   25  C12 UNL     1      90.486 100.037 -42.041  1.00  0.00     0.091 C
BRANCH  25  26
HETATM   26  C13 UNL     1      89.111 100.299 -42.448  1.00  0.00    -0.052 A
HETATM   27  C14 UNL     1      88.309  99.258 -42.850  1.00  0.00     0.007 A
HETATM   28  C15 UNL     1      87.005  99.486 -43.279  1.00  0.00     0.002 A
HETATM   29  C16 UNL     1      86.554 100.784 -43.286  1.00  0.00     0.019 A
HETATM   30  C17 UNL     1      87.311 101.864 -42.895  1.00  0.00     0.011 A
HETATM   31 BR1  UNL     1      86.629 103.650 -42.926  1.00  0.00    -0.051 Br
HETATM   32  C18 UNL     1      88.605 101.573 -42.477  1.00  0.00     0.026 A
ENDBRANCH  25  26
ENDBRANCH   4  25
BRANCH   6  33
HETATM   33  C20 UNL     1      91.727  95.898 -43.842  1.00  0.00     0.078 C
HETATM   34  C21 UNL     1      90.924  95.593 -45.054  1.00  0.00     0.014 C
HETATM   35  C22 UNL     1      90.809  94.104 -45.313  1.00  0.00     0.001 C
HETATM   36  C23 UNL     1      92.039  93.366 -44.833  1.00  0.00     0.000 C
HETATM   37  C24 UNL     1      92.261  93.526 -43.345  1.00  0.00     0.001 C
HETATM   38  C25 UNL     1      91.537  94.752 -42.832  1.00  0.00     0.014 C
ENDBRANCH   6  33
TORSDOF 8
ENDMDL