MODEL 2
REMARK VINA RESULT: -6.803694504      2.748      3.634
REMARK  11 active torsions:
REMARK  status: ('A' for Active; 'I' for Inactive)
REMARK    1  A    between atoms: C2_2  and  C12_20
REMARK    2  A    between atoms: C3_3  and  C4_4
REMARK    3  A    between atoms: C4_4  and  C5_5
REMARK    4  A    between atoms: C5_5  and  C6_6
REMARK    5  A    between atoms: C6_6  and  C7_7
REMARK    6  A    between atoms: C7_7  and  C8_8
REMARK    7  A    between atoms: C8_8  and  C9_9
REMARK       I    between atoms: C9_9  and  N1_11
REMARK    8  A    between atoms: C15_23  and  C16_24
REMARK    9  A    between atoms: C16_24  and  C17_25
REMARK   10  A    between atoms: C17_25  and  C18_26
REMARK   11  A    between atoms: C18_26  and  C19_27
ROOT
HETATM    1  C1  UNL     1      91.684  96.155 -41.053  1.00  0.00     0.050 C
HETATM    2  C2  UNL     1      91.397  96.208 -42.492  1.00  0.00    -0.035 C
HETATM    3  C3  UNL     1      90.943  97.360 -43.190  1.00  0.00     0.009 C
ENDROOT
BRANCH   2   4
HETATM    4  C12 UNL     1      91.585  95.067 -43.207  1.00  0.00     0.038 A
HETATM    5  C13 UNL     1      92.065  93.878 -42.726  1.00  0.00     0.032 A
HETATM    6  C14 UNL     1      92.091  92.999 -43.795  1.00  0.00     0.031 A
HETATM    7  C15 UNL     1      91.637  93.629 -44.915  1.00  0.00     0.028 A
HETATM    8  N4  UNL     1      91.335  94.900 -44.511  1.00  0.00    -0.356 N
ATOM      9  H4  UNL     1      90.967  95.627 -45.124  1.00  0.00     0.166 HD
BRANCH   7  10
HETATM   10  C16 UNL     1      91.509  93.125 -46.145  1.00  0.00     0.003 C
BRANCH  10  11
HETATM   11  C17 UNL     1      91.599  91.686 -46.386  1.00  0.00     0.034 C
BRANCH  11  12
HETATM   12  C18 UNL     1      92.241  91.343 -47.713  1.00  0.00     0.042 C
BRANCH  12  13
HETATM   13  C19 UNL     1      91.247  90.888 -48.711  1.00  0.00    -0.058 A
HETATM   14  C20 UNL     1      90.855  91.734 -49.727  1.00  0.00     0.008 A
HETATM   15  C21 UNL     1      89.933  91.372 -50.688  1.00  0.00     0.019 A
HETATM   16  C22 UNL     1      89.364  90.120 -50.659  1.00  0.00     0.011 A
HETATM   17 BR1  UNL     1      88.096  89.662 -52.005  1.00  0.00    -0.051 Br
HETATM   18  C23 UNL     1      89.735  89.258 -49.658  1.00  0.00     0.019 A
HETATM   19  C24 UNL     1      90.664  89.633 -48.695  1.00  0.00     0.008 A
ENDBRANCH  12  13
ENDBRANCH  11  12
ENDBRANCH  10  11
ENDBRANCH   7  10
ENDBRANCH   2   4
BRANCH   3  20
HETATM   20  C4  UNL     1      90.682  98.548 -42.765  1.00  0.00     0.000 C
BRANCH  20  21
HETATM   21  C5  UNL     1      91.477  99.674 -42.482  1.00  0.00    -0.004 C
BRANCH  21  22
HETATM   22  C6  UNL     1      92.062 100.418 -43.419  1.00  0.00    -0.024 C
BRANCH  22  23
HETATM   23  C7  UNL     1      91.368 101.359 -44.264  1.00  0.00     0.063 C
BRANCH  23  24
HETATM   24  C8  UNL     1      91.143 100.840 -45.688  1.00  0.00     0.160 A
HETATM   25  C11 UNL     1      90.133 101.729 -46.480  1.00  0.00     0.177 A
HETATM   26  S1  UNL     1      89.707 100.058 -46.133  1.00  0.00     0.165 S
HETATM   27  O2  UNL     1      88.526  99.880 -45.239  1.00  0.00    -0.226 OA
HETATM   28  O3  UNL     1      89.771  99.043 -47.256  1.00  0.00    -0.226 OA
BRANCH  24  29
HETATM   29  C9  UNL     1      92.378 100.524 -46.436  1.00  0.00     0.248 C
HETATM   30  O1  UNL     1      92.661  99.269 -46.552  1.00  0.00    -0.271 OA
HETATM   31  N1  UNL     1      93.257 101.462 -47.025  1.00  0.00    -0.302 N
HETATM   32  C10 UNL     1      93.720 101.228 -48.196  1.00  0.00     0.203 C
ATOM     33  H1  UNL     1      93.518 102.312 -46.524  1.00  0.00     0.171 HD
HETATM   34  N2  UNL     1      94.613 102.137 -48.848  1.00  0.00    -0.066 NA
HETATM   35  N3  UNL     1      93.349 100.050 -48.871  1.00  0.00    -0.066 NA
ENDBRANCH  24  29
ENDBRANCH  23  24
ENDBRANCH  22  23
ENDBRANCH  21  22
ENDBRANCH  20  21
ENDBRANCH   3  20
TORSDOF 11
ENDMDL