MODEL 2
REMARK VINA RESULT: -6.065162922      2.519      5.431
REMARK  9 active torsions:
REMARK  status: ('A' for Active; 'I' for Inactive)
REMARK    1  A    between atoms: C2_2  and  C5_5
REMARK    2  A    between atoms: C5_5  and  N1_6
REMARK       I    between atoms: N2_9  and  C8_10
REMARK    3  A    between atoms: C8_10  and  C9_12
REMARK    4  A    between atoms: C10_13  and  C11_14
REMARK    5  A    between atoms: N4_23  and  C18_25
REMARK    6  A    between atoms: C18_25  and  C19_26
REMARK    7  A    between atoms: C19_26  and  C20_27
REMARK    8  A    between atoms: C20_27  and  C21_28
REMARK    9  A    between atoms: C21_28  and  C22_29
REMARK       I    between atoms: C22_29  and  N5_31
REMARK       I    between atoms: N5_31  and  C23_33
ROOT
HETATM    1  N1  UNL     1      90.934 101.483 -42.229  1.00  0.00     0.120 N
HETATM    2  C6  UNL     1      90.147 102.002 -41.139  1.00  0.00     0.318 C
HETATM    3  C7  UNL     1      90.937 100.059 -41.999  1.00  0.00     0.333 C
HETATM    4  N2  UNL     1      91.121  99.213 -43.114  1.00  0.00    -0.300 N
HETATM    5  C8  UNL     1      91.270  97.761 -42.926  1.00  0.00     0.248 C
HETATM    6  O1  UNL     1      91.420  97.101 -43.961  1.00  0.00    -0.268 OA
HETATM    7  C15 UNL     1      91.172  99.719 -44.442  1.00  0.00     0.163 C
HETATM    8  C16 UNL     1      90.828 101.156 -44.569  1.00  0.00     0.292 C
HETATM    9  N4  UNL     1      90.187 101.729 -43.417  1.00  0.00     0.090 N
HETATM   10  C17 UNL     1      90.068 103.153 -43.666  1.00  0.00     0.310 C
ENDROOT
BRANCH   9  11
HETATM   11  C18 UNL     1      88.848 101.234 -43.343  1.00  0.00     0.272 C
BRANCH  11  12
HETATM   12  C19 UNL     1      87.933 101.498 -44.467  1.00  0.00     0.031 C
BRANCH  12  13
HETATM   13  C20 UNL     1      86.945 100.363 -44.621  1.00  0.00     0.011 C
BRANCH  13  14
HETATM   14  C21 UNL     1      87.482  99.004 -44.340  1.00  0.00     0.103 C
BRANCH  14  15
HETATM   15  C22 UNL     1      87.990  98.333 -45.565  1.00  0.00     0.225 C
HETATM   16  O2  UNL     1      87.642  98.811 -46.667  1.00  0.00    -0.273 OA
HETATM   17  N5  UNL     1      88.833  97.203 -45.540  1.00  0.00    -0.282 N
HETATM   18  C23 UNL     1      89.293  96.597 -46.730  1.00  0.00     0.335 C
ATOM     19  H5  UNL     1      89.118  96.813 -44.641  1.00  0.00     0.173 HD
HETATM   20  N6  UNL     1      90.135  95.466 -46.653  1.00  0.00    -0.040 NA
HETATM   21  O3  UNL     1      88.987  97.019 -47.878  1.00  0.00    -0.251 OA
ENDBRANCH  14  15
ENDBRANCH  13  14
ENDBRANCH  12  13
ENDBRANCH  11  12
ENDBRANCH   9  11
BRANCH   1  22
HETATM   22  C5  UNL     1      92.227 101.948 -42.399  1.00  0.00     0.287 C
BRANCH  22  23
HETATM   23  C2  UNL     1      92.999 102.731 -41.431  1.00  0.00    -0.025 C
HETATM   24  C1  UNL     1      92.592 104.136 -41.161  1.00  0.00     0.016 C
HETATM   25  C3  UNL     1      93.417 101.988 -40.177  1.00  0.00     0.016 C
HETATM   26  C4  UNL     1      94.386 102.879 -42.139  1.00  0.00     0.016 C
ENDBRANCH  22  23
ENDBRANCH   1  22
BRANCH   5  27
HETATM   27  C9  UNL     1      91.237  97.225 -41.624  1.00  0.00     0.077 C
HETATM   28  C10 UNL     1      91.494  96.114 -41.039  1.00  0.00     0.035 C
BRANCH  28  29
HETATM   29  C11 UNL     1      91.962  94.822 -41.436  1.00  0.00     0.033 A
HETATM   30  C12 UNL     1      93.239  94.313 -41.126  1.00  0.00     0.050 A
HETATM   31  C13 UNL     1      93.391  93.049 -41.645  1.00  0.00     0.028 A
HETATM   32 BR1  UNL     1      94.953  91.985 -41.470  1.00  0.00    -0.050 Br
HETATM   33  C14 UNL     1      92.218  92.767 -42.276  1.00  0.00     0.107 A
HETATM   34  N3  UNL     1      91.396  93.841 -42.130  1.00  0.00    -0.365 N
ATOM     35  H3  UNL     1      90.451  93.889 -42.511  1.00  0.00     0.165 HD
ENDBRANCH  28  29
ENDBRANCH   5  27
TORSDOF 9
ENDMDL