MODEL 5
REMARK VINA RESULT: -5.995199074      3.643      6.215
REMARK  10 active torsions:
REMARK  status: ('A' for Active; 'I' for Inactive)
REMARK    1  A    between atoms: C2_2  and  C3_3
REMARK    2  A    between atoms: C3_3  and  N1_4
REMARK    3  A    between atoms: N2_7  and  C6_8
REMARK    4  A    between atoms: C6_8  and  C7_9
REMARK    5  A    between atoms: N3_11  and  C9_12
REMARK    6  A    between atoms: C9_12  and  O1_16
REMARK    7  A    between atoms: N5_20  and  C12_21
REMARK    8  A    between atoms: C12_21  and  C13_22
REMARK    9  A    between atoms: C12_21  and  C21_31
REMARK   10  A    between atoms: C14_23  and  C15_24
ROOT
HETATM    1  C7  UNL     1      87.883 100.623 -43.333  1.00  0.00     0.124 C
HETATM    2  C8  UNL     1      86.514 101.136 -43.052  1.00  0.00     0.153 C
HETATM    3  N3  UNL     1      85.416 100.390 -43.585  1.00  0.00    -0.344 N
HETATM    4  C10 UNL     1      85.680  99.434 -44.595  1.00  0.00     0.146 C
HETATM    5  C11 UNL     1      86.873  98.624 -44.273  1.00  0.00     0.138 C
HETATM    6  N5  UNL     1      88.002  99.287 -43.748  1.00  0.00    -0.388 N
ENDROOT
BRANCH   6   7
HETATM    7  C12 UNL     1      89.210  99.030 -44.425  1.00  0.00     0.193 C
BRANCH   7   8
HETATM    8  C13 UNL     1      89.913  97.792 -43.992  1.00  0.00     0.008 C
HETATM    9  C14 UNL     1      90.627  97.669 -42.923  1.00  0.00     0.010 C
BRANCH   9  10
HETATM   10  C15 UNL     1      91.281  96.429 -42.570  1.00  0.00    -0.036 A
HETATM   11  C16 UNL     1      91.804  96.178 -41.328  1.00  0.00     0.012 A
HETATM   12  C17 UNL     1      92.438  94.971 -40.996  1.00  0.00     0.020 A
HETATM   13  C18 UNL     1      92.555  93.979 -41.938  1.00  0.00     0.011 A
HETATM   14 BR1  UNL     1      93.416  92.342 -41.487  1.00  0.00    -0.051 Br
HETATM   15  C19 UNL     1      92.037  94.208 -43.192  1.00  0.00     0.020 A
HETATM   16  C20 UNL     1      91.422  95.390 -43.503  1.00  0.00     0.012 A
ENDBRANCH   9  10
ENDBRANCH   7   8
BRANCH   7  17
HETATM   17  C21 UNL     1      89.143  98.963 -45.908  1.00  0.00     0.257 C
HETATM   18  N6  UNL     1      89.517  97.705 -46.521  1.00  0.00    -0.060 NA
HETATM   19  O2  UNL     1      88.806  99.846 -46.691  1.00  0.00    -0.274 OA
ENDBRANCH   7  17
ENDBRANCH   6   7
BRANCH   1  20
HETATM   20  C6  UNL     1      88.737 100.873 -42.118  1.00  0.00     0.264 C
BRANCH  20  21
HETATM   21  N2  UNL     1      89.792 101.792 -42.188  1.00  0.00    -0.060 N
HETATM   22  C5  UNL     1      90.098 102.354 -43.482  1.00  0.00     0.265 C
HETATM   23  C4  UNL     1      91.117 103.451 -43.295  1.00  0.00     0.265 C
HETATM   24  N1  UNL     1      92.015 103.151 -42.145  1.00  0.00    -0.062 N
HETATM   25  C23 UNL     1      91.188 103.400 -40.978  1.00  0.00     0.265 C
HETATM   26  C25 UNL     1      92.256 101.755 -42.260  1.00  0.00     0.265 C
HETATM   27  C22 UNL     1      89.782 102.897 -41.257  1.00  0.00     0.265 C
HETATM   28  C24 UNL     1      91.012 101.028 -41.818  1.00  0.00     0.265 C
BRANCH  24  29
HETATM   29  C3  UNL     1      93.112 104.032 -42.291  1.00  0.00     0.237 C
BRANCH  29  30
HETATM   30  C2  UNL     1      94.482 103.501 -42.117  1.00  0.00     0.023 C
HETATM   31  C1  UNL     1      95.485 104.215 -42.959  1.00  0.00     0.007 C
ENDBRANCH  29  30
ENDBRANCH  24  29
ENDBRANCH  20  21
ENDBRANCH   1  20
BRANCH   3  32
HETATM   32  C9  UNL     1      84.116 100.621 -43.099  1.00  0.00     0.212 C
HETATM   33  N4  UNL     1      83.528 101.742 -43.322  1.00  0.00    -0.365 N
ATOM     34  H42 UNL     1      84.029 102.452 -43.857  1.00  0.00     0.159 HD
ATOM     35  H41 UNL     1      82.586 101.910 -42.970  1.00  0.00     0.159 HD
BRANCH  32  36
HETATM   36  O1  UNL     1      83.437  99.660 -42.374  1.00  0.00    -0.333 OA
ATOM     37  H1  UNL     1      83.405  99.687 -41.425  1.00  0.00     0.220 HD
ENDBRANCH  32  36
ENDBRANCH   3  32
TORSDOF 10
ENDMDL