MODEL 5
REMARK VINA RESULT: -5.146209456      3.448      6.648
REMARK  9 active torsions:
REMARK  status: ('A' for Active; 'I' for Inactive)
REMARK       I    between atoms: N1_5  and  C5_7
REMARK    1  A    between atoms: C5_7  and  C6_9
REMARK    2  A    between atoms: C6_9  and  C7_10
REMARK    3  A    between atoms: C7_10  and  N2_11
REMARK    4  A    between atoms: N2_11  and  C10_14
REMARK    5  A    between atoms: C10_14  and  C11_15
REMARK    6  A    between atoms: C12_17  and  C13_18
REMARK       I    between atoms: C13_18  and  N3_20
REMARK    7  A    between atoms: N3_20  and  C14_22
REMARK    8  A    between atoms: C17_29  and  C18_30
REMARK    9  A    between atoms: C18_30  and  N6_31
ROOT
HETATM    1  C13 UNL     1      88.051 100.310 -44.736  1.00  0.00     0.234 C
HETATM    2  O2  UNL     1      87.447 101.321 -45.232  1.00  0.00    -0.272 OA
HETATM    3  N3  UNL     1      87.323  99.533 -43.830  1.00  0.00    -0.311 N
ATOM      4  H3  UNL     1      87.495  99.687 -42.836  1.00  0.00     0.170 HD
ENDROOT
BRANCH   1   5
HETATM    5  C12 UNL     1      89.452 100.004 -45.121  1.00  0.00     0.138 A
HETATM    6  C2  UNL     1      90.396  99.348 -44.227  1.00  0.00     0.009 A
HETATM    7  C1  UNL     1      91.850  99.778 -44.361  1.00  0.00     0.022 C
HETATM    8  C3  UNL     1      89.993  98.881 -42.849  1.00  0.00     0.022 C
HETATM    9  C4  UNL     1      89.795  98.563 -45.376  1.00  0.00     0.013 A
HETATM   10  N1  UNL     1      89.616  97.527 -46.095  1.00  0.00    -0.333 N
HETATM   11  C5  UNL     1      90.212  96.290 -45.898  1.00  0.00     0.223 C
ATOM     12  H1  UNL     1      88.978  97.614 -46.887  1.00  0.00     0.168 HD
HETATM   13  O1  UNL     1      90.030  95.436 -46.848  1.00  0.00    -0.273 OA
BRANCH  11  14
HETATM   14  C6  UNL     1      91.006  95.867 -44.740  1.00  0.00     0.131 C
BRANCH  14  15
HETATM   15  C7  UNL     1      92.124  94.931 -45.007  1.00  0.00     0.245 C
BRANCH  15  16
HETATM   16  N2  UNL     1      92.154  93.689 -44.276  1.00  0.00    -0.073 N
HETATM   17  C8  UNL     1      93.461  93.335 -43.744  1.00  0.00     0.272 C
HETATM   18  C9  UNL     1      91.727  92.624 -45.129  1.00  0.00     0.272 C
BRANCH  16  19
HETATM   19  C10 UNL     1      91.262  93.900 -43.135  1.00  0.00     0.247 C
BRANCH  19  20
HETATM   20  C11 UNL     1      91.921  93.942 -41.808  1.00  0.00     0.113 C
HETATM   21 BR1  UNL     1      91.669  95.759 -41.120  1.00  0.00    -0.095 Br
ENDBRANCH  19  20
ENDBRANCH  16  19
ENDBRANCH  15  16
ENDBRANCH  14  15
ENDBRANCH  11  14
ENDBRANCH   1   5
BRANCH   3  22
HETATM   22  C14 UNL     1      86.452  98.639 -44.150  1.00  0.00     0.133 A
HETATM   23  N4  UNL     1      86.663  97.423 -44.692  1.00  0.00    -0.285 N
HETATM   24  N5  UNL     1      85.515  96.798 -44.866  1.00  0.00    -0.300 N
ATOM     25  H4  UNL     1      87.578  97.043 -44.933  1.00  0.00     0.188 HD
HETATM   26  C15 UNL     1      84.490  97.586 -44.440  1.00  0.00     0.062 A
ATOM     27  H5  UNL     1      85.411  95.863 -45.262  1.00  0.00     0.186 HD
HETATM   28  C16 UNL     1      85.080  98.745 -43.990  1.00  0.00     0.044 A
HETATM   29  C24 UNL     1      83.025  97.703 -44.260  1.00  0.00     0.228 A
HETATM   30  C17 UNL     1      83.974  99.593 -43.531  1.00  0.00     0.186 A
HETATM   31  O3  UNL     1      82.808  98.942 -43.763  1.00  0.00    -0.373 OA
BRANCH  30  32
HETATM   32  C18 UNL     1      84.013 101.014 -43.963  1.00  0.00     0.274 C
BRANCH  32  33
HETATM   33  N6  UNL     1      84.101 102.015 -42.962  1.00  0.00    -0.068 N
HETATM   34  C19 UNL     1      83.661 101.656 -41.650  1.00  0.00     0.272 C
HETATM   35  C20 UNL     1      83.191 103.092 -43.400  1.00  0.00     0.237 C
HETATM   36  C21 UNL     1      83.762 104.362 -42.881  1.00  0.00     0.029 C
HETATM   37  C22 UNL     1      85.176 104.099 -42.502  1.00  0.00     0.029 C
HETATM   38  C23 UNL     1      85.394 102.649 -42.833  1.00  0.00     0.237 C
ENDBRANCH  32  33
ENDBRANCH  30  32
ENDBRANCH   3  22
TORSDOF 9
ENDMDL