MODEL 4
REMARK VINA RESULT: -5.668998691      3.839      7.128
REMARK  9 active torsions:
REMARK  status: ('A' for Active; 'I' for Inactive)
REMARK    1  A    between atoms: C2_2  and  C3_3
REMARK    2  A    between atoms: C3_3  and  C4_4
REMARK       I    between atoms: N2_11  and  C8_13
REMARK    3  A    between atoms: C8_13  and  C9_15
REMARK    4  A    between atoms: C10_16  and  C11_17
REMARK    5  A    between atoms: C11_17  and  O2_18
REMARK    6  A    between atoms: C11_17  and  N3_20
REMARK    7  A    between atoms: N3_20  and  C12_21
REMARK       I    between atoms: N3_20  and  C19_29
REMARK    8  A    between atoms: C12_21  and  C13_22
REMARK    9  A    between atoms: C13_22  and  N4_23
ROOT
HETATM    1  C9  UNL     1      89.482  98.867 -43.434  1.00  0.00     0.120 C
HETATM    2  C10 UNL     1      90.008 100.000 -42.630  1.00  0.00     0.003 C
HETATM    3  C20 UNL     1      88.981 100.678 -42.159  1.00  0.00    -0.009 C
HETATM    4  C21 UNL     1      87.674 100.073 -42.600  1.00  0.00     0.023 A
HETATM    5  C22 UNL     1      88.013  99.074 -43.643  1.00  0.00     0.020 A
HETATM    6  C23 UNL     1      87.394 100.318 -44.058  1.00  0.00    -0.035 A
HETATM    7  C24 UNL     1      85.895 100.222 -44.383  1.00  0.00     0.016 C
HETATM    8  C25 UNL     1      88.062 101.433 -44.781  1.00  0.00     0.016 C
ENDROOT
BRANCH   2   9
HETATM    9  C11 UNL     1      91.390 100.319 -42.433  1.00  0.00     0.151 C
BRANCH   9  10
HETATM   10  O2  UNL     1      92.051  99.619 -41.557  1.00  0.00    -0.345 OA
ATOM     11  H2  UNL     1      92.671  98.977 -41.884  1.00  0.00     0.219 HD
ENDBRANCH   9  10
BRANCH   9  12
HETATM   12  N3  UNL     1      92.184 101.304 -43.052  1.00  0.00    -0.300 N
HETATM   13  C19 UNL     1      92.404 101.488 -44.428  1.00  0.00     0.190 C
HETATM   14  N5  UNL     1      93.069 100.564 -45.085  1.00  0.00    -0.373 N
HETATM   15  N6  UNL     1      91.936 102.633 -45.150  1.00  0.00    -0.063 NA
ATOM     16  H52 UNL     1      93.401  99.749 -44.571  1.00  0.00     0.158 HD
ATOM     17  H51 UNL     1      93.228 100.698 -46.084  1.00  0.00     0.158 HD
BRANCH  12  18
HETATM   18  C12 UNL     1      92.996 102.208 -42.174  1.00  0.00     0.161 C
BRANCH  18  19
HETATM   19  C13 UNL     1      92.026 103.111 -41.478  1.00  0.00     0.257 C
BRANCH  19  20
HETATM   20  N4  UNL     1      92.089 103.066 -40.058  1.00  0.00    -0.069 N
HETATM   21  C14 UNL     1      90.887 102.594 -39.419  1.00  0.00     0.272 C
HETATM   22  C15 UNL     1      92.331 104.415 -39.576  1.00  0.00     0.237 C
HETATM   23  C16 UNL     1      92.755 104.277 -38.136  1.00  0.00     0.029 C
HETATM   24  C17 UNL     1      93.506 102.955 -38.164  1.00  0.00     0.029 C
HETATM   25  C18 UNL     1      93.239 102.357 -39.536  1.00  0.00     0.237 C
ENDBRANCH  19  20
ENDBRANCH  18  19
ENDBRANCH  12  18
ENDBRANCH   9  12
ENDBRANCH   2   9
BRANCH   1  26
HETATM   26  C8  UNL     1      90.192  98.509 -44.649  1.00  0.00     0.230 C
HETATM   27  N2  UNL     1      90.803  97.276 -44.946  1.00  0.00    -0.334 N
HETATM   28  C2  UNL     1      90.172  96.343 -45.572  1.00  0.00    -0.009 C
ATOM     29  H2  UNL     1      91.768  97.117 -44.657  1.00  0.00     0.168 HD
HETATM   30  C1  UNL     1      90.859  95.036 -45.871  1.00  0.00     0.064 C
HETATM   31  O1  UNL     1      90.280  99.400 -45.563  1.00  0.00    -0.272 OA
BRANCH  28  32
HETATM   32  C3  UNL     1      88.771  96.456 -46.041  1.00  0.00     0.109 C
BRANCH  32  33
HETATM   33  C4  UNL     1      88.753  96.766 -47.510  1.00  0.00     0.015 A
HETATM   34  C5  UNL     1      88.521  95.872 -48.537  1.00  0.00     0.045 A
HETATM   35  C6  UNL     1      88.590  96.548 -49.735  1.00  0.00     0.028 A
HETATM   36 BR1  UNL     1      88.353  95.830 -51.478  1.00  0.00    -0.050 Br
HETATM   37  C7  UNL     1      88.870  97.867 -49.392  1.00  0.00     0.107 A
HETATM   38  N1  UNL     1      88.964  97.977 -48.057  1.00  0.00    -0.368 N
ATOM     39  H1  UNL     1      89.162  98.836 -47.543  1.00  0.00     0.165 HD
ENDBRANCH  32  33
ENDBRANCH  28  32
ENDBRANCH   1  26
TORSDOF 9
ENDMDL