MODEL 2
REMARK VINA RESULT: -6.099531915      3.312      5.608
REMARK  12 active torsions:
REMARK  status: ('A' for Active; 'I' for Inactive)
REMARK    1  A    between atoms: C7_8  and  C8_9
REMARK    2  A    between atoms: C8_9  and  C9_10
REMARK    3  A    between atoms: C9_10  and  C10_11
REMARK       I    between atoms: C10_11  and  N1_13
REMARK    4  A    between atoms: N1_13  and  C11_15
REMARK    5  A    between atoms: C11_15  and  C12_16
REMARK    6  A    between atoms: C12_16  and  C13_17
REMARK    7  A    between atoms: C14_18  and  C15_19
REMARK    8  A    between atoms: C16_20  and  C17_21
REMARK    9  A    between atoms: C22_29  and  C23_30
REMARK       I    between atoms: C23_30  and  N3_32
REMARK   10  A    between atoms: N3_32  and  C25_34
REMARK   11  A    between atoms: N4_37  and  C28_38
REMARK   12  A    between atoms: N5_39  and  N6_41
ROOT
HETATM    1  C11 UNL     1      91.113 100.551 -44.244  1.00  0.00     0.203 C
HETATM    2  N2  UNL     1      92.535 100.436 -43.776  1.00  0.00    -0.314 N
ATOM      3  H2  UNL     1      93.199  99.686 -43.965  1.00  0.00     0.166 HD
HETATM    4  C21 UNL     1      92.741 101.610 -43.011  1.00  0.00     0.253 C
HETATM    5  O2  UNL     1      93.878 102.120 -42.845  1.00  0.00    -0.271 OA
HETATM    6  C22 UNL     1      91.416 102.063 -42.495  1.00  0.00     0.273 C
HETATM    7  N4  UNL     1      90.553 101.037 -42.966  1.00  0.00    -0.309 N
ENDROOT
BRANCH   1   8
HETATM    8  N1  UNL     1      90.612  99.266 -44.556  1.00  0.00    -0.316 N
HETATM    9  C10 UNL     1      91.167  98.159 -45.201  1.00  0.00     0.221 C
HETATM   10  O1  UNL     1      92.338  98.154 -45.627  1.00  0.00    -0.273 OA
ATOM     11  H1  UNL     1      89.651  99.118 -44.248  1.00  0.00     0.166 HD
BRANCH   9  12
HETATM   12  C9  UNL     1      90.390  96.895 -45.429  1.00  0.00     0.107 C
BRANCH  12  13
HETATM   13  C8  UNL     1      91.342  95.740 -45.541  1.00  0.00     0.048 C
BRANCH  13  14
HETATM   14  C7  UNL     1      91.550  95.066 -44.246  1.00  0.00    -0.050 A
HETATM   15  C2  UNL     1      91.728  93.714 -44.106  1.00  0.00    -0.056 A
HETATM   16  C1  UNL     1      91.722  92.812 -45.283  1.00  0.00     0.049 C
HETATM   17  C3  UNL     1      91.922  93.119 -42.857  1.00  0.00     0.009 A
HETATM   18  C4  UNL     1      91.940  93.890 -41.718  1.00  0.00     0.024 A
HETATM   19  C5  UNL     1      91.761  95.250 -41.861  1.00  0.00     0.034 A
HETATM   20 CL1  UNL     1      91.781  96.249 -40.409  1.00  0.00    -0.084 Cl
HETATM   21  C6  UNL     1      91.569  95.839 -43.092  1.00  0.00     0.031 A
ENDBRANCH  13  14
ENDBRANCH  12  13
ENDBRANCH   9  12
ENDBRANCH   1   8
BRANCH   1  22
HETATM   22  C12 UNL     1      91.130 101.585 -45.273  1.00  0.00     0.173 C
BRANCH  22  23
HETATM   23  C13 UNL     1      91.878 101.355 -46.469  1.00  0.00    -0.086 C
HETATM   24  C14 UNL     1      92.483 101.114 -47.508  1.00  0.00    -0.015 C
BRANCH  24  25
HETATM   25  C15 UNL     1      93.201 100.833 -48.692  1.00  0.00    -0.014 C
HETATM   26  C16 UNL     1      93.819 100.612 -49.687  1.00  0.00    -0.084 C
BRANCH  26  27
HETATM   27  C17 UNL     1      94.587 100.364 -50.913  1.00  0.00     0.013 C
HETATM   28  C18 UNL     1      95.018  98.910 -50.951  1.00  0.00     0.028 C
HETATM   29  C19 UNL     1      95.821 101.229 -50.909  1.00  0.00     0.028 C
HETATM   30  C20 UNL     1      93.751 100.716 -52.127  1.00  0.00     0.028 C
ENDBRANCH  26  27
ENDBRANCH  24  25
ENDBRANCH  22  23
ENDBRANCH   1  22
BRANCH   7  31
HETATM   31  C28 UNL     1      89.395 100.515 -42.405  1.00  0.00     0.199 C
HETATM   32  N5  UNL     1      88.247 101.054 -42.623  1.00  0.00    -0.303 N
ATOM     33  H5  UNL     1      88.182 101.879 -43.219  1.00  0.00     0.187 HD
BRANCH  32  34
HETATM   34  N6  UNL     1      87.078 100.516 -42.049  1.00  0.00    -0.344 N
ATOM     35  H62 UNL     1      86.334 101.155 -41.768  1.00  0.00     0.176 HD
ATOM     36  H61 UNL     1      86.978  99.511 -41.915  1.00  0.00     0.176 HD
ENDBRANCH  32  34
ENDBRANCH   7  31
BRANCH   6  37
HETATM   37  C23 UNL     1      91.448 102.265 -41.042  1.00  0.00     0.252 C
HETATM   38  O3  UNL     1      91.943 101.319 -40.342  1.00  0.00    -0.270 OA
HETATM   39  N3  UNL     1      90.986 103.400 -40.352  1.00  0.00    -0.350 N
HETATM   40  C24 UNL     1      90.441 104.514 -41.097  1.00  0.00     0.153 C
BRANCH  39  41
HETATM   41  C25 UNL     1      91.044 103.482 -38.915  1.00  0.00     0.078 C
HETATM   42  C26 UNL     1      89.914 104.345 -38.362  1.00  0.00     0.032 C
HETATM   43  C27 UNL     1      92.343 104.062 -38.421  1.00  0.00     0.032 C
ENDBRANCH  39  41
ENDBRANCH   6  37
TORSDOF 12
ENDMDL