MODEL 5
REMARK VINA RESULT: -6.141492630      3.599      4.641
REMARK  9 active torsions:
REMARK  status: ('A' for Active; 'I' for Inactive)
REMARK    1  A    between atoms: C3_5  and  C4_6
REMARK    2  A    between atoms: C4_6  and  C6_8
REMARK    3  A    between atoms: C14_17  and  C15_18
REMARK       I    between atoms: C15_18  and  N2_20
REMARK    4  A    between atoms: N2_20  and  C16_22
REMARK    5  A    between atoms: N3_25  and  C19_26
REMARK    6  A    between atoms: C19_26  and  C20_27
REMARK    7  A    between atoms: C23_30  and  C24_31
REMARK    8  A    between atoms: C24_31  and  C25_32
REMARK    9  A    between atoms: C25_32  and  N4_33
REMARK       I    between atoms: N4_33  and  C26_35
ROOT
HETATM    1  C16 UNL     1      87.150  98.453 -45.056  1.00  0.00     0.037 A
HETATM    2  C17 UNL     1      86.740  99.043 -46.219  1.00  0.00     0.046 A
HETATM    3  C18 UNL     1      85.770  98.431 -47.034  1.00  0.00     0.093 A
HETATM    4  N3  UNL     1      85.195  97.267 -46.741  1.00  0.00    -0.361 N
HETATM    5  C30 UNL     1      85.594  96.662 -45.579  1.00  0.00     0.093 A
HETATM    6  C31 UNL     1      86.537  97.227 -44.758  1.00  0.00     0.046 A
ENDROOT
BRANCH   1   7
HETATM    7  N2  UNL     1      88.137  98.953 -44.172  1.00  0.00    -0.323 N
HETATM    8  C15 UNL     1      89.518  98.828 -44.333  1.00  0.00     0.259 C
HETATM    9  O1  UNL     1      89.906  98.198 -45.386  1.00  0.00    -0.267 OA
ATOM     10  H2  UNL     1      87.809  99.450 -43.343  1.00  0.00     0.169 HD
BRANCH   8  11
HETATM   11  C14 UNL     1      90.480  99.364 -43.403  1.00  0.00     0.066 A
HETATM   12  C2  UNL     1      91.207  98.608 -42.489  1.00  0.00     0.039 A
HETATM   13  C1  UNL     1      91.154  97.285 -42.367  1.00  0.00     0.044 C
HETATM   14  N1  UNL     1      91.940  99.454 -41.800  1.00  0.00    -0.355 N
HETATM   15  C3  UNL     1      91.769 100.754 -42.179  1.00  0.00     0.046 A
ATOM     16  H1  UNL     1      92.575  99.167 -41.056  1.00  0.00     0.166 HD
HETATM   17  C12 UNL     1      90.842 100.700 -43.192  1.00  0.00    -0.017 A
HETATM   18  C13 UNL     1      90.234 101.856 -43.919  1.00  0.00     0.052 C
BRANCH  15  19
HETATM   19  C4  UNL     1      92.413 101.750 -41.633  1.00  0.00    -0.025 C
HETATM   20  C5  UNL     1      93.513 102.424 -42.434  1.00  0.00     0.051 C
BRANCH  19  21
HETATM   21  C6  UNL     1      92.173 102.318 -40.353  1.00  0.00    -0.028 A
HETATM   22  C7  UNL     1      90.902 102.643 -39.915  1.00  0.00     0.015 A
HETATM   23  C8  UNL     1      90.698 103.235 -38.699  1.00  0.00     0.043 A
HETATM   24  C9  UNL     1      91.795 103.504 -37.911  1.00  0.00     0.116 A
HETATM   25  F1  UNL     1      91.601 104.087 -36.710  1.00  0.00    -0.206 F
HETATM   26  C10 UNL     1      93.081 103.202 -38.295  1.00  0.00     0.043 A
HETATM   27  C11 UNL     1      93.245 102.608 -39.523  1.00  0.00     0.015 A
ENDBRANCH  19  21
ENDBRANCH  15  19
ENDBRANCH   8  11
ENDBRANCH   1   7
BRANCH   4  28
HETATM   28  C19 UNL     1      84.178  96.628 -47.563  1.00  0.00     0.184 C
BRANCH  28  29
HETATM   29  C20 UNL     1      84.582  95.365 -48.165  1.00  0.00     0.029 A
HETATM   30  C21 UNL     1      85.527  95.414 -49.173  1.00  0.00     0.027 A
HETATM   31  C22 UNL     1      85.957  94.261 -49.797  1.00  0.00     0.010 A
HETATM   32  C23 UNL     1      85.439  93.037 -49.412  1.00  0.00    -0.041 A
HETATM   33  C28 UNL     1      84.509  93.041 -48.413  1.00  0.00     0.097 A
HETATM   34  N5  UNL     1      84.087  94.190 -47.797  1.00  0.00    -0.362 N
HETATM   35  C29 UNL     1      83.080  94.042 -46.759  1.00  0.00     0.155 C
BRANCH  32  36
HETATM   36  C24 UNL     1      85.922  91.841 -50.096  1.00  0.00     0.059 C
BRANCH  36  37
HETATM   37  C25 UNL     1      86.997  92.105 -51.108  1.00  0.00     0.127 C
BRANCH  37  38
HETATM   38  N4  UNL     1      88.194  91.377 -50.785  1.00  0.00    -0.361 N
HETATM   39  C26 UNL     1      89.412  92.033 -50.425  1.00  0.00     0.213 C
HETATM   40  C27 UNL     1      90.642  91.301 -50.092  1.00  0.00     0.117 C
HETATM   41  O2  UNL     1      89.418  93.290 -50.393  1.00  0.00    -0.274 OA
ATOM     42  H4  UNL     1      88.173  90.357 -50.815  1.00  0.00     0.162 HD
ENDBRANCH  37  38
ENDBRANCH  36  37
ENDBRANCH  32  36
ENDBRANCH  28  29
ENDBRANCH   4  28
TORSDOF 9
ENDMDL