MODEL 1
REMARK VINA RESULT: -6.544405398      0.000      0.000
REMARK  9 active torsions:
REMARK  status: ('A' for Active; 'I' for Inactive)
REMARK    1  A    between atoms: C2_2  and  N1_4
REMARK       I    between atoms: N1_4  and  C4_6
REMARK    2  A    between atoms: C4_6  and  C5_8
REMARK    3  A    between atoms: C5_8  and  C6_9
REMARK    4  A    between atoms: C5_8  and  N2_18
REMARK    5  A    between atoms: C6_9  and  C7_10
REMARK    6  A    between atoms: C7_10  and  C8_11
REMARK       I    between atoms: N2_18  and  C14_20
REMARK       I    between atoms: C14_20  and  N3_22
REMARK    7  A    between atoms: N3_22  and  C15_24
REMARK    8  A    between atoms: C15_24  and  C16_26
REMARK    9  A    between atoms: C16_26  and  N4_27
ROOT
HETATM    1  N2  UNL     1      89.647  99.073 -42.526  1.00  0.00    -0.330 N
ATOM      2  H2  UNL     1      89.358  98.632 -41.653  1.00  0.00     0.165 HD
HETATM    3  C14 UNL     1      88.661  99.618 -43.435  1.00  0.00     0.321 C
HETATM    4  O2  UNL     1      89.037 100.154 -44.492  1.00  0.00    -0.247 OA
HETATM    5  N3  UNL     1      87.326  99.486 -43.021  1.00  0.00    -0.301 N
ATOM      6  H3  UNL     1      87.163  99.032 -42.123  1.00  0.00     0.171 HD
ENDROOT
BRANCH   1   7
HETATM    7  C5  UNL     1      91.016  99.161 -42.867  1.00  0.00     0.178 C
BRANCH   7   8
HETATM    8  C4  UNL     1      91.565 100.456 -42.322  1.00  0.00     0.240 C
HETATM    9  N1  UNL     1      91.570 100.674 -40.931  1.00  0.00    -0.355 N
ATOM     10  H1  UNL     1      91.204  99.965 -40.296  1.00  0.00     0.162 HD
HETATM   11  O1  UNL     1      92.015 101.325 -43.111  1.00  0.00    -0.271 OA
BRANCH   9  12
HETATM   12  C2  UNL     1      92.104 101.925 -40.410  1.00  0.00     0.076 C
HETATM   13  C1  UNL     1      91.078 102.462 -39.429  1.00  0.00     0.032 C
HETATM   14  C3  UNL     1      93.412 101.640 -39.674  1.00  0.00     0.032 C
ENDBRANCH   9  12
ENDBRANCH   7   8
BRANCH   7  15
HETATM   15  C6  UNL     1      91.918  98.066 -42.407  1.00  0.00     0.039 C
BRANCH  15  16
HETATM   16  C7  UNL     1      91.235  96.870 -41.816  1.00  0.00     0.041 C
BRANCH  16  17
HETATM   17  C8  UNL     1      91.361  95.780 -42.852  1.00  0.00    -0.058 A
HETATM   18  C9  UNL     1      91.699  94.495 -42.485  1.00  0.00     0.008 A
HETATM   19  C10 UNL     1      91.811  93.529 -43.436  1.00  0.00     0.019 A
HETATM   20  C11 UNL     1      91.604  93.752 -44.779  1.00  0.00     0.011 A
HETATM   21 BR1  UNL     1      91.774  92.358 -46.077  1.00  0.00    -0.051 Br
HETATM   22  C12 UNL     1      91.266  95.048 -45.135  1.00  0.00     0.019 A
HETATM   23  C13 UNL     1      91.148  96.037 -44.183  1.00  0.00     0.008 A
ENDBRANCH  16  17
ENDBRANCH  15  16
ENDBRANCH   7  15
ENDBRANCH   1   7
BRANCH   5  24
HETATM   24  C15 UNL     1      86.202  99.918 -43.723  1.00  0.00     0.107 C
HETATM   25  S1  UNL     1      85.149 100.994 -42.969  1.00  0.00    -0.063 SA
BRANCH  24  26
HETATM   26  C16 UNL     1      85.830  99.480 -45.072  1.00  0.00     0.306 C
BRANCH  26  27
HETATM   27  N4  UNL     1      85.092  98.223 -44.969  1.00  0.00    -0.062 N
HETATM   28  C17 UNL     1      85.174  97.605 -43.681  1.00  0.00     0.273 C
HETATM   29  C18 UNL     1      83.711  98.520 -45.320  1.00  0.00     0.265 C
HETATM   30  C19 UNL     1      82.868  97.299 -45.469  1.00  0.00     0.264 C
HETATM   31  N5  UNL     1      83.436  96.326 -46.348  1.00  0.00    -0.071 N
HETATM   32  C20 UNL     1      83.300  96.698 -47.747  1.00  0.00     0.272 C
HETATM   33  C21 UNL     1      82.698  95.075 -46.147  1.00  0.00     0.272 C
HETATM   34  C22 UNL     1      84.817  96.049 -46.093  1.00  0.00     0.264 C
HETATM   35  C23 UNL     1      85.619  97.332 -45.985  1.00  0.00     0.265 C
ENDBRANCH  26  27
ENDBRANCH  24  26
ENDBRANCH   5  24
TORSDOF 9
ENDMDL