MODEL 4
REMARK VINA RESULT: -5.444343509      3.351      8.415
REMARK  7 active torsions:
REMARK  status: ('A' for Active; 'I' for Inactive)
REMARK    1  A    between atoms: O1_2  and  C2_3
REMARK    2  A    between atoms: C2_3  and  C3_4
REMARK    3  A    between atoms: C6_10  and  C7_11
REMARK    4  A    between atoms: N4_22  and  C14_23
REMARK    5  A    between atoms: C15_24  and  C16_25
REMARK       I    between atoms: N6_30  and  C19_32
REMARK    6  A    between atoms: C19_32  and  C20_34
REMARK    7  A    between atoms: C20_34  and  N7_35
ROOT
HETATM    1  C7  UNL     1      90.098  97.855 -44.388  1.00  0.00     0.086 C
HETATM    2  C8  UNL     1      88.988  98.677 -43.766  1.00  0.00     0.066 C
HETATM    3  C9  UNL     1      88.481  99.728 -44.733  1.00  0.00     0.250 C
HETATM    4  N2  UNL     1      88.800  99.316 -46.071  1.00  0.00    -0.011 N
HETATM    5  C10 UNL     1      88.125 100.015 -47.106  1.00  0.00     0.283 C
HETATM    6  C11 UNL     1      88.387  97.910 -46.150  1.00  0.00     0.250 C
HETATM    7  C12 UNL     1      89.477  97.045 -45.505  1.00  0.00     0.066 C
HETATM    8  C13 UNL     1      90.271  99.369 -46.221  1.00  0.00     0.280 C
HETATM    9  N3  UNL     1      90.671  99.822 -47.304  1.00  0.00    -0.365 N
ATOM     10  H31 UNL     1      91.685  99.858 -47.407  1.00  0.00     0.159 HD
ATOM     11  H32 UNL     1      90.185 100.180 -48.127  1.00  0.00     0.159 HD
HETATM   12  N4  UNL     1      90.944  98.874 -45.082  1.00  0.00    -0.307 N
ENDROOT
BRANCH  12  13
HETATM   13  C14 UNL     1      92.212  99.244 -44.628  1.00  0.00     0.098 C
HETATM   14  C15 UNL     1      92.642 100.550 -44.200  1.00  0.00     0.049 C
BRANCH  14  15
HETATM   15  C16 UNL     1      92.310 101.208 -42.954  1.00  0.00     0.066 A
HETATM   16  C17 UNL     1      91.729 102.495 -42.966  1.00  0.00     0.136 A
HETATM   17  N5  UNL     1      91.630 102.935 -41.710  1.00  0.00    -0.199 N
HETATM   18  C18 UNL     1      92.122 101.993 -40.894  1.00  0.00     0.685 A
ATOM     19  H5  UNL     1      91.246 103.834 -41.421  1.00  0.00     0.183 HD
HETATM   20  N6  UNL     1      92.218 102.183 -39.596  1.00  0.00    -0.158 N
HETATM   21  N8  UNL     1      92.524 100.961 -41.651  1.00  0.00    -0.190 N
HETATM   22  C19 UNL     1      91.776 103.458 -39.053  1.00  0.00     0.262 C
ATOM     23  H6  UNL     1      92.592 101.456 -38.987  1.00  0.00     0.187 HD
HETATM   24  O2  UNL     1      90.559 103.523 -38.766  1.00  0.00    -0.271 OA
ATOM     25  H8  UNL     1      92.936 100.102 -41.286  1.00  0.00     0.184 HD
BRANCH  22  26
HETATM   26  C20 UNL     1      92.772 104.512 -38.909  1.00  0.00     0.339 C
BRANCH  26  27
HETATM   27  N7  UNL     1      93.299 104.719 -37.601  1.00  0.00    -0.070 N
HETATM   28  C21 UNL     1      92.515 105.742 -36.882  1.00  0.00     0.272 C
HETATM   29  C22 UNL     1      94.634 105.320 -37.749  1.00  0.00     0.272 C
HETATM   30  C23 UNL     1      93.391 103.575 -36.751  1.00  0.00     0.272 C
ENDBRANCH  26  27
ENDBRANCH  22  26
ENDBRANCH  14  15
ENDBRANCH  12  13
BRANCH   1  31
HETATM   31  C6  UNL     1      90.741  97.034 -43.377  1.00  0.00     0.048 A
HETATM   32  C3  UNL     1      91.446  95.871 -43.385  1.00  0.00     0.009 A
HETATM   33  C4  UNL     1      91.888  95.593 -42.128  1.00  0.00     0.036 A
HETATM   34 BR1  UNL     1      92.930  94.077 -41.561  1.00  0.00    -0.049 Br
HETATM   35  C5  UNL     1      91.462  96.582 -41.304  1.00  0.00     0.108 A
HETATM   36  N1  UNL     1      90.774  97.440 -42.059  1.00  0.00    -0.365 N
ATOM     37  H1  UNL     1      90.329  98.288 -41.707  1.00  0.00     0.165 HD
BRANCH  32  38
HETATM   38  C2  UNL     1      91.812  95.014 -44.539  1.00  0.00     0.209 C
BRANCH  38  39
HETATM   39  O1  UNL     1      91.141  93.822 -44.511  1.00  0.00    -0.391 OA
HETATM   40  C1  UNL     1      91.520  92.893 -45.424  1.00  0.00     0.201 C
ENDBRANCH  38  39
ENDBRANCH  32  38
ENDBRANCH   1  31
TORSDOF 7
ENDMDL