MODEL 2
REMARK VINA RESULT: -6.927688563      2.842      7.875
REMARK  9 active torsions:
REMARK  status: ('A' for Active; 'I' for Inactive)
REMARK    1  A    between atoms: C2_2  and  N5_38
REMARK       I    between atoms: N1_3  and  C3_5
REMARK       I    between atoms: C3_5  and  N2_6
REMARK    2  A    between atoms: N2_6  and  C4_8
REMARK    3  A    between atoms: N3_14  and  C10_16
REMARK    4  A    between atoms: C10_16  and  C11_17
REMARK       I    between atoms: C11_17  and  N4_19
REMARK    5  A    between atoms: N4_19  and  C12_20
REMARK    6  A    between atoms: C12_20  and  C13_21
REMARK    7  A    between atoms: C12_20  and  C19_28
REMARK    8  A    between atoms: C19_28  and  O2_29
REMARK    9  A    between atoms: C19_28  and  C20_31
ROOT
HETATM    1  C10 UNL     1      92.922  99.893 -44.599  1.00  0.00     0.257 C
ENDROOT
BRANCH   1   2
HETATM    2  N3  UNL     1      92.014  99.995 -43.478  1.00  0.00    -0.216 N
HETATM    3  C3  UNL     1      91.486 101.093 -43.082  1.00  0.00     0.676 C
HETATM    4  N1  UNL     1      91.771 102.313 -43.742  1.00  0.00    -0.181 N
HETATM    5  N2  UNL     1      90.595 101.153 -41.981  1.00  0.00    -0.222 N
HETATM    6  C2  UNL     1      91.157 102.803 -44.741  1.00  0.00     0.091 C
ATOM      7  H1  UNL     1      92.553 102.857 -43.376  1.00  0.00     0.185 HD
HETATM    8  C1  UNL     1      89.999 102.136 -45.393  1.00  0.00     0.089 C
ATOM      9  H2  UNL     1      89.621 100.902 -42.147  1.00  0.00     0.178 HD
ATOM     10  H3  UNL     1      91.780  99.142 -42.971  1.00  0.00     0.178 HD
BRANCH   6  11
HETATM   11  N5  UNL     1      91.618 104.048 -45.250  1.00  0.00    -0.371 N
HETATM   12  C27 UNL     1      92.875 104.256 -45.904  1.00  0.00     0.124 C
HETATM   13  C28 UNL     1      93.273 105.663 -45.553  1.00  0.00     0.021 C
HETATM   14  C29 UNL     1      91.969 106.353 -45.288  1.00  0.00     0.021 C
HETATM   15  C30 UNL     1      90.896 105.297 -45.188  1.00  0.00     0.124 C
ENDBRANCH   6  11
BRANCH   5  16
HETATM   16  C4  UNL     1      90.962 101.541 -40.652  1.00  0.00     0.099 C
HETATM   17  C5  UNL     1      92.432 101.443 -40.366  1.00  0.00     0.026 C
HETATM   18  C6  UNL     1      93.019 102.701 -39.767  1.00  0.00     0.002 C
HETATM   19  C7  UNL     1      92.214 103.168 -38.564  1.00  0.00     0.000 C
HETATM   20  C8  UNL     1      90.758 103.229 -38.898  1.00  0.00     0.002 C
HETATM   21  C9  UNL     1      90.526 102.985 -40.368  1.00  0.00     0.026 C
ENDBRANCH   5  16
ENDBRANCH   1   2
BRANCH   1  22
HETATM   22  C11 UNL     1      92.170  99.378 -45.830  1.00  0.00     0.310 C
HETATM   23  O1  UNL     1      92.604  99.873 -46.896  1.00  0.00    -0.255 OA
HETATM   24  N4  UNL     1      91.150  98.474 -45.639  1.00  0.00    -0.370 NA
BRANCH  24  25
HETATM   25  C12 UNL     1      90.142  97.579 -45.449  1.00  0.00     0.128 C
BRANCH  25  26
HETATM   26  C13 UNL     1      90.629  96.162 -45.150  1.00  0.00     0.003 A
HETATM   27  C14 UNL     1      90.634  95.228 -46.151  1.00  0.00     0.017 A
HETATM   28  C15 UNL     1      91.069  93.942 -45.917  1.00  0.00     0.043 A
HETATM   29  C16 UNL     1      91.508  93.562 -44.679  1.00  0.00     0.116 A
HETATM   30  F1  UNL     1      91.936  92.289 -44.472  1.00  0.00    -0.206 F
HETATM   31  C17 UNL     1      91.495  94.523 -43.682  1.00  0.00     0.043 A
HETATM   32  C18 UNL     1      91.065  95.807 -43.900  1.00  0.00     0.017 A
ENDBRANCH  25  26
BRANCH  25  33
HETATM   33  C19 UNL     1      88.894  97.871 -44.731  1.00  0.00     0.191 C
BRANCH  33  34
HETATM   34  O2  UNL     1      89.224  98.792 -43.711  1.00  0.00    -0.388 OA
ATOM     35  H2  UNL     1      88.412  98.999 -43.263  1.00  0.00     0.210 HD
ENDBRANCH  33  34
BRANCH  33  36
HETATM   36  C20 UNL     1      87.621  98.215 -45.334  1.00  0.00    -0.011 C
HETATM   37  C21 UNL     1      87.635  99.321 -46.355  1.00  0.00     0.018 C
HETATM   38  C22 UNL     1      86.778  97.082 -45.773  1.00  0.00     0.012 C
HETATM   39  C23 UNL     1      85.356  97.489 -46.137  1.00  0.00     0.001 C
HETATM   40  C24 UNL     1      84.643  97.769 -44.834  1.00  0.00     0.000 C
HETATM   41  C25 UNL     1      85.638  98.044 -43.745  1.00  0.00     0.001 C
HETATM   42  C26 UNL     1      86.801  98.865 -44.164  1.00  0.00     0.012 C
ENDBRANCH  33  36
ENDBRANCH  25  33
ENDBRANCH  24  25
ENDBRANCH   1  22
TORSDOF 9
ENDMDL