MODEL 2
REMARK VINA RESULT: -6.366235519      1.167      3.415
REMARK  9 active torsions:
REMARK  status: ('A' for Active; 'I' for Inactive)
REMARK    1  A    between atoms: C2_2  and  C3_3
REMARK    2  A    between atoms: C5_7  and  C6_8
REMARK    3  A    between atoms: C7_9  and  C8_10
REMARK    4  A    between atoms: C8_10  and  O1_11
REMARK    5  A    between atoms: C8_10  and  N2_13
REMARK    6  A    between atoms: N2_13  and  C9_15
REMARK    7  A    between atoms: C9_15  and  C10_16
REMARK    8  A    between atoms: C10_16  and  C11_17
REMARK    9  A    between atoms: N4_24  and  C17_25
ROOT
HETATM    1  C6  UNL     1      90.451  98.855 -45.059  1.00  0.00     0.077 A
HETATM    2  C7  UNL     1      89.236  99.170 -45.558  1.00  0.00     0.104 A
HETATM    3  N4  UNL     1      89.231 100.080 -46.682  1.00  0.00    -0.330 N
HETATM    4  C19 UNL     1      90.404 100.624 -47.266  1.00  0.00     0.102 A
HETATM    5  C20 UNL     1      90.398 101.434 -48.294  1.00  0.00     0.064 C
HETATM    6  N5  UNL     1      91.690 100.263 -46.715  1.00  0.00    -0.304 N
HETATM    7  C21 UNL     1      92.883 100.820 -47.320  1.00  0.00     0.161 C
HETATM    8  C22 UNL     1      91.695  99.396 -45.633  1.00  0.00     0.262 A
HETATM    9  O2  UNL     1      92.807  99.046 -45.104  1.00  0.00    -0.267 OA
ENDROOT
BRANCH   2  10
HETATM   10  C8  UNL     1      88.075  98.572 -44.969  1.00  0.00     0.164 C
BRANCH  10  11
HETATM   11  O1  UNL     1      87.764  97.436 -45.576  1.00  0.00    -0.345 OA
ATOM     12  H1  UNL     1      88.295  97.308 -46.353  1.00  0.00     0.219 HD
ENDBRANCH  10  11
BRANCH  10  13
HETATM   13  N2  UNL     1      87.214  98.893 -43.943  1.00  0.00    -0.369 N
ATOM     14  H2  UNL     1      86.231  98.634 -44.031  1.00  0.00     0.161 HD
BRANCH  13  15
HETATM   15  C9  UNL     1      87.656  99.595 -42.724  1.00  0.00     0.126 C
BRANCH  15  16
HETATM   16  C10 UNL     1      87.682 101.056 -42.785  1.00  0.00     0.058 C
BRANCH  16  17
HETATM   17  C11 UNL     1      89.078 101.509 -42.611  1.00  0.00    -0.054 A
HETATM   18  C12 UNL     1      89.851 102.044 -43.606  1.00  0.00     0.024 A
HETATM   19  C13 UNL     1      91.159 102.431 -43.362  1.00  0.00     0.090 A
HETATM   20  N3  UNL     1      91.715 102.300 -42.155  1.00  0.00    -0.371 N
HETATM   21  C14 UNL     1      93.090 102.724 -41.976  1.00  0.00     0.154 C
HETATM   22  C15 UNL     1      90.991 101.780 -41.144  1.00  0.00     0.090 A
HETATM   23  C16 UNL     1      89.684 101.383 -41.356  1.00  0.00     0.024 A
ENDBRANCH  16  17
ENDBRANCH  15  16
ENDBRANCH  13  15
ENDBRANCH  10  13
ENDBRANCH   2  10
BRANCH   1  24
HETATM   24  C5  UNL     1      90.720  97.951 -43.936  1.00  0.00     0.026 A
HETATM   25  C4  UNL     1      90.992  96.583 -44.064  1.00  0.00     0.074 A
HETATM   26  N1  UNL     1      91.040  95.572 -44.939  1.00  0.00    -0.352 N
HETATM   27  C24 UNL     1      91.350  96.144 -42.817  1.00  0.00     0.080 A
HETATM   28  C3  UNL     1      91.435  94.437 -44.283  1.00  0.00     0.051 A
ATOM     29  H1  UNL     1      90.818  95.636 -45.932  1.00  0.00     0.166 HD
HETATM   30  C25 UNL     1      91.628  94.776 -42.977  1.00  0.00     0.066 A
HETATM   31 BR1  UNL     1      92.168  93.699 -41.501  1.00  0.00    -0.046 Br
HETATM   32  N6  UNL     1      91.317  97.135 -41.918  1.00  0.00    -0.362 N
HETATM   33  C23 UNL     1      90.937  98.235 -42.587  1.00  0.00     0.103 A
ATOM     34  H6  UNL     1      91.538  97.069 -40.924  1.00  0.00     0.165 HD
BRANCH  28  35
HETATM   35  C2  UNL     1      91.603  93.131 -44.888  1.00  0.00     0.021 C
HETATM   36  C1  UNL     1      91.450  92.798 -46.139  1.00  0.00     0.013 C
ENDBRANCH  28  35
ENDBRANCH   1  24
BRANCH   3  37
HETATM   37  C17 UNL     1      87.956 100.578 -47.187  1.00  0.00     0.126 C
HETATM   38  C18 UNL     1      87.616 101.792 -46.350  1.00  0.00     0.027 C
ENDBRANCH   3  37
TORSDOF 9
ENDMDL