MODEL 4
REMARK VINA RESULT: -6.193397126      4.846      7.947
REMARK  11 active torsions:
REMARK  status: ('A' for Active; 'I' for Inactive)
REMARK    1  A    between atoms: C3_5  and  C4_6
REMARK    2  A    between atoms: N2_8  and  C5_9
REMARK    3  A    between atoms: C5_9  and  C6_10
REMARK    4  A    between atoms: C9_13  and  C10_14
REMARK    5  A    between atoms: C11_15  and  C12_16
REMARK    6  A    between atoms: C16_23  and  C17_24
REMARK    7  A    between atoms: C17_24  and  C18_25
REMARK    8  A    between atoms: C19_28  and  C20_29
REMARK    9  A    between atoms: C22_31  and  C23_32
REMARK   10  A    between atoms: C23_32  and  C24_33
REMARK   11  A    between atoms: C24_33  and  O3_34
ROOT
HETATM    1  C1  UNL     1      83.587  97.981 -44.462  1.00  0.00     0.044 C
HETATM    2  C2  UNL     1      84.843  98.010 -44.849  1.00  0.00     0.037 A
HETATM    3  N1  UNL     1      85.802  98.724 -44.090  1.00  0.00    -0.344 N
ATOM      4  H1  UNL     1      85.502  99.216 -43.249  1.00  0.00     0.167 HD
HETATM    5  C3  UNL     1      87.182  98.773 -44.470  1.00  0.00     0.114 A
HETATM    6  N2  UNL     1      87.557  98.160 -45.522  1.00  0.00    -0.324 N
HETATM    7  C15 UNL     1      86.620  97.419 -46.337  1.00  0.00     0.096 A
HETATM    8 BR1  UNL     1      87.334  96.869 -48.032  1.00  0.00    -0.030 Br
HETATM    9  C16 UNL     1      85.336  97.292 -46.095  1.00  0.00     0.026 A
ENDROOT
BRANCH   9  10
HETATM   10  C17 UNL     1      84.391  96.390 -46.647  1.00  0.00     0.046 C
BRANCH  10  11
HETATM   11  C18 UNL     1      84.091  95.117 -46.657  1.00  0.00     0.040 A
HETATM   12  N3  UNL     1      83.850  94.193 -45.735  1.00  0.00    -0.356 N
HETATM   13  C19 UNL     1      83.669  92.947 -46.231  1.00  0.00     0.035 A
ATOM     14  H3  UNL     1      83.805  94.405 -44.738  1.00  0.00     0.166 HD
HETATM   15  C22 UNL     1      83.795  93.039 -47.572  1.00  0.00    -0.022 A
HETATM   16  C25 UNL     1      84.051  94.352 -47.861  1.00  0.00    -0.027 A
HETATM   17  C26 UNL     1      84.244  94.846 -49.230  1.00  0.00     0.051 C
BRANCH  13  18
HETATM   18  C20 UNL     1      83.414  91.839 -45.558  1.00  0.00    -0.001 C
HETATM   19  C21 UNL     1      82.429  91.854 -44.439  1.00  0.00     0.038 C
ENDBRANCH  13  18
BRANCH  15  20
HETATM   20  C23 UNL     1      83.677  91.893 -48.520  1.00  0.00     0.067 C
BRANCH  20  21
HETATM   21  C24 UNL     1      85.062  91.313 -48.788  1.00  0.00     0.168 C
BRANCH  21  22
HETATM   22  O3  UNL     1      85.148  90.038 -48.192  1.00  0.00    -0.401 OA
ATOM     23  H3  UNL     1      85.668  90.101 -47.399  1.00  0.00     0.209 HD
ENDBRANCH  21  22
ENDBRANCH  20  21
ENDBRANCH  15  20
ENDBRANCH  10  11
ENDBRANCH   9  10
BRANCH   6  24
HETATM   24  C5  UNL     1      88.956  98.219 -45.894  1.00  0.00     0.169 C
BRANCH  24  25
HETATM   25  C6  UNL     1      89.777  97.166 -45.238  1.00  0.00    -0.040 A
HETATM   26  C7  UNL     1      89.930  95.945 -45.852  1.00  0.00     0.009 A
HETATM   27  C8  UNL     1      90.685  94.930 -45.281  1.00  0.00     0.012 A
HETATM   28  C9  UNL     1      91.319  95.088 -44.071  1.00  0.00    -0.036 A
HETATM   29  C13 UNL     1      91.153  96.340 -43.457  1.00  0.00     0.012 A
HETATM   30  C14 UNL     1      90.405  97.336 -44.032  1.00  0.00     0.009 A
BRANCH  28  31
HETATM   31  C10 UNL     1      92.121  94.057 -43.425  1.00  0.00     0.018 C
HETATM   32  C11 UNL     1      91.933  93.746 -42.165  1.00  0.00     0.085 C
BRANCH  32  33
HETATM   33  C12 UNL     1      92.759  92.710 -41.568  1.00  0.00     0.198 C
HETATM   34  O1  UNL     1      92.242  91.629 -41.205  1.00  0.00    -0.645 OA
HETATM   35  O2  UNL     1      94.112  92.897 -41.391  1.00  0.00    -0.645 OA
ENDBRANCH  32  33
ENDBRANCH  28  31
ENDBRANCH  24  25
ENDBRANCH   6  24
BRANCH   5  36
HETATM   36  C4  UNL     1      88.096  99.533 -43.635  1.00  0.00     0.298 C
HETATM   37  F1  UNL     1      87.998  99.192 -42.278  1.00  0.00    -0.247 F
ENDBRANCH   5  36
TORSDOF 11
ENDMDL