MODEL 1
REMARK VINA RESULT: -6.046814155      0.000      0.000
REMARK  10 active torsions:
REMARK  status: ('A' for Active; 'I' for Inactive)
REMARK    1  A    between atoms: C2_2  and  C3_3
REMARK    2  A    between atoms: C3_3  and  C4_4
REMARK    3  A    between atoms: C9_13  and  N2_14
REMARK       I    between atoms: N2_14  and  C10_16
REMARK    4  A    between atoms: C10_16  and  C11_18
REMARK       I    between atoms: C11_18  and  N3_20
REMARK    5  A    between atoms: N3_20  and  C12_22
REMARK    6  A    between atoms: C12_22  and  C13_23
REMARK    7  A    between atoms: C13_23  and  N4_24
REMARK    8  A    between atoms: C19_30  and  C20_31
REMARK    9  A    between atoms: C20_31  and  C22_33
REMARK   10  A    between atoms: C23_34  and  C24_35
ROOT
HETATM    1  C24 UNL     1      91.511  93.159 -46.203  1.00  0.00    -0.015 C
HETATM    2  C25 UNL     1      91.810  92.096 -46.690  1.00  0.00    -0.097 C
HETATM    3  C26 UNL     1      92.189  90.819 -47.292  1.00  0.00     0.113 C
ENDROOT
BRANCH   1   4
HETATM    4  C23 UNL     1      91.170  94.412 -45.651  1.00  0.00    -0.010 C
HETATM    5  C22 UNL     1      90.887  95.512 -45.184  1.00  0.00    -0.056 C
BRANCH   5   6
HETATM    6  C20 UNL     1      90.563  96.787 -44.609  1.00  0.00     0.018 C
HETATM    7  C21 UNL     1      90.935  96.973 -43.351  1.00  0.00     0.031 C
BRANCH   6   8
HETATM    8  C19 UNL     1      89.873  97.803 -45.419  1.00  0.00     0.230 C
HETATM    9  N4  UNL     1      90.422  99.130 -45.382  1.00  0.00    -0.060 N
HETATM   10  C14 UNL     1      89.855  99.805 -46.565  1.00  0.00     0.273 C
HETATM   11  C15 UNL     1      89.953  99.881 -44.250  1.00  0.00     0.238 C
HETATM   12  C16 UNL     1      88.491  99.925 -44.059  1.00  0.00     0.028 C
HETATM   13  C17 UNL     1      87.743  98.687 -44.357  1.00  0.00     0.004 C
HETATM   14  C18 UNL     1      88.400  97.710 -45.243  1.00  0.00     0.039 C
BRANCH   9  15
HETATM   15  C13 UNL     1      91.828  99.134 -45.494  1.00  0.00     0.257 C
BRANCH  15  16
HETATM   16  C12 UNL     1      92.537 100.296 -46.034  1.00  0.00     0.151 C
BRANCH  16  17
HETATM   17  N3  UNL     1      92.910 101.354 -45.139  1.00  0.00    -0.351 N
HETATM   18  C11 UNL     1      92.263 102.607 -45.019  1.00  0.00     0.309 C
HETATM   19  O3  UNL     1      91.271 102.834 -45.757  1.00  0.00    -0.262 OA
ATOM     20  H3  UNL     1      93.714 101.187 -44.533  1.00  0.00     0.162 HD
BRANCH  18  21
HETATM   21  C10 UNL     1      92.739 103.589 -44.071  1.00  0.00     0.310 C
HETATM   22  N2  UNL     1      93.459 103.174 -42.902  1.00  0.00    -0.339 N
ATOM     23  H2  UNL     1      93.636 102.183 -42.738  1.00  0.00     0.164 HD
HETATM   24  O2  UNL     1      92.506 104.809 -44.296  1.00  0.00    -0.262 OA
BRANCH  22  25
HETATM   25  C9  UNL     1      93.938 104.171 -41.945  1.00  0.00     0.165 C
HETATM   26  C4  UNL     1      93.399 103.846 -40.567  1.00  0.00    -0.025 C
HETATM   27  C5  UNL     1      94.114 103.867 -39.488  1.00  0.00     0.084 C
HETATM   28 BR1  UNL     1      93.371 103.503 -37.756  1.00  0.00    -0.045 Br
HETATM   29  C6  UNL     1      95.584 104.136 -39.526  1.00  0.00     0.263 C
HETATM   30  O1  UNL     1      96.237 104.151 -38.458  1.00  0.00    -0.267 OA
HETATM   31  N1  UNL     1      96.148 104.358 -40.794  1.00  0.00    -0.325 N
HETATM   32  C7  UNL     1      95.381 104.329 -41.984  1.00  0.00     0.030 C
ATOM     33  H1  UNL     1      97.147 104.547 -40.859  1.00  0.00     0.169 HD
HETATM   34  C8  UNL     1      96.001 104.448 -43.185  1.00  0.00     0.041 C
BRANCH  26  35
HETATM   35  C3  UNL     1      91.954 103.542 -40.588  1.00  0.00     0.064 C
BRANCH  35  36
HETATM   36  C2  UNL     1      91.476 102.201 -40.384  1.00  0.00    -0.032 C
HETATM   37  C1  UNL     1      90.360 101.739 -41.006  1.00  0.00     0.007 C
ENDBRANCH  35  36
ENDBRANCH  26  35
ENDBRANCH  22  25
ENDBRANCH  18  21
ENDBRANCH  16  17
ENDBRANCH  15  16
ENDBRANCH   9  15
ENDBRANCH   6   8
ENDBRANCH   5   6
ENDBRANCH   1   4
TORSDOF 10
ENDMDL