MODEL 3
REMARK VINA RESULT: -7.755374961      2.224      4.059
REMARK  10 active torsions:
REMARK  status: ('A' for Active; 'I' for Inactive)
REMARK    1  A    between atoms: C5_5  and  C6_6
REMARK    2  A    between atoms: C6_6  and  C7_7
REMARK    3  A    between atoms: C9_14  and  C10_15
REMARK    4  A    between atoms: C10_15  and  C11_16
REMARK    5  A    between atoms: C11_16  and  C12_17
REMARK    6  A    between atoms: C12_17  and  C13_18
REMARK    7  A    between atoms: C16_21  and  C17_22
REMARK    8  A    between atoms: C17_22  and  C18_26
REMARK    9  A    between atoms: C18_26  and  O2_27
REMARK   10  A    between atoms: C18_26  and  N4_29
REMARK       I    between atoms: C19_31  and  N6_33
ROOT
HETATM    1  C13 UNL     1      91.433  93.766 -45.098  1.00  0.00    -0.058 A
HETATM    2  C14 UNL     1      91.077  94.790 -45.948  1.00  0.00     0.008 A
HETATM    3  C15 UNL     1      90.807  96.078 -45.504  1.00  0.00     0.014 A
HETATM    4  C16 UNL     1      90.890  96.382 -44.149  1.00  0.00    -0.005 A
HETATM    5  C23 UNL     1      91.244  95.366 -43.295  1.00  0.00     0.014 A
HETATM    6  C24 UNL     1      91.510  94.076 -43.779  1.00  0.00     0.008 A
ENDROOT
BRANCH   1   7
HETATM    7  C12 UNL     1      91.748  92.425 -45.612  1.00  0.00     0.039 C
BRANCH   7   8
HETATM    8  C11 UNL     1      91.350  92.280 -47.026  1.00  0.00     0.011 C
BRANCH   8   9
HETATM    9  C10 UNL     1      91.883  91.178 -47.843  1.00  0.00     0.060 C
BRANCH   9  10
HETATM   10  C9  UNL     1      90.946  90.431 -48.684  1.00  0.00     0.040 A
HETATM   11  C7  UNL     1      90.495  90.763 -49.964  1.00  0.00     0.061 A
HETATM   12  N1  UNL     1      89.606  89.815 -50.388  1.00  0.00    -0.307 N
HETATM   13  C8  UNL     1      89.502  88.923 -49.415  1.00  0.00     0.325 A
ATOM     14  H1  UNL     1      89.116  89.798 -51.283  1.00  0.00     0.170 HD
HETATM   15  O1  UNL     1      88.756  87.908 -49.481  1.00  0.00    -0.247 OA
HETATM   16  N2  UNL     1      90.301  89.295 -48.405  1.00  0.00    -0.310 N
ATOM     17  H2  UNL     1      90.404  88.776 -47.532  1.00  0.00     0.170 HD
BRANCH  11  18
HETATM   18  C6  UNL     1      90.878  91.925 -50.745  1.00  0.00     0.061 C
BRANCH  18  19
HETATM   19  C5  UNL     1      90.009  92.914 -50.949  1.00  0.00     0.034 A
HETATM   20  C4  UNL     1      89.877  93.637 -52.123  1.00  0.00     0.032 A
HETATM   21  C3  UNL     1      88.880  94.590 -51.980  1.00  0.00     0.031 A
HETATM   22  C2  UNL     1      88.403  94.436 -50.694  1.00  0.00     0.023 A
HETATM   23  C1  UNL     1      87.438  95.153 -50.143  1.00  0.00     0.043 C
HETATM   24  N7  UNL     1      89.105  93.421 -50.107  1.00  0.00    -0.357 N
ATOM     25  H7  UNL     1      88.958  93.094 -49.152  1.00  0.00     0.166 HD
ENDBRANCH  18  19
ENDBRANCH  11  18
ENDBRANCH   9  10
ENDBRANCH   8   9
ENDBRANCH   7   8
ENDBRANCH   1   7
BRANCH   4  26
HETATM   26  C17 UNL     1      90.573  97.755 -43.708  1.00  0.00     0.100 C
HETATM   27  N3  UNL     1      89.506  98.285 -43.993  1.00  0.00    -0.318 N
HETATM   28 BR1  UNL     1      87.920  98.394 -44.713  1.00  0.00     0.047 Br
ATOM     29  H3  UNL     1      89.599  99.199 -43.551  1.00  0.00     0.174 HD
BRANCH  26  30
HETATM   30  C18 UNL     1      91.504  98.574 -42.920  1.00  0.00     0.171 C
BRANCH  30  31
HETATM   31  O2  UNL     1      91.653  98.200 -41.684  1.00  0.00    -0.344 OA
ATOM     32  H2  UNL     1      91.219  98.751 -41.043  1.00  0.00     0.219 HD
ENDBRANCH  30  31
BRANCH  30  33
HETATM   33  N4  UNL     1      92.248  99.678 -43.272  1.00  0.00    -0.309 N
HETATM   34  C19 UNL     1      92.052 100.889 -42.869  1.00  0.00     0.192 C
HETATM   35  N5  UNL     1      92.928 101.926 -43.337  1.00  0.00    -0.063 NA
HETATM   36  N6  UNL     1      91.025 101.296 -41.988  1.00  0.00    -0.355 N
HETATM   37  C20 UNL     1      89.588 101.146 -41.943  1.00  0.00     0.127 C
HETATM   38  C22 UNL     1      90.947 102.039 -40.751  1.00  0.00     0.127 C
HETATM   39  C21 UNL     1      89.557 102.489 -41.199  1.00  0.00     0.040 C
ATOM     40  H4  UNL     1      93.027  99.525 -43.911  1.00  0.00     0.170 HD
ENDBRANCH  30  33
ENDBRANCH  26  30
ENDBRANCH   4  26
TORSDOF 10
ENDMDL