MODEL 1
REMARK VINA RESULT: -5.803993776      0.000      0.000
REMARK  11 active torsions:
REMARK  status: ('A' for Active; 'I' for Inactive)
REMARK    1  A    between atoms: C2_2  and  C3_3
REMARK    2  A    between atoms: C2_2  and  C7_8
REMARK    3  A    between atoms: C3_3  and  C4_4
REMARK    4  A    between atoms: C5_5  and  C6_6
REMARK       I    between atoms: C7_8  and  N1_10
REMARK    5  A    between atoms: N1_10  and  C8_12
REMARK    6  A    between atoms: C8_12  and  C9_13
REMARK       I    between atoms: C9_13  and  N2_15
REMARK    7  A    between atoms: N2_15  and  C10_17
REMARK    8  A    between atoms: C10_17  and  C11_18
REMARK    9  A    between atoms: C11_18  and  N3_19
REMARK   10  A    between atoms: N4_22  and  C14_23
REMARK   11  A    between atoms: C14_23  and  C15_24
ROOT
HETATM    1  C9  UNL     1      90.521  99.975 -44.503  1.00  0.00     0.275 C
HETATM    2  O2  UNL     1      90.735 100.471 -45.634  1.00  0.00    -0.269 OA
HETATM    3  N2  UNL     1      91.195 100.386 -43.328  1.00  0.00    -0.356 N
ATOM      4  H2  UNL     1      90.953  99.929 -42.449  1.00  0.00     0.162 HD
ENDROOT
BRANCH   1   5
HETATM    5  C8  UNL     1      89.503  98.899 -44.398  1.00  0.00     0.280 C
HETATM    6  C23 UNL     1      88.245  99.237 -45.142  1.00  0.00     0.074 C
HETATM    7  C24 UNL     1      87.168  99.433 -44.140  1.00  0.00     0.032 C
HETATM    8  C25 UNL     1      87.817  99.226 -42.818  1.00  0.00     0.236 C
HETATM    9  N5  UNL     1      89.158  98.776 -42.992  1.00  0.00    -0.039 N
ATOM     10  H52 UNL     1      89.305  97.833 -42.633  1.00  0.00     0.280 HD
ATOM     11  H51 UNL     1      89.816  99.262 -42.382  1.00  0.00     0.280 HD
BRANCH   5  12
HETATM   12  N1  UNL     1      90.085  97.668 -44.894  1.00  0.00    -0.320 N
HETATM   13  C7  UNL     1      90.916  96.837 -44.124  1.00  0.00     0.224 C
HETATM   14  O1  UNL     1      91.143  97.238 -42.929  1.00  0.00    -0.273 OA
ATOM     15  H1  UNL     1      89.880  97.389 -45.853  1.00  0.00     0.165 HD
BRANCH  13  16
HETATM   16  C2  UNL     1      91.508  95.575 -44.616  1.00  0.00     0.085 C
HETATM   17  C1  UNL     1      91.366  94.560 -43.469  1.00  0.00     0.021 C
BRANCH  16  18
HETATM   18  C3  UNL     1      90.768  94.984 -45.790  1.00  0.00     0.107 C
BRANCH  18  19
HETATM   19  C4  UNL     1      91.185  93.663 -46.184  1.00  0.00    -0.105 C
HETATM   20  C5  UNL     1      91.518  92.561 -46.538  1.00  0.00    -0.096 C
BRANCH  20  21
HETATM   21  C6  UNL     1      91.925  91.200 -46.947  1.00  0.00     0.178 C
HETATM   22 BR1  UNL     1      91.161  90.738 -48.671  1.00  0.00    -0.083 Br
ENDBRANCH  20  21
ENDBRANCH  18  19
ENDBRANCH  16  18
ENDBRANCH  13  16
ENDBRANCH   5  12
ENDBRANCH   1   5
BRANCH   3  23
HETATM   23  C10 UNL     1      92.208 101.420 -43.304  1.00  0.00     0.150 C
BRANCH  23  24
HETATM   24  C11 UNL     1      91.628 102.678 -42.756  1.00  0.00     0.257 C
BRANCH  24  25
HETATM   25  N3  UNL     1      91.993 102.867 -41.367  1.00  0.00    -0.061 N
HETATM   26  C12 UNL     1      93.390 102.411 -41.245  1.00  0.00     0.265 C
HETATM   27  C13 UNL     1      93.607 102.238 -39.765  1.00  0.00     0.265 C
HETATM   28  N4  UNL     1      92.825 103.241 -38.996  1.00  0.00    -0.061 N
HETATM   29  C19 UNL     1      91.457 102.712 -39.059  1.00  0.00     0.265 C
HETATM   30  C21 UNL     1      92.913 104.440 -39.750  1.00  0.00     0.265 C
HETATM   31  C20 UNL     1      91.239 102.073 -40.441  1.00  0.00     0.265 C
HETATM   32  C22 UNL     1      92.030 104.270 -40.997  1.00  0.00     0.265 C
BRANCH  28  33
HETATM   33  C14 UNL     1      93.403 103.200 -37.718  1.00  0.00     0.245 C
BRANCH  33  34
HETATM   34  C15 UNL     1      92.889 103.980 -36.596  1.00  0.00    -0.027 C
HETATM   35  C16 UNL     1      93.393 103.257 -35.322  1.00  0.00     0.016 C
HETATM   36  C17 UNL     1      93.478 105.382 -36.452  1.00  0.00     0.016 C
HETATM   37  C18 UNL     1      91.411 104.068 -36.429  1.00  0.00     0.016 C
ENDBRANCH  33  34
ENDBRANCH  28  33
ENDBRANCH  24  25
ENDBRANCH  23  24
ENDBRANCH   3  23
TORSDOF 11
ENDMDL