MODEL 5
REMARK VINA RESULT: -6.907148266      2.358      4.169
REMARK  9 active torsions:
REMARK  status: ('A' for Active; 'I' for Inactive)
REMARK    1  A    between atoms: C2_2  and  C3_3
REMARK    2  A    between atoms: C3_3  and  C4_4
REMARK    3  A    between atoms: C6_6  and  C7_7
REMARK    4  A    between atoms: C7_7  and  C8_8
REMARK    5  A    between atoms: C8_8  and  N5_27
REMARK       I    between atoms: N1_9  and  C9_11
REMARK    6  A    between atoms: C9_11  and  C10_13
REMARK    7  A    between atoms: C10_13  and  C11_14
REMARK    8  A    between atoms: C10_13  and  N2_17
REMARK    9  A    between atoms: N5_27  and  C17_28
ROOT
HETATM    1  C8  UNL     1      89.661  97.209 -46.541  1.00  0.00     0.164 C
HETATM    2  N1  UNL     1      90.098  98.396 -46.252  1.00  0.00    -0.303 N
ATOM      3  H1  UNL     1      89.573  99.179 -46.644  1.00  0.00     0.171 HD
HETATM    4  C9  UNL     1      91.203  98.723 -45.467  1.00  0.00     0.248 C
HETATM    5  O1  UNL     1      92.327  98.520 -46.061  1.00  0.00    -0.271 OA
ENDROOT
BRANCH   1   6
HETATM    6  C7  UNL     1      88.428  97.256 -47.427  1.00  0.00     0.149 C
BRANCH   6   7
HETATM    7  C6  UNL     1      88.656  96.615 -48.727  1.00  0.00     0.018 A
HETATM    8  C5  UNL     1      88.365  95.293 -49.015  1.00  0.00     0.034 A
HETATM    9  C4  UNL     1      88.711  95.041 -50.328  1.00  0.00    -0.031 A
HETATM   10  C23 UNL     1      89.207  96.237 -50.800  1.00  0.00     0.012 A
HETATM   11  N7  UNL     1      89.169  97.179 -49.827  1.00  0.00    -0.362 N
HETATM   12  C24 UNL     1      89.715  96.448 -52.198  1.00  0.00     0.068 C
ATOM     13  H7  UNL     1      89.478  98.147 -49.916  1.00  0.00     0.165 HD
BRANCH   9  14
HETATM   14  C3  UNL     1      88.586  93.769 -51.079  1.00  0.00     0.067 C
BRANCH  14  15
HETATM   15  C2  UNL     1      89.275  92.652 -50.387  1.00  0.00    -0.032 C
HETATM   16  C1  UNL     1      90.463  92.213 -50.783  1.00  0.00     0.007 C
ENDBRANCH  14  15
ENDBRANCH   9  14
ENDBRANCH   6   7
ENDBRANCH   1   6
BRANCH   1  17
HETATM   17  N5  UNL     1      90.188  96.091 -46.140  1.00  0.00    -0.392 NA
BRANCH  17  18
HETATM   18  C17 UNL     1      90.673  95.071 -45.752  1.00  0.00     0.113 A
HETATM   19  C18 UNL     1      90.914  93.912 -46.510  1.00  0.00     0.069 A
HETATM   20  C19 UNL     1      91.484  92.783 -45.962  1.00  0.00     0.009 A
HETATM   21  C20 UNL     1      91.740  91.557 -46.759  1.00  0.00     0.068 C
HETATM   22  N6  UNL     1      91.830  92.765 -44.665  1.00  0.00    -0.354 N
HETATM   23  C21 UNL     1      91.632  93.832 -43.881  1.00  0.00     0.083 A
ATOM     24  H6  UNL     1      92.252  91.924 -44.270  1.00  0.00     0.166 HD
HETATM   25 BR1  UNL     1      92.146  93.740 -42.044  1.00  0.00    -0.031 Br
HETATM   26  C22 UNL     1      91.064  94.973 -44.400  1.00  0.00     0.082 A
ENDBRANCH  17  18
ENDBRANCH   1  17
BRANCH   4  27
HETATM   27  C10 UNL     1      91.163  99.251 -44.087  1.00  0.00     0.207 C
BRANCH  27  28
HETATM   28  C11 UNL     1      90.355  98.436 -43.123  1.00  0.00     0.010 C
HETATM   29  C12 UNL     1      89.293  99.354 -42.512  1.00  0.00     0.012 C
HETATM   30  C13 UNL     1      91.066  97.781 -42.011  1.00  0.00     0.012 C
ENDBRANCH  27  28
BRANCH  27  31
HETATM   31  N2  UNL     1      90.953 100.667 -44.016  1.00  0.00    -0.132 N
HETATM   32  C14 UNL     1      91.676 101.639 -43.216  1.00  0.00     0.681 A
HETATM   33  N3  UNL     1      92.669 101.381 -42.414  1.00  0.00    -0.234 N
HETATM   34  N4  UNL     1      91.138 102.932 -43.439  1.00  0.00    -0.197 N
ATOM     35  H32 UNL     1      93.056 100.451 -42.254  1.00  0.00     0.174 HD
ATOM     36  H31 UNL     1      93.177 102.065 -41.853  1.00  0.00     0.174 HD
HETATM   37  C15 UNL     1      90.172 102.832 -44.284  1.00  0.00     0.181 A
ATOM     38  H4  UNL     1      91.461 103.796 -43.003  1.00  0.00     0.183 HD
HETATM   39  C16 UNL     1      89.983 101.456 -44.700  1.00  0.00     0.278 A
HETATM   40  O2  UNL     1      89.119 101.050 -45.517  1.00  0.00    -0.266 OA
ENDBRANCH  27  31
ENDBRANCH   4  27
TORSDOF 9
ENDMDL