MODEL 1
REMARK VINA RESULT: -6.661977172      0.000      0.000
REMARK  8 active torsions:
REMARK  status: ('A' for Active; 'I' for Inactive)
REMARK    1  A    between atoms: C2_2  and  C3_3
REMARK    2  A    between atoms: C2_2  and  N6_37
REMARK    3  A    between atoms: C3_3  and  C4_4
REMARK       I    between atoms: C4_4  and  N1_6
REMARK    4  A    between atoms: N1_6  and  C5_8
REMARK    5  A    between atoms: C13_17  and  C14_18
REMARK    6  A    between atoms: C14_18  and  C15_19
REMARK    7  A    between atoms: C15_19  and  C16_20
REMARK    8  A    between atoms: C16_20  and  N3_21
REMARK       I    between atoms: N3_21  and  C17_23
ROOT
HETATM    1  C3  UNL     1      89.136 100.191 -44.145  1.00  0.00     0.102 C
HETATM    2  C11 UNL     1      88.981  98.759 -43.523  1.00  0.00     0.068 C
HETATM    3  C12 UNL     1      90.223  98.583 -42.785  1.00  0.00    -0.022 A
HETATM    4  C13 UNL     1      91.180  97.695 -42.348  1.00  0.00    -0.034 A
HETATM    5  C18 UNL     1      92.123  98.398 -41.665  1.00  0.00     0.096 A
HETATM    6  N5  UNL     1      91.748  99.690 -41.685  1.00  0.00    -0.364 N
ATOM      7  H5  UNL     1      92.273 100.447 -41.246  1.00  0.00     0.165 HD
HETATM    8  C19 UNL     1      90.591  99.864 -42.357  1.00  0.00     0.046 A
HETATM    9  C20 UNL     1      89.562 100.827 -42.838  1.00  0.00    -0.008 C
HETATM   10  C21 UNL     1      89.250 101.898 -42.209  1.00  0.00    -0.070 C
HETATM   11  C22 UNL     1      89.873 102.247 -40.886  1.00  0.00     0.035 C
HETATM   12  C23 UNL     1      90.783 103.419 -40.988  1.00  0.00     0.004 C
HETATM   13  C24 UNL     1      90.301 104.414 -41.987  1.00  0.00     0.001 C
HETATM   14  C25 UNL     1      88.809 104.334 -42.088  1.00  0.00     0.004 C
HETATM   15  C26 UNL     1      88.313 102.978 -42.617  1.00  0.00     0.035 C
ENDROOT
BRANCH   1  16
HETATM   16  C2  UNL     1      90.202 100.029 -45.137  1.00  0.00     0.207 C
HETATM   17  C1  UNL     1      89.873  98.949 -46.189  1.00  0.00     0.042 C
BRANCH  16  18
HETATM   18  N6  UNL     1      90.853 101.054 -45.819  1.00  0.00    -0.073 N
HETATM   19  C27 UNL     1      90.811 102.379 -45.285  1.00  0.00     0.272 C
HETATM   20  C28 UNL     1      90.573 101.211 -47.239  1.00  0.00     0.272 C
HETATM   21  C29 UNL     1      92.305 100.719 -45.807  1.00  0.00     0.272 C
ENDBRANCH  16  18
ENDBRANCH   1  16
BRANCH   1  22
HETATM   22  C4  UNL     1      87.788 100.462 -44.569  1.00  0.00     0.235 C
HETATM   23  O1  UNL     1      87.521 101.295 -45.484  1.00  0.00    -0.272 OA
HETATM   24  N1  UNL     1      86.637  99.845 -44.025  1.00  0.00    -0.332 N
ATOM     25  H1  UNL     1      86.779  99.163 -43.281  1.00  0.00     0.164 HD
BRANCH  24  26
HETATM   26  C5  UNL     1      85.280 100.103 -44.439  1.00  0.00     0.290 C
HETATM   27  C6  UNL     1      84.434 100.717 -43.345  1.00  0.00     0.057 C
HETATM   28  C7  UNL     1      83.015 100.312 -43.598  1.00  0.00     0.032 C
HETATM   29  C8  UNL     1      83.149  99.321 -44.725  1.00  0.00     0.239 C
HETATM   30  N2  UNL     1      84.540  98.902 -44.748  1.00  0.00    -0.054 N
HETATM   31  C9  UNL     1      84.803  98.383 -46.057  1.00  0.00     0.274 C
HETATM   32  C10 UNL     1      84.725  97.892 -43.710  1.00  0.00     0.274 C
ENDBRANCH  24  26
ENDBRANCH   1  22
BRANCH   4  33
HETATM   33  C14 UNL     1      91.167  96.227 -42.590  1.00  0.00     0.042 C
BRANCH  33  34
HETATM   34  C15 UNL     1      91.521  95.577 -41.243  1.00  0.00     0.024 C
BRANCH  34  35
HETATM   35  C16 UNL     1      91.667  94.100 -41.374  1.00  0.00     0.124 C
BRANCH  35  36
HETATM   36  N3  UNL     1      91.212  93.682 -42.675  1.00  0.00    -0.345 N
HETATM   37  C17 UNL     1      92.089  93.360 -43.725  1.00  0.00     0.328 C
HETATM   38  N4  UNL     1      91.566  92.946 -45.003  1.00  0.00    -0.040 NA
HETATM   39  O2  UNL     1      93.339  93.401 -43.658  1.00  0.00    -0.251 OA
ATOM     40  H3  UNL     1      90.208  93.617 -42.842  1.00  0.00     0.163 HD
ENDBRANCH  35  36
ENDBRANCH  34  35
ENDBRANCH  33  34
ENDBRANCH   4  33
TORSDOF 8
ENDMDL