MODEL 5
REMARK VINA RESULT: -5.884046566      3.258      5.884
REMARK  8 active torsions:
REMARK  status: ('A' for Active; 'I' for Inactive)
REMARK       I    between atoms: C2_2  and  N1_4
REMARK    1  A    between atoms: N1_4  and  C3_6
REMARK    2  A    between atoms: N2_10  and  C7_12
REMARK    3  A    between atoms: C11_17  and  C12_18
REMARK    4  A    between atoms: C12_18  and  C13_19
REMARK    5  A    between atoms: C14_20  and  C15_21
REMARK    6  A    between atoms: C15_21  and  C16_22
REMARK    7  A    between atoms: C16_22  and  N3_23
REMARK    8  A    between atoms: N3_23  and  C17_25
ROOT
HETATM    1  C7  UNL     1      87.060  99.044 -45.025  1.00  0.00     0.197 C
HETATM    2  C8  UNL     1      85.892  98.682 -45.938  1.00  0.00     0.035 C
HETATM    3  C9  UNL     1      86.053  97.143 -45.949  1.00  0.00     0.018 C
HETATM    4  C10 UNL     1      87.568  97.181 -46.377  1.00  0.00     0.064 C
HETATM    5 BR2  UNL     1      87.481  97.853 -48.160  1.00  0.00    -0.091 Br
HETATM    6  C11 UNL     1      88.135  98.113 -45.339  1.00  0.00     0.034 C
ENDROOT
BRANCH   6   7
HETATM    7  C12 UNL     1      89.502  98.532 -45.617  1.00  0.00     0.034 C
BRANCH   7   8
HETATM    8  C13 UNL     1      90.453  97.485 -45.143  1.00  0.00    -0.030 C
HETATM    9  C14 UNL     1      90.939  97.314 -43.953  1.00  0.00    -0.029 C
BRANCH   9  10
HETATM   10  C15 UNL     1      90.704  98.082 -42.725  1.00  0.00     0.047 C
BRANCH  10  11
HETATM   11  C16 UNL     1      91.558  99.358 -42.666  1.00  0.00     0.142 C
BRANCH  11  12
HETATM   12  N3  UNL     1      92.027  99.605 -41.341  1.00  0.00    -0.226 N
ATOM     13  H3  UNL     1      92.489  98.827 -40.869  1.00  0.00     0.177 HD
BRANCH  12  14
HETATM   14  C17 UNL     1      91.930 100.700 -40.678  1.00  0.00     0.680 A
HETATM   15  N4  UNL     1      90.805 101.378 -40.447  1.00  0.00    -0.202 N
HETATM   16  C18 UNL     1      90.777 102.530 -39.739  1.00  0.00     0.111 A
ATOM     17  H4  UNL     1      89.929 101.013 -40.821  1.00  0.00     0.183 HD
HETATM   18  C19 UNL     1      91.951 103.041 -39.227  1.00  0.00     0.092 A
HETATM   19  C20 UNL     1      93.137 102.340 -39.464  1.00  0.00     0.260 A
HETATM   20  O2  UNL     1      94.218 102.800 -38.998  1.00  0.00    -0.268 OA
HETATM   21  N5  UNL     1      93.078 101.213 -40.170  1.00  0.00    -0.156 N
ATOM     22  H5  UNL     1      93.946 100.706 -40.338  1.00  0.00     0.187 HD
ENDBRANCH  12  14
ENDBRANCH  11  12
ENDBRANCH  10  11
ENDBRANCH   9  10
ENDBRANCH   7   8
ENDBRANCH   6   7
BRANCH   1  23
HETATM   23  N2  UNL     1      87.280 100.421 -44.850  1.00  0.00    -0.051 N
HETATM   24  C5  UNL     1      88.212 100.658 -43.771  1.00  0.00     0.263 C
HETATM   25  C4  UNL     1      87.470 100.450 -42.471  1.00  0.00     0.072 C
HETATM   26 BR1  UNL     1      88.732 102.536 -43.808  1.00  0.00    -0.060 Br
HETATM   27  C3  UNL     1      85.993 100.558 -42.834  1.00  0.00     0.113 C
HETATM   28  C21 UNL     1      86.056 100.981 -44.249  1.00  0.00     0.264 C
HETATM   29  C6  UNL     1      87.528 101.238 -45.993  1.00  0.00     0.274 C
BRANCH  27  30
HETATM   30  N1  UNL     1      85.389 101.664 -42.081  1.00  0.00    -0.355 N
HETATM   31  C2  UNL     1      84.006 101.613 -41.805  1.00  0.00     0.213 C
HETATM   32  C1  UNL     1      83.350 102.720 -41.041  1.00  0.00     0.117 C
HETATM   33  O1  UNL     1      83.277 100.657 -42.183  1.00  0.00    -0.274 OA
ATOM     34  H1  UNL     1      85.957 102.451 -41.764  1.00  0.00     0.162 HD
ENDBRANCH  27  30
ENDBRANCH   1  23
TORSDOF 8
ENDMDL