MODEL 4
REMARK VINA RESULT: -5.591665189      1.927      2.152
REMARK  3 active torsions:
REMARK  status: ('A' for Active; 'I' for Inactive)
REMARK    1  A    between atoms: C2_2  and  C3_3
REMARK    2  A    between atoms: C3_3  and  C5_8
REMARK    3  A    between atoms: N1_4  and  O1_6
ROOT
HETATM    1  C5  UNL     1      17.670 -23.665  13.279  1.00  0.00     0.036 C
HETATM    2  C6  UNL     1      16.372 -24.085  12.650  1.00  0.00     0.022 C
HETATM    3  C7  UNL     1      16.186 -23.134  11.493  1.00  0.00     0.011 C
HETATM    4  C8  UNL     1      17.411 -22.224  11.482  1.00  0.00     0.025 C
HETATM    5  C9  UNL     1      17.104 -21.079  12.410  1.00  0.00     0.065 C
HETATM    6  N2  UNL     1      17.392 -21.283  13.760  1.00  0.00    -0.381 N
ATOM      7  H2  UNL     1      17.598 -20.488  14.365  1.00  0.00     0.164 HD
HETATM    8  C10 UNL     1      17.398 -22.592  14.283  1.00  0.00     0.076 C
HETATM    9  C11 UNL     1      18.496 -23.053  12.173  1.00  0.00     0.031 C
ENDROOT
BRANCH   1  10
HETATM   10  C3  UNL     1      18.403 -24.847  13.880  1.00  0.00     0.045 C
HETATM   11  N1  UNL     1      18.256 -25.005  15.125  1.00  0.00    -0.270 N
ATOM     12  H1  UNL     1      17.659 -24.312  15.577  1.00  0.00     0.194 HD
BRANCH  10  13
HETATM   13  C2  UNL     1      19.181 -25.653  12.959  1.00  0.00     0.018 C
HETATM   14  C1  UNL     1      18.772 -26.808  12.533  1.00  0.00     0.013 C
ENDBRANCH  10  13
BRANCH  11  15
HETATM   15  O1  UNL     1      18.752 -25.923  15.937  1.00  0.00    -0.285 OA
HETATM   16  C4  UNL     1      20.050 -25.868  16.537  1.00  0.00     0.237 C
ENDBRANCH  11  15
ENDBRANCH   1  10
TORSDOF 3
ENDMDL