MODEL 3
REMARK VINA RESULT: -4.492570744      2.336      4.033
REMARK  4 active torsions:
REMARK  status: ('A' for Active; 'I' for Inactive)
REMARK    1  A    between atoms: N1_2  and  C2_5
REMARK    2  A    between atoms: C2_5  and  C3_6
REMARK    3  A    between atoms: C3_6  and  O1_7
REMARK    4  A    between atoms: C3_6  and  C5_10
ROOT
HETATM    1  O1  UNL     1      16.581 -26.587  11.718  1.00  0.00    -0.276 OA
HETATM    2  C4  UNL     1      17.046 -27.412  10.752  1.00  0.00     0.229 C
HETATM    3  N2  UNL     1      17.448 -28.135   9.936  1.00  0.00    -0.164 NA
ENDROOT
BRANCH   1   4
HETATM    4  C3  UNL     1      16.598 -25.154  11.593  1.00  0.00     0.173 C
BRANCH   4   5
HETATM    5  C2  UNL     1      15.138 -24.834  11.217  1.00  0.00     0.265 C
BRANCH   5   6
HETATM    6  N1  UNL     1      15.143 -23.998  10.030  1.00  0.00    -0.077 N
HETATM    7  C1  UNL     1      15.200 -22.609  10.442  1.00  0.00     0.267 C
ATOM      8  H12 UNL     1      14.354 -24.191   9.412  1.00  0.00     0.276 HD
ATOM      9  H11 UNL     1      15.892 -24.245   9.382  1.00  0.00     0.276 HD
ENDBRANCH   5   6
ENDBRANCH   4   5
BRANCH   4  10
HETATM   10  C5  UNL     1      16.887 -24.594  12.943  1.00  0.00     0.035 A
HETATM   11  C6  UNL     1      18.283 -24.725  13.443  1.00  0.00    -0.034 A
HETATM   12  C7  UNL     1      18.399 -25.213  14.879  1.00  0.00     0.016 C
HETATM   13  C8  UNL     1      19.418 -25.163  12.571  1.00  0.00     0.016 C
HETATM   14  C9  UNL     1      17.647 -23.377  13.201  1.00  0.00    -0.034 A
HETATM   15  C10 UNL     1      18.309 -22.578  12.107  1.00  0.00     0.016 C
HETATM   16  C11 UNL     1      17.370 -22.572  14.454  1.00  0.00     0.016 C
ENDBRANCH   4  10
ENDBRANCH   1   4
TORSDOF 4
ENDMDL