MODEL 1
REMARK VINA RESULT: -4.396761094      0.000      0.000
REMARK  3 active torsions:
REMARK  status: ('A' for Active; 'I' for Inactive)
REMARK    1  A    between atoms: C2_2  and  O1_3
REMARK    2  A    between atoms: O1_3  and  N1_4
REMARK    3  A    between atoms: C4_9  and  C5_10
ROOT
HETATM    1  N1  UNL     1      18.323 -24.892  12.547  1.00  0.00    -0.221 N
HETATM    2  C3  UNL     1      17.057 -25.513  12.374  1.00  0.00     0.195 C
HETATM    3  S1  UNL     1      15.801 -25.055  11.459  1.00  0.00    -0.039 SA
HETATM    4  N2  UNL     1      17.150 -26.634  13.252  1.00  0.00    -0.352 N
ATOM      5  H2  UNL     1      16.368 -27.253  13.466  1.00  0.00     0.162 HD
HETATM    6  C4  UNL     1      18.480 -26.793  13.806  1.00  0.00     0.175 C
HETATM    7  C6  UNL     1      19.271 -26.025  12.721  1.00  0.00     0.082 C
HETATM    8  C7  UNL     1      19.272 -26.930  11.534  1.00  0.00     0.043 C
HETATM    9  C8  UNL     1      20.589 -25.501  13.145  1.00  0.00     0.043 C
ENDROOT
BRANCH   1  10
HETATM   10  O1  UNL     1      18.621 -23.616  12.647  1.00  0.00    -0.275 OA
BRANCH  10  11
HETATM   11  C2  UNL     1      17.748 -22.943  13.490  1.00  0.00     0.197 C
HETATM   12  C1  UNL     1      17.616 -21.484  13.096  1.00  0.00     0.036 C
ENDBRANCH  10  11
ENDBRANCH   1  10
BRANCH   6  13
HETATM   13  C5  UNL     1      18.596 -25.997  15.048  1.00  0.00     0.258 C
HETATM   14  O2  UNL     1      17.740 -25.973  15.904  1.00  0.00    -0.305 OA
ENDBRANCH   6  13
TORSDOF 3
ENDMDL