MODEL 3
REMARK VINA RESULT: -5.704085614      3.654      4.665
REMARK  3 active torsions:
REMARK  status: ('A' for Active; 'I' for Inactive)
REMARK    1  A    between atoms: S1_2  and  O3_4
REMARK    2  A    between atoms: O3_4  and  N1_5
REMARK    3  A    between atoms: N1_5  and  C1_6
ROOT
HETATM    1  C1  UNL     1      17.278 -24.121  12.079  1.00  0.00     0.108 C
HETATM    2  C2  UNL     1      17.983 -24.402  13.351  1.00  0.00     0.024 C
HETATM    3  C3  UNL     1      17.708 -25.735  13.955  1.00  0.00     0.002 C
HETATM    4  C4  UNL     1      18.503 -26.774  13.186  1.00  0.00     0.000 C
HETATM    5  C5  UNL     1      18.006 -26.832  11.747  1.00  0.00     0.000 C
HETATM    6  C6  UNL     1      16.563 -26.502  11.646  1.00  0.00     0.002 C
HETATM    7  C7  UNL     1      16.197 -25.085  11.723  1.00  0.00     0.024 C
ENDROOT
BRANCH   1   8
HETATM    8  N1  UNL     1      16.599 -22.823  12.256  1.00  0.00    -0.076 NA
BRANCH   8   9
HETATM    9  O3  UNL     1      17.055 -21.920  11.366  1.00  0.00    -0.146 OA
BRANCH   9  10
HETATM   10  S1  UNL     1      17.519 -20.549  12.205  1.00  0.00     0.419 S
HETATM   11  O1  UNL     1      17.638 -20.917  13.650  1.00  0.00    -0.178 OA
HETATM   12  O2  UNL     1      18.883 -20.078  11.737  1.00  0.00    -0.178 OA
ENDBRANCH   9  10
ENDBRANCH   8   9
ENDBRANCH   1   8
TORSDOF 3
ENDMDL