MODEL 1
REMARK VINA RESULT: -6.260159659      0.000      0.000
REMARK  3 active torsions:
REMARK  status: ('A' for Active; 'I' for Inactive)
REMARK    1  A    between atoms: C2_2  and  C4_4
REMARK    2  A    between atoms: C4_4  and  N1_5
REMARK    3  A    between atoms: C7_11  and  C8_12
ROOT
HETATM    1  N1  UNL     1      16.957 -23.443  12.789  1.00  0.00    -0.349 N
HETATM    2  C5  UNL     1      17.578 -23.202  14.065  1.00  0.00     0.186 C
HETATM    3  N2  UNL     1      18.091 -24.108  15.013  1.00  0.00    -0.064 NA
HETATM    4  N3  UNL     1      17.614 -21.913  14.267  1.00  0.00    -0.363 N
ATOM      5  H3  UNL     1      18.003 -21.459  15.095  1.00  0.00     0.162 HD
HETATM    6  C6  UNL     1      17.020 -21.222  13.139  1.00  0.00     0.148 C
HETATM    7  C7  UNL     1      17.207 -22.255  12.054  1.00  0.00     0.108 C
ENDROOT
BRANCH   1   8
HETATM    8  C4  UNL     1      16.268 -24.657  12.471  1.00  0.00     0.130 C
BRANCH   8   9
HETATM    9  C2  UNL     1      17.140 -25.685  11.811  1.00  0.00    -0.005 C
HETATM   10  C1  UNL     1      16.337 -26.361  10.717  1.00  0.00     0.011 C
HETATM   11  C3  UNL     1      17.645 -26.743  12.733  1.00  0.00     0.011 C
ENDBRANCH   8   9
ENDBRANCH   1   8
BRANCH   7  12
HETATM   12  C8  UNL     1      16.506 -22.026  10.797  1.00  0.00     0.010 C
HETATM   13  C9  UNL     1      15.259 -22.750  10.450  1.00  0.00     0.007 C
HETATM   14  C10 UNL     1      14.753 -21.431   9.849  1.00  0.00     0.001 C
HETATM   15  C11 UNL     1      15.651 -20.754  10.898  1.00  0.00     0.007 C
ENDBRANCH   7  12
TORSDOF 3
ENDMDL