MODEL 3
REMARK VINA RESULT: -5.890456914      1.434      2.502
REMARK  3 active torsions:
REMARK  status: ('A' for Active; 'I' for Inactive)
REMARK    1  A    between atoms: C3_3  and  C4_4
REMARK    2  A    between atoms: C4_4  and  O1_6
REMARK    3  A    between atoms: O1_6  and  N1_7
ROOT
HETATM    1  C1  UNL     1      21.806 -26.570  15.937  1.00  0.00     0.012 C
HETATM    2  C2  UNL     1      20.678 -26.144  15.957  1.00  0.00    -0.115 C
HETATM    3  C3  UNL     1      19.314 -25.615  15.980  1.00  0.00     0.127 C
ENDROOT
BRANCH   3   4
HETATM    4  C4  UNL     1      18.639 -25.992  14.682  1.00  0.00     0.159 C
HETATM    5  C5  UNL     1      19.613 -25.863  13.531  1.00  0.00     0.043 C
BRANCH   4   6
HETATM    6  O1  UNL     1      17.535 -25.154  14.501  1.00  0.00    -0.273 OA
BRANCH   6   7
HETATM    7  N1  UNL     1      17.650 -23.798  14.661  1.00  0.00    -0.254 N
HETATM    8  C6  UNL     1      17.343 -22.961  13.712  1.00  0.00     0.097 C
HETATM    9  C7  UNL     1      16.875 -23.590  12.492  1.00  0.00     0.078 C
HETATM   10  N2  UNL     1      17.516 -21.606  14.034  1.00  0.00    -0.378 N
HETATM   11  C8  UNL     1      16.136 -22.707  11.541  1.00  0.00     0.007 C
HETATM   12  C9  UNL     1      16.926 -21.522  11.082  1.00  0.00     0.002 C
HETATM   13  C10 UNL     1      16.651 -20.403  12.072  1.00  0.00     0.020 C
HETATM   14  C11 UNL     1      17.685 -20.500  13.152  1.00  0.00     0.121 C
ATOM     15  H2  UNL     1      17.522 -21.384  15.029  1.00  0.00     0.160 HD
ATOM     16  H1  UNL     1      17.988 -23.433  15.551  1.00  0.00     0.195 HD
ENDBRANCH   6   7
ENDBRANCH   4   6
ENDBRANCH   3   4
TORSDOF 3
ENDMDL