MODEL 1
REMARK VINA RESULT: -6.174749173      0.000      0.000
REMARK  3 active torsions:
REMARK  status: ('A' for Active; 'I' for Inactive)
REMARK    1  A    between atoms: C5_5  and  O1_6
REMARK    2  A    between atoms: O1_6  and  C6_7
REMARK    3  A    between atoms: C6_7  and  C7_8
ROOT
HETATM    1  O1  UNL     1      16.490 -24.271  13.653  1.00  0.00    -0.379 OA
ENDROOT
BRANCH   1   2
HETATM    2  C5  UNL     1      16.876 -25.516  13.114  1.00  0.00     0.122 C
HETATM    3  C4  UNL     1      16.682 -25.432  11.637  1.00  0.00     0.032 C
HETATM    4  C3  UNL     1      16.654 -26.732  10.924  1.00  0.00     0.002 C
HETATM    5  C2  UNL     1      17.135 -27.902  11.734  1.00  0.00     0.000 C
HETATM    6  C1  UNL     1      18.553 -27.827  12.153  1.00  0.00     0.000 C
HETATM    7  C11 UNL     1      19.077 -26.436  12.356  1.00  0.00     0.002 C
HETATM    8  C10 UNL     1      18.337 -25.680  13.426  1.00  0.00     0.032 C
ENDBRANCH   1   2
BRANCH   1   9
HETATM    9  C6  UNL     1      17.620 -23.571  14.047  1.00  0.00     0.243 C
BRANCH   9  10
HETATM   10  C7  UNL     1      17.636 -22.264  13.339  1.00  0.00     0.097 C
HETATM   11  N1  UNL     1      17.313 -21.108  13.808  1.00  0.00    -0.377 N
HETATM   12  C8  UNL     1      17.460 -20.074  12.816  1.00  0.00     0.140 C
ATOM     13  H1  UNL     1      16.992 -20.946  14.763  1.00  0.00     0.160 HD
HETATM   14  C9  UNL     1      18.259 -20.725  11.719  1.00  0.00     0.140 C
HETATM   15  N2  UNL     1      18.037 -22.135  11.980  1.00  0.00    -0.377 N
ATOM     16  H2  UNL     1      18.148 -22.896  11.310  1.00  0.00     0.160 HD
ENDBRANCH   9  10
ENDBRANCH   1   9
TORSDOF 3
ENDMDL