MODEL 2
REMARK VINA RESULT: -6.214597345      0.857      1.406
REMARK  4 active torsions:
REMARK  status: ('A' for Active; 'I' for Inactive)
REMARK    1  A    between atoms: C3_3  and  C5_5
REMARK    2  A    between atoms: C5_5  and  C6_6
REMARK    3  A    between atoms: N1_7  and  N2_9
REMARK    4  A    between atoms: C9_12  and  O1_13
ROOT
HETATM    1  C1  UNL     1      17.069 -30.280  11.975  1.00  0.00     0.012 C
HETATM    2  C2  UNL     1      17.357 -29.142  11.695  1.00  0.00    -0.113 C
HETATM    3  C3  UNL     1      17.732 -27.760  11.346  1.00  0.00     0.065 C
HETATM    4  C4  UNL     1      18.940 -27.283  12.080  1.00  0.00     0.023 C
ENDROOT
BRANCH   3   5
HETATM    5  C5  UNL     1      16.559 -26.856  11.680  1.00  0.00     0.062 C
BRANCH   5   6
HETATM    6  C6  UNL     1      17.065 -25.501  11.989  1.00  0.00     0.081 C
HETATM    7  N1  UNL     1      16.456 -24.482  11.559  1.00  0.00    -0.318 N
ATOM      8  H1  UNL     1      15.619 -24.651  11.001  1.00  0.00     0.185 HD
BRANCH   7   9
HETATM    9  N2  UNL     1      16.805 -23.164  11.765  1.00  0.00    -0.328 N
HETATM   10  C7  UNL     1      18.009 -22.841  12.476  1.00  0.00     0.145 C
HETATM   11  C8  UNL     1      17.649 -21.676  13.410  1.00  0.00     0.053 C
HETATM   12  C9  UNL     1      17.438 -20.467  12.531  1.00  0.00     0.121 C
HETATM   13  C10 UNL     1      16.724 -20.769  11.260  1.00  0.00     0.053 C
HETATM   14  C11 UNL     1      15.983 -22.095  11.280  1.00  0.00     0.145 C
BRANCH  12  15
HETATM   15  O1  UNL     1      18.721 -19.952  12.237  1.00  0.00    -0.395 OA
ATOM     16  H1  UNL     1      18.627 -19.009  12.176  1.00  0.00     0.210 HD
ENDBRANCH  12  15
ENDBRANCH   7   9
ENDBRANCH   5   6
ENDBRANCH   3   5
TORSDOF 4
ENDMDL