MODEL 1
REMARK VINA RESULT: -5.992959256      0.000      0.000
REMARK  3 active torsions:
REMARK  status: ('A' for Active; 'I' for Inactive)
REMARK    1  A    between atoms: O1_2  and  C2_3
REMARK    2  A    between atoms: C5_6  and  C6_7
REMARK    3  A    between atoms: C6_7  and  C7_8
ROOT
HETATM    1  C7  UNL     1      17.201 -25.021  13.347  1.00  0.00     0.188 C
HETATM    2  C8  UNL     1      18.123 -26.118  13.805  1.00  0.00     0.033 C
HETATM    3  C9  UNL     1      18.286 -27.198  12.744  1.00  0.00     0.004 C
HETATM    4  C10 UNL     1      17.015 -27.450  11.982  1.00  0.00     0.027 C
HETATM    5  C11 UNL     1      16.543 -26.168  11.338  1.00  0.00     0.232 C
HETATM    6  N1  UNL     1      17.257 -25.033  11.873  1.00  0.00    -0.071 N
ATOM      7  H11 UNL     1      18.218 -24.999  11.533  1.00  0.00     0.277 HD
ATOM      8  H12 UNL     1      16.921 -24.155  11.476  1.00  0.00     0.277 HD
ENDROOT
BRANCH   1   9
HETATM    9  C6  UNL     1      17.669 -23.686  13.760  1.00  0.00     0.065 C
BRANCH   9  10
HETATM   10  C5  UNL     1      17.531 -22.532  12.893  1.00  0.00     0.126 C
HETATM   11  C4  UNL     1      17.649 -21.161  13.442  1.00  0.00     0.037 C
HETATM   12  C3  UNL     1      17.442 -20.357  12.139  1.00  0.00     0.063 C
HETATM   13  C2  UNL     1      16.626 -21.345  11.339  1.00  0.00     0.259 C
HETATM   14  O2  UNL     1      16.347 -22.436  12.171  1.00  0.00    -0.356 OA
BRANCH  13  15
HETATM   15  O1  UNL     1      15.463 -20.720  10.899  1.00  0.00    -0.366 OA
HETATM   16  C1  UNL     1      14.934 -21.385   9.794  1.00  0.00     0.204 C
ENDBRANCH  13  15
ENDBRANCH   9  10
ENDBRANCH   1   9
TORSDOF 3
ENDMDL