MODEL 1
REMARK VINA RESULT: -4.333965240      0.000      0.000
REMARK  1 active torsions:
REMARK  status: ('A' for Active; 'I' for Inactive)
REMARK    1  A    between atoms: N1_1  and  C1_5
ROOT
HETATM    1  C1  UNL     1     -17.736  15.513 -14.730  1.00  0.00     0.194 C
HETATM    2  C2  UNL     1     -18.760  15.052 -13.682  1.00  0.00     0.107 C
HETATM    3  S1  UNL     1     -19.140  16.712 -12.985  1.00  0.00    -0.157 SA
HETATM    4  C3  UNL     1     -17.494  17.459 -13.300  1.00  0.00     0.010 C
HETATM    5  C4  UNL     1     -16.957  17.914 -11.987  1.00  0.00     0.020 C
HETATM    6  C5  UNL     1     -16.917  19.414 -11.999  1.00  0.00     0.002 C
HETATM    7  C6  UNL     1     -17.889  19.763 -13.095  1.00  0.00     0.002 C
HETATM    8  C7  UNL     1     -17.569  18.677 -14.130  1.00  0.00     0.020 C
HETATM    9  C8  UNL     1     -16.758  16.308 -13.905  1.00  0.00     0.054 C
ENDROOT
BRANCH   1  10
HETATM   10  N1  UNL     1     -18.429  16.269 -15.714  1.00  0.00    -0.074 N
ATOM     11  H13 UNL     1     -19.134  16.887 -15.312  1.00  0.00     0.274 HD
ATOM     12  H12 UNL     1     -17.846  16.987 -16.143  1.00  0.00     0.274 HD
ATOM     13  H11 UNL     1     -18.817  15.616 -16.394  1.00  0.00     0.274 HD
ENDBRANCH   1  10
TORSDOF 1
ENDMDL