MODEL 2
REMARK VINA RESULT: -4.970962306      1.465      2.405
REMARK  3 active torsions:
REMARK  status: ('A' for Active; 'I' for Inactive)
REMARK    1  A    between atoms: C6_6  and  N1_7
REMARK    2  A    between atoms: N1_7  and  O1_8
REMARK    3  A    between atoms: N1_7  and  C7_10
ROOT
HETATM    1  C1  UNL     1     -18.723  15.939 -13.949  1.00  0.00     0.012 C
HETATM    2  C2  UNL     1     -17.905  16.264 -12.703  1.00  0.00     0.006 C
HETATM    3  C3  UNL     1     -16.867  15.163 -12.434  1.00  0.00     0.006 C
HETATM    4  C4  UNL     1     -15.762  15.907 -11.690  1.00  0.00     0.002 C
HETATM    5  C5  UNL     1     -16.160  17.368 -11.713  1.00  0.00     0.028 C
HETATM    6  C6  UNL     1     -16.954  17.391 -13.024  1.00  0.00     0.112 C
ENDROOT
BRANCH   6   7
HETATM    7  N1  UNL     1     -17.475  18.638 -13.329  1.00  0.00    -0.288 N
BRANCH   7   8
HETATM    8  O1  UNL     1     -17.351  18.943 -14.618  1.00  0.00    -0.291 OA
ATOM      9  H1  UNL     1     -18.107  18.679 -15.130  1.00  0.00     0.244 HD
ENDBRANCH   7   8
BRANCH   7  10
HETATM   10  C7  UNL     1     -17.304  19.743 -12.468  1.00  0.00     0.101 C
HETATM   11  C8  UNL     1     -18.660  20.289 -12.096  1.00  0.00     0.034 C
HETATM   12  C9  UNL     1     -16.633  20.902 -13.277  1.00  0.00     0.034 C
ENDBRANCH   7  10
ENDBRANCH   6   7
TORSDOF 3
ENDMDL