MODEL 5
REMARK VINA RESULT: -3.959130750      3.121      3.812
REMARK  2 active torsions:
REMARK  status: ('A' for Active; 'I' for Inactive)
REMARK    1  A    between atoms: C2_2  and  C3_3
REMARK    2  A    between atoms: C5_5  and  O1_6
ROOT
HETATM    1  C3  UNL     1     -18.621  14.183 -12.116  1.00  0.00     0.049 C
HETATM    2  C4  UNL     1     -19.477  14.934 -13.075  1.00  0.00     0.046 C
HETATM    3  C5  UNL     1     -18.798  15.352 -14.333  1.00  0.00     0.120 C
HETATM    4  C6  UNL     1     -17.866  16.520 -14.167  1.00  0.00     0.046 C
HETATM    5  C7  UNL     1     -16.781  16.306 -13.170  1.00  0.00     0.046 C
HETATM    6  C8  UNL     1     -16.792  17.485 -12.203  1.00  0.00     0.021 C
HETATM    7  S1  UNL     1     -16.942  14.805 -12.201  1.00  0.00    -0.160 SA
ENDROOT
BRANCH   1   8
HETATM    8  C2  UNL     1     -18.657  12.689 -12.341  1.00  0.00     0.011 C
HETATM    9  C1  UNL     1     -17.273  12.103 -12.133  1.00  0.00     0.006 C
ENDBRANCH   1   8
BRANCH   3  10
HETATM   10  O1  UNL     1     -18.120  14.338 -14.975  1.00  0.00    -0.396 OA
ATOM     11  H1  UNL     1     -18.569  13.988 -15.736  1.00  0.00     0.210 HD
ENDBRANCH   3  10
TORSDOF 2
ENDMDL