MODEL 2
REMARK VINA RESULT: -3.766363939      1.633      2.307
REMARK  1 active torsions:
REMARK  status: ('A' for Active; 'I' for Inactive)
REMARK    1  A    between atoms: C2_2  and  C4_4
ROOT
HETATM    1  C4  UNL     1     -17.381  18.524 -11.786  1.00  0.00     0.009 C
HETATM    2  C5  UNL     1     -17.883  17.577 -12.812  1.00  0.00     0.091 C
HETATM    3  S1  UNL     1     -17.550  18.320 -14.457  1.00  0.00    -0.097 SA
HETATM    4  S2  UNL     1     -17.586  20.361 -13.737  1.00  0.00    -0.097 SA
HETATM    5  C6  UNL     1     -17.928  19.885 -11.996  1.00  0.00     0.091 C
ENDROOT
BRANCH   1   6
HETATM    6  C2  UNL     1     -15.918  18.427 -11.539  1.00  0.00    -0.017 C
HETATM    7  C1  UNL     1     -15.517  17.027 -11.116  1.00  0.00     0.010 C
HETATM    8  C3  UNL     1     -15.334  19.398 -10.584  1.00  0.00     0.010 C
ENDBRANCH   1   6
TORSDOF 1
ENDMDL