MODEL 4
REMARK VINA RESULT: -4.788856509      1.027      1.107
REMARK  3 active torsions:
REMARK  status: ('A' for Active; 'I' for Inactive)
REMARK    1  A    between atoms: C2_2  and  C4_4
REMARK    2  A    between atoms: C5_5  and  C6_6
REMARK    3  A    between atoms: C8_8  and  C9_9
ROOT
HETATM    1  C6  UNL     1     -16.056  16.270 -12.368  1.00  0.00     0.070 A
HETATM    2  C7  UNL     1     -15.778  17.490 -11.506  1.00  0.00     0.024 A
HETATM    3  C8  UNL     1     -16.978  17.443 -12.335  1.00  0.00     0.012 A
ENDROOT
BRANCH   1   4
HETATM    4  C5  UNL     1     -16.475  15.029 -11.676  1.00  0.00    -0.101 C
HETATM    5  C4  UNL     1     -16.828  14.029 -11.100  1.00  0.00    -0.102 C
BRANCH   5   6
HETATM    6  C2  UNL     1     -17.266  12.831 -10.382  1.00  0.00     0.057 C
HETATM    7  C1  UNL     1     -17.558  11.747 -11.394  1.00  0.00     0.023 C
HETATM    8  C3  UNL     1     -18.529  13.107  -9.587  1.00  0.00     0.023 C
ENDBRANCH   5   6
ENDBRANCH   1   4
BRANCH   3   9
HETATM    9  C9  UNL     1     -17.145  18.213 -13.605  1.00  0.00     0.092 C
HETATM   10  S1  UNL     1     -17.746  19.891 -13.359  1.00  0.00    -0.097 SA
ENDBRANCH   3   9
TORSDOF 3
ENDMDL