MODEL 2
REMARK VINA RESULT: -4.396471827      1.593      1.961
REMARK  2 active torsions:
REMARK  status: ('A' for Active; 'I' for Inactive)
REMARK    1  A    between atoms: C2_2  and  C4_4
REMARK    2  A    between atoms: C8_9  and  N1_10
ROOT
HETATM    1  C4  UNL     1     -17.552  16.088 -12.915  1.00  0.00     0.035 C
HETATM    2  C5  UNL     1     -18.934  15.579 -12.677  1.00  0.00     0.030 C
HETATM    3  S1  UNL     1     -17.390  17.841 -12.376  1.00  0.00    -0.157 SA
HETATM    4  C6  UNL     1     -17.464  18.606 -14.049  1.00  0.00     0.077 C
HETATM    5  C7  UNL     1     -18.147  17.452 -14.798  1.00  0.00     0.044 C
HETATM    6  C8  UNL     1     -17.275  16.268 -14.409  1.00  0.00     0.202 C
ENDROOT
BRANCH   1   7
HETATM    7  C2  UNL     1     -16.470  15.256 -12.303  1.00  0.00    -0.002 C
HETATM    8  C1  UNL     1     -17.065  14.147 -11.475  1.00  0.00     0.011 C
HETATM    9  C3  UNL     1     -15.609  16.179 -11.450  1.00  0.00     0.011 C
ENDBRANCH   1   7
BRANCH   6  10
HETATM   10  N1  UNL     1     -17.627  15.082 -15.146  1.00  0.00    -0.073 N
ATOM     11  H13 UNL     1     -17.115  14.265 -14.811  1.00  0.00     0.274 HD
ATOM     12  H12 UNL     1     -18.574  14.772 -14.929  1.00  0.00     0.274 HD
ATOM     13  H11 UNL     1     -17.497  15.221 -16.148  1.00  0.00     0.274 HD
ENDBRANCH   6  10
TORSDOF 2
ENDMDL