MODEL 4
REMARK VINA RESULT: -4.907058284      1.138      3.774
REMARK  1 active torsions:
REMARK  status: ('A' for Active; 'I' for Inactive)
REMARK    1  A    between atoms: C2_2  and  C4_4
ROOT
HETATM    1  C4  UNL     1     -16.815  18.429 -12.878  1.00  0.00     0.223 C
HETATM    2  C5  UNL     1     -17.631  18.192 -14.087  1.00  0.00     0.111 C
HETATM    3  S1  UNL     1     -18.676  16.717 -13.763  1.00  0.00    -0.165 SA
HETATM    4  C6  UNL     1     -17.549  15.420 -13.192  1.00  0.00     0.106 C
HETATM    5  C7  UNL     1     -16.422  16.095 -12.451  1.00  0.00     0.192 C
HETATM    6  C8  UNL     1     -15.890  15.195 -11.347  1.00  0.00     0.041 C
HETATM    7  N1  UNL     1     -16.924  17.347 -11.931  1.00  0.00    -0.062 N
ATOM      8  H11 UNL     1     -17.884  17.247 -11.600  1.00  0.00     0.278 HD
ATOM      9  H12 UNL     1     -16.469  17.586 -11.050  1.00  0.00     0.278 HD
ENDROOT
BRANCH   1  10
HETATM   10  C2  UNL     1     -17.058  19.692 -12.179  1.00  0.00    -0.062 C
HETATM   11  C1  UNL     1     -16.200  20.096 -11.276  1.00  0.00     0.016 C
HETATM   12  C3  UNL     1     -18.233  20.575 -12.422  1.00  0.00     0.044 C
ENDBRANCH   1  10
TORSDOF 1
ENDMDL