MODEL 5
REMARK VINA RESULT: -4.944109203      1.232      3.078
REMARK  1 active torsions:
REMARK  status: ('A' for Active; 'I' for Inactive)
REMARK    1  A    between atoms: N1_2  and  C2_4
ROOT
HETATM    1  C2  UNL     1     -17.739  16.382 -13.350  1.00  0.00     0.028 C
HETATM    2  C3  UNL     1     -17.288  17.086 -12.073  1.00  0.00     0.031 C
HETATM    3  C4  UNL     1     -15.871  16.672 -11.796  1.00  0.00     0.002 C
HETATM    4  C5  UNL     1     -15.871  15.226 -11.383  1.00  0.00     0.001 C
HETATM    5  C6  UNL     1     -17.152  14.560 -11.857  1.00  0.00     0.007 C
HETATM    6  C7  UNL     1     -17.363  14.942 -13.319  1.00  0.00     0.013 C
HETATM    7  C8  UNL     1     -18.548  14.156 -13.804  1.00  0.00     0.007 C
HETATM    8  C9  UNL     1     -19.609  15.174 -14.204  1.00  0.00     0.003 C
HETATM    9  C10 UNL     1     -19.249  16.331 -13.313  1.00  0.00     0.031 C
ENDROOT
BRANCH   1  10
HETATM   10  N1  UNL     1     -17.209  17.151 -14.421  1.00  0.00    -0.416 N
HETATM   11  C1  UNL     1     -17.545  18.527 -14.466  1.00  0.00     0.140 C
ATOM     12  H1  UNL     1     -16.611  16.728 -15.131  1.00  0.00     0.153 HD
ENDBRANCH   1  10
TORSDOF 1
ENDMDL