MODEL 5
REMARK VINA RESULT: -5.598870081      1.382      5.070
REMARK  2 active torsions:
REMARK  status: ('A' for Active; 'I' for Inactive)
REMARK    1  A    between atoms: C4_4  and  N1_5
REMARK    2  A    between atoms: N1_5  and  C5_7
ROOT
HETATM    1  C1  UNL     1     -16.296  14.811 -11.139  1.00  0.00     0.020 C
HETATM    2  C2  UNL     1     -15.258  15.845 -11.420  1.00  0.00     0.009 C
HETATM    3  C3  UNL     1     -15.912  17.104 -11.941  1.00  0.00     0.076 C
HETATM    4  C4  UNL     1     -16.773  16.806 -13.117  1.00  0.00     0.073 C
HETATM    5  N2  UNL     1     -17.289  15.650 -13.231  1.00  0.00    -0.380 N
ATOM      6  H2  UNL     1     -17.872  15.492 -14.052  1.00  0.00     0.160 HD
HETATM    7  C10 UNL     1     -17.143  14.548 -12.335  1.00  0.00     0.121 C
ENDROOT
BRANCH   4   8
HETATM    8  N1  UNL     1     -16.988  17.831 -14.074  1.00  0.00    -0.375 N
ATOM      9  H1  UNL     1     -16.626  17.707 -15.020  1.00  0.00     0.161 HD
BRANCH   8  10
HETATM   10  C5  UNL     1     -17.709  19.052 -13.749  1.00  0.00     0.082 C
HETATM   11  C6  UNL     1     -16.794  20.223 -13.640  1.00  0.00     0.025 C
HETATM   12  C7  UNL     1     -17.239  21.057 -12.475  1.00  0.00     0.002 C
HETATM   13  C8  UNL     1     -18.591  20.479 -12.109  1.00  0.00     0.002 C
HETATM   14  C9  UNL     1     -18.341  18.989 -12.375  1.00  0.00     0.025 C
ENDBRANCH   8  10
ENDBRANCH   4   8
TORSDOF 2
ENDMDL