MODEL 4
REMARK VINA RESULT: -4.542882817      1.975      2.573
REMARK  1 active torsions:
REMARK  status: ('A' for Active; 'I' for Inactive)
REMARK    1  A    between atoms: S1_2  and  C2_3
ROOT
HETATM    1  C2  UNL     1     -18.125  14.701 -14.091  1.00  0.00     0.246 C
HETATM    2  C3  UNL     1     -17.980  14.800 -12.576  1.00  0.00     0.044 C
HETATM    3  C4  UNL     1     -16.567  14.872 -12.124  1.00  0.00     0.003 C
HETATM    4  C5  UNL     1     -15.982  16.205 -11.880  1.00  0.00     0.000 C
HETATM    5  C6  UNL     1     -16.853  17.391 -12.098  1.00  0.00     0.002 C
HETATM    6  C7  UNL     1     -16.825  17.744 -13.565  1.00  0.00     0.027 C
HETATM    7  C8  UNL     1     -18.039  17.108 -14.213  1.00  0.00     0.233 C
HETATM    8  N1  UNL     1     -17.609  15.855 -14.774  1.00  0.00    -0.062 N
ATOM      9  H11 UNL     1     -17.833  15.813 -15.768  1.00  0.00     0.278 HD
ATOM     10  H12 UNL     1     -16.591  15.816 -14.824  1.00  0.00     0.278 HD
ENDROOT
BRANCH   1  11
HETATM   11  S1  UNL     1     -19.845  14.484 -14.555  1.00  0.00    -0.141 SA
HETATM   12  C1  UNL     1     -20.249  15.069 -16.198  1.00  0.00     0.092 C
ENDBRANCH   1  11
TORSDOF 1
ENDMDL