MODEL 4
REMARK VINA RESULT: -4.849011168      2.421      4.824
REMARK  3 active torsions:
REMARK  status: ('A' for Active; 'I' for Inactive)
REMARK    1  A    between atoms: C2_2  and  N1_4
REMARK    2  A    between atoms: C2_2  and  N2_8
REMARK    3  A    between atoms: N2_8  and  C4_10
ROOT
HETATM    1  N2  UNL     1     -16.633  13.929   1.190  1.00  0.00    -0.387 N
ATOM      2  H2  UNL     1     -15.819  13.541   0.714  1.00  0.00     0.156 HD
ENDROOT
BRANCH   1   3
HETATM    3  C2  UNL     1     -17.583  13.026   1.655  1.00  0.00     0.184 C
HETATM    4  C1  UNL     1     -19.031  13.389   1.495  1.00  0.00     0.070 C
HETATM    5  C3  UNL     1     -17.401  12.562   3.087  1.00  0.00     0.070 C
BRANCH   3   6
HETATM    6  N1  UNL     1     -17.377  11.797   0.868  1.00  0.00    -0.054 N
ATOM      7  H13 UNL     1     -18.247  11.355   0.570  1.00  0.00     0.277 HD
ATOM      8  H12 UNL     1     -17.000  11.970  -0.064  1.00  0.00     0.277 HD
ATOM      9  H11 UNL     1     -16.788  11.190   1.437  1.00  0.00     0.277 HD
ENDBRANCH   3   6
ENDBRANCH   1   3
BRANCH   1  10
HETATM   10  C4  UNL     1     -16.691  15.301   1.316  1.00  0.00     0.079 C
HETATM   11  C5  UNL     1     -15.498  16.017   1.914  1.00  0.00     0.024 C
HETATM   12  C6  UNL     1     -15.806  17.424   2.290  1.00  0.00     0.002 C
HETATM   13  C7  UNL     1     -16.800  18.153   1.493  1.00  0.00     0.000 C
HETATM   14  C8  UNL     1     -17.662  17.383   0.564  1.00  0.00     0.002 C
HETATM   15  C9  UNL     1     -17.015  16.092   0.073  1.00  0.00     0.024 C
ENDBRANCH   1  10
TORSDOF 3
ENDMDL