MODEL 1
REMARK VINA RESULT: -4.401880861      0.000      0.000
REMARK  1 active torsions:
REMARK  status: ('A' for Active; 'I' for Inactive)
REMARK    1  A    between atoms: N1_2  and  C2_5
ROOT
HETATM    1  C2  UNL     1     -17.789  11.624   1.776  1.00  0.00     0.133 C
HETATM    2  C3  UNL     1     -18.512  10.601   2.606  1.00  0.00     0.044 C
HETATM    3  C4  UNL     1     -19.544  11.521   3.291  1.00  0.00    -0.011 C
HETATM    4  C5  UNL     1     -20.945  11.167   2.849  1.00  0.00     0.010 C
HETATM    5  C6  UNL     1     -19.111  12.828   2.705  1.00  0.00     0.002 C
HETATM    6  C7  UNL     1     -18.969  12.435   1.225  1.00  0.00     0.045 C
HETATM    7  C8  UNL     1     -17.599  12.760   2.726  1.00  0.00    -0.010 C
HETATM    8  C9  UNL     1     -16.959  14.007   2.156  1.00  0.00     0.018 C
HETATM    9  C10 UNL     1     -16.977  12.426   4.050  1.00  0.00     0.018 C
ENDROOT
BRANCH   1  10
HETATM   10  N1  UNL     1     -16.791  11.235   0.901  1.00  0.00    -0.069 N
HETATM   11  C1  UNL     1     -16.624   9.796   0.925  1.00  0.00     0.267 C
ATOM     12  H12 UNL     1     -15.913  11.721   1.087  1.00  0.00     0.277 HD
ATOM     13  H11 UNL     1     -16.960  11.581  -0.043  1.00  0.00     0.277 HD
ENDBRANCH   1  10
TORSDOF 1
ENDMDL