MODEL 2
REMARK VINA RESULT: -4.464076450      2.726      4.938
REMARK  2 active torsions:
REMARK  status: ('A' for Active; 'I' for Inactive)
REMARK    1  A    between atoms: C2_2  and  N1_3
REMARK    2  A    between atoms: C2_2  and  C3_7
ROOT
HETATM    1  C3  UNL     1     -17.560  15.490   0.511  1.00  0.00    -0.008 C
HETATM    2  C4  UNL     1     -16.417  16.368   0.880  1.00  0.00     0.016 C
HETATM    3  C5  UNL     1     -16.955  17.748   0.490  1.00  0.00    -0.013 C
HETATM    4  C6  UNL     1     -17.251  17.708  -0.972  1.00  0.00     0.010 C
HETATM    5  C7  UNL     1     -18.326  16.641  -1.050  1.00  0.00    -0.009 C
HETATM    6  C8  UNL     1     -17.641  15.271  -1.003  1.00  0.00     0.017 C
HETATM    7  C9  UNL     1     -18.764  16.359   0.369  1.00  0.00     0.001 C
HETATM    8  C10 UNL     1     -18.371  17.637   1.077  1.00  0.00     0.010 C
ENDROOT
BRANCH   1   9
HETATM    9  C2  UNL     1     -17.719  14.198   1.219  1.00  0.00     0.188 C
HETATM   10  C1  UNL     1     -16.772  13.985   2.366  1.00  0.00     0.040 C
BRANCH   9  11
HETATM   11  N1  UNL     1     -17.665  13.045   0.370  1.00  0.00    -0.075 N
ATOM     12  H13 UNL     1     -18.562  12.566   0.301  1.00  0.00     0.274 HD
ATOM     13  H12 UNL     1     -17.561  13.288  -0.615  1.00  0.00     0.274 HD
ATOM     14  H11 UNL     1     -16.919  12.435   0.706  1.00  0.00     0.274 HD
ENDBRANCH   9  11
ENDBRANCH   1   9
TORSDOF 2
ENDMDL