MODEL 3
REMARK VINA RESULT: -4.117919805      1.219      2.546
REMARK  2 active torsions:
REMARK  status: ('A' for Active; 'I' for Inactive)
REMARK    1  A    between atoms: C8_8  and  C9_9
REMARK    2  A    between atoms: C9_9  and  N1_10
ROOT
HETATM    1  C1  UNL     1     -16.990  11.122   1.119  1.00  0.00     0.016 C
HETATM    2  C2  UNL     1     -18.255  11.614   1.748  1.00  0.00    -0.035 C
HETATM    3  C3  UNL     1     -19.081  10.452   2.259  1.00  0.00     0.016 C
HETATM    4  C4  UNL     1     -19.103  12.523   0.893  1.00  0.00    -0.005 C
HETATM    5  C5  UNL     1     -18.264  13.496   0.093  1.00  0.00     0.005 C
HETATM    6  C6  UNL     1     -17.420  14.356   0.991  1.00  0.00     0.001 C
HETATM    7  C7  UNL     1     -17.059  13.702   2.290  1.00  0.00     0.012 C
HETATM    8  C8  UNL     1     -18.121  12.750   2.717  1.00  0.00    -0.009 C
HETATM    9  C10 UNL     1     -19.470  13.260   2.190  1.00  0.00     0.017 C
ENDROOT
BRANCH   8  10
HETATM   10  C9  UNL     1     -18.227  12.422   4.162  1.00  0.00     0.239 C
BRANCH  10  11
HETATM   11  N1  UNL     1     -16.940  12.293   4.820  1.00  0.00    -0.079 N
ATOM     12  H13 UNL     1     -16.734  11.315   5.024  1.00  0.00     0.274 HD
ATOM     13  H12 UNL     1     -16.180  12.494   4.170  1.00  0.00     0.274 HD
ATOM     14  H11 UNL     1     -16.856  12.864   5.661  1.00  0.00     0.274 HD
ENDBRANCH  10  11
ENDBRANCH   8  10
TORSDOF 2
ENDMDL