MODEL 3
REMARK VINA RESULT: -4.507776860      1.161      2.225
REMARK  3 active torsions:
REMARK  status: ('A' for Active; 'I' for Inactive)
REMARK    1  A    between atoms: C1_4  and  C2_5
REMARK    2  A    between atoms: C2_5  and  C3_6
REMARK    3  A    between atoms: C10_13  and  N2_14
ROOT
HETATM    1  C3  UNL     1     -18.681  12.961   1.056  1.00  0.00    -0.005 C
HETATM    2  C4  UNL     1     -19.841  12.649   1.976  1.00  0.00     0.012 C
HETATM    3  C5  UNL     1     -19.275  11.867   3.147  1.00  0.00     0.016 C
HETATM    4  C6  UNL     1     -18.546  10.677   2.568  1.00  0.00     0.007 C
HETATM    5  C7  UNL     1     -17.295  11.087   1.843  1.00  0.00     0.005 C
HETATM    6  C8  UNL     1     -17.358  12.600   1.662  1.00  0.00    -0.008 C
HETATM    7  C9  UNL     1     -17.189  13.181   3.059  1.00  0.00     0.038 C
HETATM    8  C10 UNL     1     -18.382  12.794   3.912  1.00  0.00     0.188 C
ENDROOT
BRANCH   1   9
HETATM    9  C2  UNL     1     -18.674  14.439   0.668  1.00  0.00     0.049 C
BRANCH   9  10
HETATM   10  C1  UNL     1     -18.610  14.512  -0.816  1.00  0.00     0.053 C
HETATM   11  N1  UNL     1     -17.609  15.070  -1.377  1.00  0.00    -0.411 N
ATOM     12  H12 UNL     1     -16.865  15.459  -0.797  1.00  0.00     0.155 HD
ATOM     13  H11 UNL     1     -17.565  15.120  -2.395  1.00  0.00     0.155 HD
ENDBRANCH   9  10
ENDBRANCH   1   9
BRANCH   8  14
HETATM   14  N2  UNL     1     -17.978  12.267   5.192  1.00  0.00    -0.075 N
ATOM     15  H23 UNL     1     -16.984  12.429   5.353  1.00  0.00     0.274 HD
ATOM     16  H22 UNL     1     -18.365  12.826   5.952  1.00  0.00     0.274 HD
ATOM     17  H21 UNL     1     -18.209  11.281   5.312  1.00  0.00     0.274 HD
ENDBRANCH   8  14
TORSDOF 3
ENDMDL