MODEL 2
REMARK VINA RESULT: -4.935484820      1.223      1.546
REMARK  1 active torsions:
REMARK  status: ('A' for Active; 'I' for Inactive)
REMARK    1  A    between atoms: N1_2  and  C2_5
ROOT
HETATM    1  C2  UNL     1     -16.475  16.760   1.042  1.00  0.00     0.186 C
HETATM    2  C3  UNL     1     -15.752  15.877   2.013  1.00  0.00     0.033 C
HETATM    3  C4  UNL     1     -16.505  14.585   2.311  1.00  0.00     0.003 C
HETATM    4  C5  UNL     1     -16.885  14.048   0.935  1.00  0.00     0.010 C
HETATM    5  C6  UNL     1     -18.050  14.874   0.467  1.00  0.00    -0.038 C
HETATM    6  C7  UNL     1     -18.452  14.470  -0.936  1.00  0.00     0.010 C
HETATM    7  C8  UNL     1     -19.905  14.576  -0.497  1.00  0.00     0.002 C
HETATM    8  C9  UNL     1     -19.407  14.404   0.925  1.00  0.00     0.010 C
HETATM    9  C10 UNL     1     -17.866  16.330   0.712  1.00  0.00     0.042 C
ENDROOT
BRANCH   1  10
HETATM   10  N1  UNL     1     -16.560  18.111   1.594  1.00  0.00    -0.075 N
HETATM   11  C1  UNL     1     -17.809  18.755   1.291  1.00  0.00     0.267 C
ATOM     12  H12 UNL     1     -15.770  18.680   1.289  1.00  0.00     0.277 HD
ATOM     13  H11 UNL     1     -16.382  18.108   2.598  1.00  0.00     0.277 HD
ENDBRANCH   1  10
TORSDOF 1
ENDMDL