MODEL 2
REMARK VINA RESULT: -5.123787130      1.942      4.559
REMARK  2 active torsions:
REMARK  status: ('A' for Active; 'I' for Inactive)
REMARK    1  A    between atoms: C6_6  and  N1_7
REMARK    2  A    between atoms: C9_13  and  N2_14
ROOT
HETATM    1  C1  UNL     1     -17.382  12.261   2.185  1.00  0.00     0.012 C
HETATM    2  C2  UNL     1     -17.101  13.382   1.292  1.00  0.00     0.013 C
HETATM    3  C3  UNL     1     -16.686  14.668   2.010  1.00  0.00     0.011 C
HETATM    4  C4  UNL     1     -16.512  15.565   0.795  1.00  0.00    -0.006 C
HETATM    5  C5  UNL     1     -16.691  17.008   1.094  1.00  0.00     0.037 C
HETATM    6  C6  UNL     1     -17.702  17.506   0.094  1.00  0.00     0.184 C
HETATM    7  C7  UNL     1     -18.550  16.277  -0.268  1.00  0.00     0.039 C
HETATM    8  C8  UNL     1     -17.660  15.136  -0.107  1.00  0.00     0.022 C
HETATM    9  C9  UNL     1     -18.212  13.874   0.434  1.00  0.00     0.191 C
ENDROOT
BRANCH   6  10
HETATM   10  N1  UNL     1     -17.113  17.993  -1.113  1.00  0.00    -0.075 N
ATOM     11  H13 UNL     1     -17.154  19.011  -1.151  1.00  0.00     0.274 HD
ATOM     12  H12 UNL     1     -16.101  17.866  -1.099  1.00  0.00     0.274 HD
ATOM     13  H11 UNL     1     -17.518  17.583  -1.954  1.00  0.00     0.274 HD
ENDBRANCH   6  10
BRANCH   9  14
HETATM   14  N2  UNL     1     -19.419  14.013   1.202  1.00  0.00    -0.074 N
ATOM     15  H23 UNL     1     -19.887  13.117   1.338  1.00  0.00     0.274 HD
ATOM     16  H22 UNL     1     -19.223  14.232   2.179  1.00  0.00     0.274 HD
ATOM     17  H21 UNL     1     -20.037  14.703   0.775  1.00  0.00     0.274 HD
ENDBRANCH   9  14
TORSDOF 2
ENDMDL