MODEL 3
REMARK VINA RESULT: -4.371226456      1.358      2.528
REMARK  1 active torsions:
REMARK  status: ('A' for Active; 'I' for Inactive)
REMARK    1  A    between atoms: N1_1  and  C1_5
ROOT
HETATM    1  C1  UNL     1     -17.377  10.982   2.483  1.00  0.00     0.191 C
HETATM    2  C2  UNL     1     -17.503  12.285   3.211  1.00  0.00     0.017 C
HETATM    3  C3  UNL     1     -18.819  12.474   3.899  1.00  0.00     0.011 C
HETATM    4  C4  UNL     1     -19.928  12.417   2.886  1.00  0.00    -0.013 C
HETATM    5  C5  UNL     1     -19.754  13.427   1.771  1.00  0.00     0.009 C
HETATM    6  C6  UNL     1     -18.406  13.211   1.107  1.00  0.00    -0.013 C
HETATM    7  C7  UNL     1     -17.352  13.392   2.158  1.00  0.00     0.011 C
HETATM    8  C8  UNL     1     -18.420  11.852   0.483  1.00  0.00     0.011 C
HETATM    9  C9  UNL     1     -18.570  10.788   1.581  1.00  0.00     0.017 C
HETATM   10  C10 UNL     1     -19.879  11.020   2.262  1.00  0.00     0.011 C
ENDROOT
BRANCH   1  11
HETATM   11  N1  UNL     1     -17.098   9.858   3.322  1.00  0.00    -0.074 N
ATOM     12  H13 UNL     1     -16.150   9.518   3.158  1.00  0.00     0.274 HD
ATOM     13  H12 UNL     1     -17.011  10.154   4.294  1.00  0.00     0.274 HD
ATOM     14  H11 UNL     1     -17.768   9.094   3.241  1.00  0.00     0.274 HD
ENDBRANCH   1  11
TORSDOF 1
ENDMDL