MODEL 1
REMARK VINA RESULT: -4.721232844      0.000      0.000
REMARK  1 active torsions:
REMARK  status: ('A' for Active; 'I' for Inactive)
REMARK    1  A    between atoms: N1_1  and  C1_5
ROOT
HETATM    1  C1  UNL     1     -17.440  12.240   3.777  1.00  0.00     0.124 C
HETATM    2  C2  UNL     1     -18.806  12.525   4.253  1.00  0.00     0.039 C
HETATM    3  C3  UNL     1     -19.930  12.070   3.420  1.00  0.00     0.007 C
HETATM    4  C4  UNL     1     -19.731  12.153   1.945  1.00  0.00    -0.014 C
HETATM    5  C5  UNL     1     -19.053  13.421   1.587  1.00  0.00     0.009 C
HETATM    6  C6  UNL     1     -17.573  13.388   1.568  1.00  0.00    -0.012 C
HETATM    7  C7  UNL     1     -17.016  12.146   0.882  1.00  0.00     0.009 C
HETATM    8  C8  UNL     1     -17.581  10.957   1.619  1.00  0.00    -0.012 C
HETATM    9  C9  UNL     1     -19.070  10.912   1.432  1.00  0.00     0.009 C
HETATM   10  C10 UNL     1     -17.249  10.946   3.065  1.00  0.00     0.043 C
HETATM   11  C11 UNL     1     -16.949  13.402   2.951  1.00  0.00     0.043 C
ENDROOT
BRANCH   1  12
HETATM   12  N1  UNL     1     -16.573  12.195   4.969  1.00  0.00    -0.070 N
ATOM     13  H13 UNL     1     -15.841  12.904   4.961  1.00  0.00     0.275 HD
ATOM     14  H12 UNL     1     -17.043  12.506   5.820  1.00  0.00     0.275 HD
ATOM     15  H11 UNL     1     -16.212  11.244   5.035  1.00  0.00     0.275 HD
ENDBRANCH   1  12
TORSDOF 1
ENDMDL