MODEL 2
REMARK VINA RESULT: -4.643890325      3.941      5.645
REMARK  1 active torsions:
REMARK  status: ('A' for Active; 'I' for Inactive)
REMARK    1  A    between atoms: N1_2  and  C2_4
ROOT
HETATM    1  C2  UNL     1     -17.869  13.200   1.318  1.00  0.00     0.025 C
HETATM    2  C3  UNL     1     -19.323  13.325   1.694  1.00  0.00     0.031 C
HETATM    3  C4  UNL     1     -19.628  12.684   3.025  1.00  0.00     0.007 C
HETATM    4  C5  UNL     1     -18.404  11.896   3.470  1.00  0.00    -0.011 C
HETATM    5  C6  UNL     1     -17.307  12.883   3.745  1.00  0.00     0.007 C
HETATM    6  C7  UNL     1     -17.017  13.639   2.500  1.00  0.00     0.031 C
HETATM    7  C8  UNL     1     -18.071  10.964   2.331  1.00  0.00    -0.012 C
HETATM    8  C9  UNL     1     -17.032   9.918   2.734  1.00  0.00     0.010 C
HETATM    9  C10 UNL     1     -17.633  11.714   1.097  1.00  0.00     0.035 C
ENDROOT
BRANCH   1  10
HETATM   10  N1  UNL     1     -17.487  14.002   0.222  1.00  0.00    -0.417 N
HETATM   11  C1  UNL     1     -17.438  15.402   0.358  1.00  0.00     0.140 C
ATOM     12  H1  UNL     1     -17.246  13.568  -0.668  1.00  0.00     0.153 HD
ENDBRANCH   1  10
TORSDOF 1
ENDMDL