MODEL 2
REMARK VINA RESULT: -4.559041679      1.357      2.817
REMARK  1 active torsions:
REMARK  status: ('A' for Active; 'I' for Inactive)
REMARK    1  A    between atoms: C4_7  and  O3_9
ROOT
HETATM    1  C1  UNL     1      27.283 -23.343   1.882  1.00  0.00     0.045 C
HETATM    2  C2  UNL     1      28.214 -22.276   1.357  1.00  0.00     0.181 C
HETATM    3  O1  UNL     1      28.687 -22.676   0.096  1.00  0.00    -0.369 OA
HETATM    4  C3  UNL     1      29.966 -22.086  -0.038  1.00  0.00     0.273 C
HETATM    5  S1  UNL     1      29.628 -20.285  -0.164  1.00  0.00     0.018 SA
HETATM    6  O2  UNL     1      27.944 -20.152   0.237  1.00  0.00    -0.277 OA
HETATM    7  C4  UNL     1      27.665 -20.910   1.390  1.00  0.00     0.197 C
HETATM    8  C5  UNL     1      26.174 -20.827   1.590  1.00  0.00     0.082 C
ENDROOT
BRANCH   7   9
HETATM    9  O3  UNL     1      28.246 -20.178   2.453  1.00  0.00    -0.363 OA
ATOM     10  H3  UNL     1      28.459 -20.761   3.172  1.00  0.00     0.213 HD
ENDBRANCH   7   9
TORSDOF 1
ENDMDL