MODEL 4
REMARK VINA RESULT: -4.274362258      1.941      2.022
REMARK  3 active torsions:
REMARK  status: ('A' for Active; 'I' for Inactive)
REMARK    1  A    between atoms: C2_2  and  O1_6
REMARK    2  A    between atoms: O1_6  and  C3_7
REMARK       I    between atoms: C3_7  and  N2_9
REMARK    3  A    between atoms: N2_9  and  C4_11
ROOT
HETATM    1  O1  UNL     1      30.025 -19.148   2.099  1.00  0.00    -0.248 OA
ENDROOT
BRANCH   1   2
HETATM    2  C2  UNL     1      31.136 -19.381   1.304  1.00  0.00     0.131 C
HETATM    3  C1  UNL     1      32.494 -19.176   1.856  1.00  0.00     0.098 C
HETATM    4  N1  UNL     1      30.959 -19.773   0.101  1.00  0.00    -0.304 N
HETATM    5  S1  UNL     1      32.251 -20.109  -1.029  1.00  0.00     0.044 SA
ATOM      6  H1  UNL     1      30.000 -19.897  -0.222  1.00  0.00     0.176 HD
ENDBRANCH   1   2
BRANCH   1   7
HETATM    7  C3  UNL     1      28.993 -20.070   2.225  1.00  0.00     0.373 C
HETATM    8  O2  UNL     1      29.299 -21.268   2.329  1.00  0.00    -0.238 OA
HETATM    9  N2  UNL     1      27.667 -19.569   2.225  1.00  0.00    -0.280 N
ATOM     10  H2  UNL     1      27.476 -18.617   2.538  1.00  0.00     0.173 HD
BRANCH   9  11
HETATM   11  C4  UNL     1      26.720 -20.316   1.830  1.00  0.00     0.357 C
HETATM   12  O3  UNL     1      25.876 -21.196   1.820  1.00  0.00    -0.283 OA
ENDBRANCH   9  11
ENDBRANCH   1   7
TORSDOF 3
ENDMDL