MODEL 5
REMARK VINA RESULT: -4.294831830      2.376      3.206
REMARK  1 active torsions:
REMARK  status: ('A' for Active; 'I' for Inactive)
REMARK    1  A    between atoms: O1_1  and  C1_3
ROOT
HETATM    1  C1  UNL     1      27.817 -22.359   1.334  1.00  0.00     0.288 C
HETATM    2  O2  UNL     1      26.731 -21.735   1.994  1.00  0.00    -0.358 OA
HETATM    3  C2  UNL     1      26.875 -20.377   1.662  1.00  0.00     0.188 C
HETATM    4  C3  UNL     1      28.160 -19.790   2.107  1.00  0.00     0.150 C
HETATM    5  N1  UNL     1      29.294 -20.641   2.071  1.00  0.00    -0.160 NA
HETATM    6  O3  UNL     1      29.800 -20.859   0.845  1.00  0.00    -0.225 OA
HETATM    7  S1  UNL     1      30.612 -22.265   1.432  1.00  0.00     0.040 SA
HETATM    8  C4  UNL     1      29.015 -22.042   2.210  1.00  0.00     0.233 C
ENDROOT
BRANCH   1   9
HETATM    9  O1  UNL     1      27.618 -23.700   1.143  1.00  0.00    -0.369 OA
ATOM     10  H1  UNL     1      28.127 -24.045   0.419  1.00  0.00     0.212 HD
ENDBRANCH   1   9
TORSDOF 1
ENDMDL