MODEL 4
REMARK VINA RESULT: -4.528600209      1.359      1.741
REMARK  0 active torsions:
REMARK  status: ('A' for Active; 'I' for Inactive)
ROOT
HETATM    1  C1  UNL     1      27.336 -23.596   1.774  1.00  0.00     0.048 C
HETATM    2  C2  UNL     1      28.103 -22.315   1.421  1.00  0.00     0.081 C
HETATM    3  C3  UNL     1      27.297 -21.127   1.774  1.00  0.00     0.048 C
HETATM    4  O1  UNL     1      28.448 -22.291   0.053  1.00  0.00    -0.359 OA
HETATM    5  C4  UNL     1      29.775 -22.070   0.314  1.00  0.00     0.242 C
HETATM    6  S1  UNL     1      30.238 -20.294   0.453  1.00  0.00     0.054 SA
HETATM    7  O2  UNL     1      30.228 -20.254   2.191  1.00  0.00    -0.206 OA
HETATM    8  N1  UNL     1      30.150 -21.487   2.606  1.00  0.00    -0.278 N
ATOM      9  H1  UNL     1      30.531 -21.777   3.506  1.00  0.00     0.189 HD
HETATM   10  C5  UNL     1      29.527 -22.376   1.760  1.00  0.00     0.182 C
ENDROOT
TORSDOF 0
ENDMDL