MODEL 2
REMARK VINA RESULT: -4.623194455      0.076      1.346
REMARK  4 active torsions:
REMARK  status: ('A' for Active; 'I' for Inactive)
REMARK    1  A    between atoms: O1_2  and  C2_3
REMARK    2  A    between atoms: C2_3  and  O3_5
REMARK    3  A    between atoms: O3_5  and  N1_6
REMARK    4  A    between atoms: N1_6  and  C3_7
ROOT
HETATM    1  O3  UNL     1      28.574 -21.570  -0.587  1.00  0.00    -0.182 OA
ENDROOT
BRANCH   1   2
HETATM    2  C2  UNL     1      29.897 -21.214  -0.871  1.00  0.00     0.424 C
HETATM    3  O2  UNL     1      30.658 -22.037  -1.461  1.00  0.00    -0.228 OA
BRANCH   2   4
HETATM    4  O1  UNL     1      30.420 -19.985  -0.533  1.00  0.00    -0.302 OA
HETATM    5  C1  UNL     1      31.569 -19.920   0.292  1.00  0.00     0.215 C
ENDBRANCH   2   4
ENDBRANCH   1   2
BRANCH   1   6
HETATM    6  N1  UNL     1      27.783 -20.606  -0.032  1.00  0.00    -0.080 NA
BRANCH   6   7
HETATM    7  C3  UNL     1      27.385 -20.879   1.310  1.00  0.00     0.047 C
HETATM    8  C4  UNL     1      27.673 -22.316   1.731  1.00  0.00     0.035 C
HETATM    9  C5  UNL     1      28.240 -20.002   2.224  1.00  0.00     0.035 C
HETATM   10  C6  UNL     1      25.945 -20.567   1.589  1.00  0.00     0.035 C
ENDBRANCH   6   7
ENDBRANCH   1   6
TORSDOF 4
ENDMDL