MODEL 5
REMARK VINA RESULT: -4.298918585      1.374      3.503
REMARK  1 active torsions:
REMARK  status: ('A' for Active; 'I' for Inactive)
REMARK    1  A    between atoms: C3_5  and  O2_6
ROOT
HETATM    1  O1  UNL     1      31.101 -19.667  -0.512  1.00  0.00    -0.263 OA
HETATM    2  C1  UNL     1      30.145 -20.401  -0.085  1.00  0.00     0.286 C
HETATM    3  C2  UNL     1      30.458 -21.057   1.186  1.00  0.00     0.189 C
HETATM    4  S1  UNL     1      29.108 -21.877   1.975  1.00  0.00    -0.126 SA
HETATM    5  C3  UNL     1      27.547 -21.047   1.934  1.00  0.00     0.196 C
HETATM    6  C4  UNL     1      27.450 -20.015   0.849  1.00  0.00     0.185 C
HETATM    7  N1  UNL     1      27.702 -20.686  -0.424  1.00  0.00    -0.088 NA
HETATM    8  O3  UNL     1      29.003 -20.473  -0.841  1.00  0.00    -0.206 OA
ENDROOT
BRANCH   5   9
HETATM    9  O2  UNL     1      26.535 -22.019   1.781  1.00  0.00    -0.384 OA
ATOM     10  H2  UNL     1      25.712 -21.570   1.631  1.00  0.00     0.211 HD
ENDBRANCH   5   9
TORSDOF 1
ENDMDL