MODEL 1
REMARK VINA RESULT: -3.803755700      0.000      0.000
REMARK  3 active torsions:
REMARK  status: ('A' for Active; 'I' for Inactive)
REMARK    1  A    between atoms: S1_2  and  C2_3
REMARK    2  A    between atoms: C2_3  and  N1_5
REMARK    3  A    between atoms: N1_5  and  O1_7
ROOT
HETATM    1  O1  UNL     1      29.640 -19.403   2.987  1.00  0.00    -0.158 OA
HETATM    2  C3  UNL     1      30.637 -18.773   2.260  1.00  0.00     0.253 C
HETATM    3  N2  UNL     1      31.467 -18.260   1.640  1.00  0.00    -0.162 NA
ENDROOT
BRANCH   1   4
HETATM    4  N1  UNL     1      28.393 -19.387   2.446  1.00  0.00    -0.232 N
ATOM      5  H1  UNL     1      27.876 -18.509   2.410  1.00  0.00     0.197 HD
BRANCH   4   6
HETATM    6  C2  UNL     1      27.799 -20.559   1.935  1.00  0.00     0.159 C
HETATM    7  S2  UNL     1      26.223 -20.504   1.507  1.00  0.00    -0.051 SA
BRANCH   6   8
HETATM    8  S1  UNL     1      28.771 -22.039   1.776  1.00  0.00    -0.103 SA
HETATM    9  C1  UNL     1      27.631 -23.439   1.660  1.00  0.00     0.098 C
ENDBRANCH   6   8
ENDBRANCH   4   6
ENDBRANCH   1   4
TORSDOF 3
ENDMDL