MODEL 3
REMARK VINA RESULT: -4.323700088      2.350      2.658
REMARK  1 active torsions:
REMARK  status: ('A' for Active; 'I' for Inactive)
REMARK    1  A    between atoms: C4_7  and  O2_8
ROOT
HETATM    1  N1  UNL     1      31.348 -22.329   3.425  1.00  0.00    -0.196 NA
HETATM    2  C1  UNL     1      30.795 -22.414   2.396  1.00  0.00     0.081 C
HETATM    3  C2  UNL     1      30.121 -22.502   1.105  1.00  0.00     0.234 C
HETATM    4  S1  UNL     1      30.684 -21.136   0.006  1.00  0.00    -0.117 SA
HETATM    5  C3  UNL     1      28.990 -20.500  -0.348  1.00  0.00     0.248 C
HETATM    6  O1  UNL     1      28.246 -21.627  -0.002  1.00  0.00    -0.332 OA
HETATM    7  C4  UNL     1      28.649 -22.073   1.224  1.00  0.00     0.281 C
HETATM    8  C5  UNL     1      27.813 -23.221   1.576  1.00  0.00     0.130 C
HETATM    9  N2  UNL     1      27.139 -24.136   1.839  1.00  0.00    -0.191 NA
ENDROOT
BRANCH   7  10
HETATM   10  O2  UNL     1      28.528 -21.115   2.240  1.00  0.00    -0.352 OA
ATOM     11  H2  UNL     1      27.841 -20.501   2.011  1.00  0.00     0.214 HD
ENDBRANCH   7  10
TORSDOF 1
ENDMDL