MODEL 5
REMARK VINA RESULT: -4.318877585      2.277      2.766
REMARK  0 active torsions:
REMARK  status: ('A' for Active; 'I' for Inactive)
ROOT
HETATM    1  C1  UNL     1      29.883 -20.435   0.202  1.00  0.00     0.152 C
HETATM    2  N1  UNL     1      30.108 -21.830   0.286  1.00  0.00    -0.362 N
ATOM      3  H1  UNL     1      30.570 -22.351  -0.460  1.00  0.00     0.167 HD
HETATM    4  S1  UNL     1      29.548 -22.595   1.736  1.00  0.00    -0.043 SA
HETATM    5  C2  UNL     1      27.716 -22.607   1.683  1.00  0.00     0.219 C
HETATM    6  N2  UNL     1      27.218 -21.292   1.924  1.00  0.00    -0.163 NA
HETATM    7  C3  UNL     1      28.239 -20.279   2.020  1.00  0.00     0.148 C
HETATM    8  C4  UNL     1      28.519 -19.972   0.575  1.00  0.00     0.142 C
HETATM    9  N3  UNL     1      27.452 -20.607  -0.125  1.00  0.00    -0.071 NA
HETATM   10  O1  UNL     1      26.523 -20.892   0.841  1.00  0.00    -0.189 OA
ENDROOT
TORSDOF 0
ENDMDL