MODEL 5
REMARK VINA RESULT: -4.719896282      1.741      2.016
REMARK  0 active torsions:
REMARK  status: ('A' for Active; 'I' for Inactive)
ROOT
HETATM    1  O1  UNL     1      28.949 -21.874  -0.661  1.00  0.00    -0.260 OA
HETATM    2  C1  UNL     1      28.491 -21.148   0.248  1.00  0.00     0.323 C
HETATM    3  O2  UNL     1      27.170 -20.747   0.343  1.00  0.00    -0.317 OA
HETATM    4  C2  UNL     1      26.855 -20.317   1.650  1.00  0.00     0.184 C
HETATM    5  C3  UNL     1      28.175 -19.822   2.169  1.00  0.00     0.107 C
HETATM    6  C4  UNL     1      29.226 -20.577   1.381  1.00  0.00     0.316 C
HETATM    7  N1  UNL     1      30.259 -19.718   0.872  1.00  0.00    -0.031 N
ATOM      8  H11 UNL     1      30.121 -18.731   1.088  1.00  0.00     0.281 HD
ATOM      9  H12 UNL     1      30.252 -19.617  -0.143  1.00  0.00     0.281 HD
HETATM   10  C5  UNL     1      31.500 -20.274   1.405  1.00  0.00     0.262 C
HETATM   11  C6  UNL     1      30.960 -20.903   2.696  1.00  0.00     0.199 C
HETATM   12  O3  UNL     1      29.806 -21.510   2.207  1.00  0.00    -0.345 OA
ENDROOT
TORSDOF 0
ENDMDL