MODEL 3
REMARK VINA RESULT: -5.351102389      2.634      3.195
REMARK  1 active torsions:
REMARK  status: ('A' for Active; 'I' for Inactive)
REMARK    1  A    between atoms: N1_1  and  N2_4
ROOT
HETATM    1  N2  UNL     1      27.927 -20.136   0.031  1.00  0.00    -0.313 N
ATOM      2  H2  UNL     1      27.987 -20.325  -0.970  1.00  0.00     0.185 HD
HETATM    3  C1  UNL     1      28.961 -20.190   0.762  1.00  0.00     0.037 C
HETATM    4  C2  UNL     1      28.992 -19.932   2.229  1.00  0.00     0.091 C
HETATM    5  C3  UNL     1      30.496 -19.787   2.528  1.00  0.00     0.165 C
HETATM    6  C4  UNL     1      31.041 -21.196   2.406  1.00  0.00     0.038 C
HETATM    7  C5  UNL     1      30.783 -21.727   1.021  1.00  0.00     0.044 C
HETATM    8  C6  UNL     1      30.291 -20.531   0.188  1.00  0.00     0.207 C
HETATM    9  O1  UNL     1      31.227 -19.525   0.422  1.00  0.00    -0.229 OA
HETATM   10  O2  UNL     1      30.972 -18.940   1.543  1.00  0.00    -0.234 OA
ENDROOT
BRANCH   1  11
HETATM   11  N1  UNL     1      26.692 -19.807   0.628  1.00  0.00    -0.345 N
ATOM     12  H12 UNL     1      26.139 -20.537   1.076  1.00  0.00     0.176 HD
ATOM     13  H11 UNL     1      26.376 -18.838   0.597  1.00  0.00     0.176 HD
ENDBRANCH   1  11
TORSDOF 1
ENDMDL