MODEL 5
REMARK VINA RESULT: -5.377563320      1.707      1.793
REMARK  1 active torsions:
REMARK  status: ('A' for Active; 'I' for Inactive)
REMARK    1  A    between atoms: C3_7  and  N3_8
ROOT
HETATM    1  N1  UNL     1      27.731 -23.887   1.973  1.00  0.00    -0.195 NA
HETATM    2  C1  UNL     1      28.381 -23.005   1.596  1.00  0.00     0.093 C
HETATM    3  C2  UNL     1      29.211 -21.912   1.110  1.00  0.00     0.302 C
HETATM    4  N2  UNL     1      29.310 -21.908  -0.347  1.00  0.00    -0.033 N
ATOM      5  H21 UNL     1      28.535 -21.434  -0.811  1.00  0.00     0.281 HD
ATOM      6  H22 UNL     1      29.159 -22.823  -0.773  1.00  0.00     0.281 HD
HETATM    7  C3  UNL     1      30.607 -21.334  -0.636  1.00  0.00     0.329 C
HETATM    8  C4  UNL     1      31.514 -21.669   0.508  1.00  0.00     0.181 A
HETATM    9  O1  UNL     1      31.911 -20.561   1.242  1.00  0.00    -0.381 OA
HETATM   10  C5  UNL     1      31.179 -20.986   2.352  1.00  0.00     0.178 A
HETATM   11  C6  UNL     1      30.616 -22.167   1.602  1.00  0.00     0.087 A
ENDROOT
BRANCH   7  12
HETATM   12  N3  UNL     1      30.559 -19.957  -0.938  1.00  0.00    -0.310 N
HETATM   13  N4  UNL     1      31.404 -19.350  -1.623  1.00  0.00    -0.347 N
ATOM     14  H42 UNL     1      32.181 -19.905  -1.985  1.00  0.00     0.176 HD
ATOM     15  H41 UNL     1      31.369 -18.355  -1.842  1.00  0.00     0.176 HD
ATOM     16  H3  UNL     1      29.776 -19.419  -0.568  1.00  0.00     0.182 HD
ENDBRANCH   7  12
TORSDOF 1
ENDMDL