MODEL 1
REMARK VINA RESULT: -4.730714224      0.000      0.000
REMARK  0 active torsions:
REMARK  status: ('A' for Active; 'I' for Inactive)
ROOT
HETATM    1  C1  UNL     1      28.075 -23.141   1.734  1.00  0.00     0.079 C
HETATM    2  C2  UNL     1      28.938 -21.954   1.502  1.00  0.00     0.179 C
HETATM    3  O1  UNL     1      28.574 -20.811   2.150  1.00  0.00    -0.338 OA
HETATM    4  C3  UNL     1      27.820 -20.066   1.261  1.00  0.00     0.300 C
HETATM    5  N1  UNL     1      27.813 -20.800  -0.003  1.00  0.00    -0.135 NA
HETATM    6  N2  UNL     1      28.976 -21.562   0.099  1.00  0.00    -0.189 NA
HETATM    7  C4  UNL     1      30.135 -20.680  -0.020  1.00  0.00     0.124 C
HETATM    8  C5  UNL     1      31.330 -21.590   0.232  1.00  0.00     0.094 C
HETATM    9  S1  UNL     1      30.702 -22.384   1.770  1.00  0.00    -0.113 SA
ENDROOT
TORSDOF 0
ENDMDL