MODEL 4
REMARK VINA RESULT: -4.304086215      2.501      3.627
REMARK  0 active torsions:
REMARK  status: ('A' for Active; 'I' for Inactive)
ROOT
HETATM    1  C1  UNL     1      32.445 -18.519   1.649  1.00  0.00     0.042 C
HETATM    2  C2  UNL     1      31.274 -19.315   2.091  1.00  0.00     0.147 C
HETATM    3  C3  UNL     1      30.271 -18.489   2.908  1.00  0.00     0.205 C
HETATM    4  O1  UNL     1      29.161 -19.332   2.839  1.00  0.00    -0.332 OA
HETATM    5  C4  UNL     1      29.314 -20.143   1.747  1.00  0.00     0.322 C
HETATM    6  S1  UNL     1      27.798 -20.109   0.777  1.00  0.00    -0.007 SA
HETATM    7  C5  UNL     1      29.643 -21.540   2.114  1.00  0.00     0.141 C
HETATM    8  N1  UNL     1      29.914 -22.626   2.409  1.00  0.00    -0.190 NA
HETATM    9  O2  UNL     1      30.420 -19.678   1.023  1.00  0.00    -0.327 OA
ENDROOT
TORSDOF 0
ENDMDL