MODEL 3
REMARK VINA RESULT: -5.198248042      1.812      3.282
REMARK  0 active torsions:
REMARK  status: ('A' for Active; 'I' for Inactive)
ROOT
HETATM    1  C1  UNL     1      27.649 -21.020   1.823  1.00  0.00     0.067 C
HETATM    2  C2  UNL     1      28.612 -22.121   1.467  1.00  0.00     0.153 C
HETATM    3  C3  UNL     1      27.880 -23.422   1.847  1.00  0.00     0.067 C
HETATM    4  N1  UNL     1      28.777 -22.161   0.037  1.00  0.00    -0.051 NA
HETATM    5  O1  UNL     1      29.395 -21.077  -0.485  1.00  0.00    -0.180 OA
HETATM    6  C4  UNL     1      30.495 -20.387  -0.004  1.00  0.00     0.427 C
HETATM    7  O2  UNL     1      31.109 -19.615  -0.788  1.00  0.00    -0.228 OA
HETATM    8  O3  UNL     1      31.031 -20.435   1.273  1.00  0.00    -0.271 OA
HETATM    9  C5  UNL     1      30.338 -20.910   2.439  1.00  0.00     0.353 C
HETATM   10  O4  UNL     1      29.771 -22.120   2.181  1.00  0.00    -0.338 OA
ENDROOT
TORSDOF 0
ENDMDL