MODEL 5
REMARK VINA RESULT: -4.491101273      1.249      2.253
REMARK  1 active torsions:
REMARK  status: ('A' for Active; 'I' for Inactive)
REMARK    1  A    between atoms: C4_7  and  O4_8
ROOT
HETATM    1  O1  UNL     1      28.074 -23.716   2.030  1.00  0.00    -0.258 OA
HETATM    2  C1  UNL     1      27.951 -22.502   1.755  1.00  0.00     0.334 C
HETATM    3  O2  UNL     1      26.767 -21.822   1.986  1.00  0.00    -0.313 OA
HETATM    4  C2  UNL     1      26.591 -20.628   1.242  1.00  0.00     0.222 C
HETATM    5  C3  UNL     1      27.946 -20.062   0.822  1.00  0.00     0.218 C
HETATM    6  O3  UNL     1      28.606 -20.984   0.045  1.00  0.00    -0.320 OA
HETATM    7  C4  UNL     1      29.063 -21.716   1.164  1.00  0.00     0.310 C
HETATM    8  S1  UNL     1      29.181 -20.174   2.106  1.00  0.00    -0.057 SA
ENDROOT
BRANCH   7   9
HETATM    9  O4  UNL     1      30.241 -22.394   0.975  1.00  0.00    -0.349 OA
ATOM     10  H4  UNL     1      30.166 -23.244   0.557  1.00  0.00     0.214 HD
ENDBRANCH   7   9
TORSDOF 1
ENDMDL