MODEL 2
REMARK VINA RESULT: -4.654074023      1.936      4.016
REMARK  0 active torsions:
REMARK  status: ('A' for Active; 'I' for Inactive)
ROOT
HETATM    1  O1  UNL     1      26.089 -20.910   1.353  1.00  0.00    -0.226 OA
HETATM    2  S1  UNL     1      27.899 -20.868   1.883  1.00  0.00     0.190 S
HETATM    3  O2  UNL     1      28.676 -22.608   0.376  1.00  0.00    -0.281 OA
HETATM    4  C1  UNL     1      29.762 -21.735   0.542  1.00  0.00     0.211 C
HETATM    5  C2  UNL     1      30.703 -21.665  -0.591  1.00  0.00     0.037 C
HETATM    6  C3  UNL     1      31.328 -20.534  -0.818  1.00  0.00     0.174 C
HETATM    7  O3  UNL     1      31.106 -19.409   0.004  1.00  0.00    -0.209 OA
HETATM    8  O4  UNL     1      30.297 -19.528   1.090  1.00  0.00    -0.212 OA
HETATM    9  C4  UNL     1      29.228 -20.305   0.714  1.00  0.00     0.315 C
ENDROOT
TORSDOF 0
ENDMDL