MODEL 2
REMARK VINA RESULT: -5.034866345      1.820      4.911
REMARK  1 active torsions:
REMARK  status: ('A' for Active; 'I' for Inactive)
REMARK       I    between atoms: C2_3  and  N2_5
REMARK    1  A    between atoms: N2_5  and  C3_7
ROOT
HETATM    1  N1  UNL     1      27.171 -20.385   0.555  1.00  0.00    -0.186 NA
HETATM    2  C1  UNL     1      28.288 -20.411   0.212  1.00  0.00     0.162 C
HETATM    3  C2  UNL     1      29.658 -20.469  -0.200  1.00  0.00     0.340 C
HETATM    4  O1  UNL     1      30.505 -19.671   0.260  1.00  0.00    -0.255 OA
HETATM    5  N2  UNL     1      30.075 -21.431  -1.137  1.00  0.00    -0.147 N
ATOM      6  H2  UNL     1      29.360 -22.065  -1.495  1.00  0.00     0.188 HD
ENDROOT
BRANCH   5   7
HETATM    7  C3  UNL     1      31.389 -21.608  -1.633  1.00  0.00     0.677 C
HETATM    8  N3  UNL     1      31.543 -21.914  -2.905  1.00  0.00    -0.226 N
HETATM    9  C4  UNL     1      32.955 -22.069  -3.287  1.00  0.00     0.139 C
ATOM     10  H3  UNL     1      30.766 -22.032  -3.555  1.00  0.00     0.177 HD
HETATM   11  C5  UNL     1      33.649 -20.786  -2.863  1.00  0.00     0.040 C
HETATM   12  C6  UNL     1      33.746 -20.764  -1.343  1.00  0.00     0.139 C
HETATM   13  N4  UNL     1      32.573 -21.489  -0.865  1.00  0.00    -0.226 N
ATOM     14  H4  UNL     1      32.608 -21.925   0.057  1.00  0.00     0.177 HD
ENDBRANCH   5   7
TORSDOF 1
ENDMDL