MODEL 1
REMARK VINA RESULT: -5.986423492      0.000      0.000
REMARK  1 active torsions:
REMARK  status: ('A' for Active; 'I' for Inactive)
REMARK    1  A    between atoms: O1_1  and  N1_3
ROOT
HETATM    1  N1  UNL     1      27.138 -20.156   2.122  1.00  0.00    -0.277 N
ATOM      2  H1  UNL     1      26.881 -19.189   2.321  1.00  0.00     0.193 HD
HETATM    3  C1  UNL     1      28.366 -20.478   1.944  1.00  0.00     0.015 C
HETATM    4  C2  UNL     1      28.705 -21.868   1.659  1.00  0.00     0.055 C
HETATM    5  C3  UNL     1      30.116 -22.249   1.922  1.00  0.00     0.011 C
HETATM    6  C4  UNL     1      31.017 -21.120   2.302  1.00  0.00     0.075 C
HETATM    7  C5  UNL     1      30.665 -19.873   1.500  1.00  0.00     0.234 A
HETATM    8  C6  UNL     1      29.355 -19.374   2.048  1.00  0.00     0.128 C
HETATM    9  O2  UNL     1      31.662 -18.931   1.397  1.00  0.00    -0.194 OA
HETATM   10  O3  UNL     1      31.117 -19.621   0.300  1.00  0.00    -0.194 OA
ENDROOT
BRANCH   1  11
HETATM   11  O1  UNL     1      26.174 -21.124   2.041  1.00  0.00    -0.290 OA
ATOM     12  H1  UNL     1      25.405 -20.970   1.506  1.00  0.00     0.244 HD
ENDBRANCH   1  11
TORSDOF 1
ENDMDL