MODEL 2
REMARK VINA RESULT: -6.102261139      0.855      1.377
REMARK  9 active torsions:
REMARK  status: ('A' for Active; 'I' for Inactive)
REMARK    1  A    between atoms: C2_2  and  O1_3
REMARK    2  A    between atoms: O1_3  and  C3_4
REMARK    3  A    between atoms: C4_5  and  O2_6
REMARK    4  A    between atoms: C7_9  and  O3_10
REMARK    5  A    between atoms: C8_12  and  C9_13
REMARK    6  A    between atoms: C9_13  and  N1_14
REMARK    7  A    between atoms: N1_14  and  C11_16
REMARK    8  A    between atoms: C11_16  and  C12_17
REMARK    9  A    between atoms: C18_23  and  O4_24
ROOT
HETATM    1  C3  UNL     1      14.241  -8.030   2.332  1.00  0.00     0.136 A
HETATM    2  C4  UNL     1      13.426  -7.005   1.874  1.00  0.00     0.107 A
HETATM    3  C6  UNL     1      13.995  -5.991   1.130  1.00  0.00     0.077 A
HETATM    4  C7  UNL     1      15.337  -5.974   0.836  1.00  0.00     0.082 A
HETATM    5  C8  UNL     1      16.139  -7.031   1.317  1.00  0.00     0.043 A
HETATM    6  C18 UNL     1      15.609  -8.056   2.059  1.00  0.00     0.116 A
ENDROOT
BRANCH   5   7
HETATM    7  C9  UNL     1      17.554  -6.919   0.922  1.00  0.00     0.076 C
BRANCH   7   8
HETATM    8  N1  UNL     1      17.945  -7.163  -0.394  1.00  0.00    -0.295 NA
HETATM    9  C10 UNL     1      17.707  -8.519  -0.896  1.00  0.00     0.116 C
BRANCH   8  10
HETATM   10  C11 UNL     1      19.241  -6.768  -0.818  1.00  0.00     0.099 C
BRANCH  10  11
HETATM   11  C12 UNL     1      20.173  -7.895  -1.203  1.00  0.00    -0.001 C
HETATM   12  C13 UNL     1      21.284  -7.925  -0.203  1.00  0.00     0.006 C
HETATM   13  C14 UNL     1      22.260  -6.813  -0.428  1.00  0.00     0.000 C
HETATM   14  C15 UNL     1      22.890  -7.075  -1.772  1.00  0.00     0.000 C
HETATM   15  C16 UNL     1      21.886  -7.049  -2.864  1.00  0.00     0.000 C
HETATM   16  C17 UNL     1      20.609  -7.735  -2.619  1.00  0.00     0.006 C
ENDBRANCH  10  11
ENDBRANCH   8  10
ENDBRANCH   7   8
ENDBRANCH   5   7
BRANCH   4  17
HETATM   17  O3  UNL     1      15.885  -4.933   0.075  1.00  0.00    -0.360 OA
ATOM     18  H3  UNL     1      16.823  -4.879  -0.064  1.00  0.00     0.217 HD
ENDBRANCH   4  17
BRANCH   6  19
HETATM   19  O4  UNL     1      16.389  -9.103   2.528  1.00  0.00    -0.357 OA
ATOM     20  H4  UNL     1      16.685  -9.780   1.931  1.00  0.00     0.217 HD
ENDBRANCH   6  19
BRANCH   1  21
HETATM   21  O1  UNL     1      13.724  -9.061   3.074  1.00  0.00    -0.346 OA
BRANCH  21  22
HETATM   22  C2  UNL     1      13.603  -9.034   4.463  1.00  0.00     0.171 C
HETATM   23  C1  UNL     1      14.202 -10.204   5.177  1.00  0.00     0.034 C
ENDBRANCH  21  22
ENDBRANCH   1  21
BRANCH   2  24
HETATM   24  O2  UNL     1      12.075  -7.022   2.173  1.00  0.00    -0.353 OA
HETATM   25  C5  UNL     1      11.045  -7.486   1.363  1.00  0.00     0.210 C
ENDBRANCH   2  24
TORSDOF 9
ENDMDL