MODEL 5
REMARK VINA RESULT: -4.934633180      7.373     11.191
REMARK  9 active torsions:
REMARK  status: ('A' for Active; 'I' for Inactive)
REMARK    1  A    between atoms: C2_2  and  C3_3
REMARK    2  A    between atoms: C3_3  and  O1_4
REMARK    3  A    between atoms: O1_4  and  C4_5
REMARK    4  A    between atoms: C10_11  and  O2_12
REMARK    5  A    between atoms: C10_11  and  S1_15
REMARK    6  A    between atoms: O2_12  and  O3_13
REMARK    7  A    between atoms: C12_17  and  C14_19
REMARK    8  A    between atoms: C15_20  and  C16_21
REMARK    9  A    between atoms: C16_21  and  O4_22
ROOT
HETATM    1  C4  UNL     1      21.031  -6.908  -2.456  1.00  0.00     0.170 C
HETATM    2  C5  UNL     1      21.968  -7.594  -3.429  1.00  0.00     0.042 C
HETATM    3  C6  UNL     1      23.123  -6.745  -3.832  1.00  0.00     0.005 A
HETATM    4  C7  UNL     1      24.223  -6.652  -2.847  1.00  0.00     0.003 A
HETATM    5  C8  UNL     1      23.928  -7.320  -1.543  1.00  0.00     0.010 C
HETATM    6  C9  UNL     1      22.864  -6.500  -0.835  1.00  0.00     0.056 C
HETATM    7  C10 UNL     1      21.484  -7.076  -1.029  1.00  0.00     0.169 C
HETATM    8  C12 UNL     1      24.470  -7.365  -4.094  1.00  0.00    -0.018 A
HETATM    9  C13 UNL     1      24.607  -8.851  -4.179  1.00  0.00     0.020 C
ENDROOT
BRANCH   8  10
HETATM   10  C14 UNL     1      25.273  -6.634  -5.145  1.00  0.00    -0.019 C
HETATM   11  C15 UNL     1      26.142  -7.240  -5.907  1.00  0.00    -0.004 C
BRANCH  11  12
HETATM   12  C16 UNL     1      26.906  -6.476  -6.925  1.00  0.00     0.191 C
BRANCH  12  13
HETATM   13  O4  UNL     1      26.842  -5.126  -6.586  1.00  0.00    -0.397 OA
ATOM     14  H4  UNL     1      26.505  -4.652  -7.337  1.00  0.00     0.209 HD
ENDBRANCH  12  13
ENDBRANCH  11  12
ENDBRANCH   8  10
BRANCH   1  15
HETATM   15  O1  UNL     1      19.791  -7.525  -2.585  1.00  0.00    -0.382 OA
BRANCH  15  16
HETATM   16  C3  UNL     1      19.756  -8.317  -3.715  1.00  0.00     0.168 C
BRANCH  16  17
HETATM   17  C2  UNL     1      18.421  -8.968  -3.899  1.00  0.00     0.022 C
HETATM   18  C1  UNL     1      17.905  -9.484  -2.573  1.00  0.00     0.007 C
ENDBRANCH  16  17
ENDBRANCH  15  16
ENDBRANCH   1  15
BRANCH   7  19
HETATM   19  O2  UNL     1      21.556  -8.430  -0.695  1.00  0.00    -0.218 OA
BRANCH  19  20
HETATM   20  O3  UNL     1      20.360  -8.734  -0.186  1.00  0.00    -0.249 OA
ATOM     21  H3  UNL     1      20.522  -9.429   0.442  1.00  0.00     0.253 HD
ENDBRANCH  19  20
ENDBRANCH   7  19
BRANCH   7  22
HETATM   22  S1  UNL     1      20.325  -6.211   0.046  1.00  0.00    -0.130 SA
HETATM   23  C11 UNL     1      21.132  -5.295   1.358  1.00  0.00     0.093 C
ENDBRANCH   7  22
TORSDOF 9
ENDMDL