MODEL 4
REMARK VINA RESULT: -6.446997262      1.237      1.513
REMARK  9 active torsions:
REMARK  status: ('A' for Active; 'I' for Inactive)
REMARK    1  A    between atoms: C2_2  and  C4_4
REMARK    2  A    between atoms: C8_8  and  O1_9
REMARK    3  A    between atoms: C9_11  and  O2_12
REMARK    4  A    between atoms: N1_15  and  C11_16
REMARK    5  A    between atoms: C11_16  and  C12_17
REMARK    6  A    between atoms: C12_17  and  C13_18
REMARK    7  A    between atoms: C13_18  and  C14_19
REMARK    8  A    between atoms: C14_19  and  C15_20
REMARK    9  A    between atoms: C15_20  and  C16_21
ROOT
HETATM    1  C16 UNL     1      15.441  -8.349   3.970  1.00  0.00     0.124 C
HETATM    2  C17 UNL     1      15.370  -8.317   5.444  1.00  0.00     0.059 C
HETATM    3  N2  UNL     1      15.296  -8.285   6.592  1.00  0.00    -0.197 NA
ENDROOT
BRANCH   1   4
HETATM    4  C15 UNL     1      16.535  -7.449   3.496  1.00  0.00     0.014 C
BRANCH   4   5
HETATM    5  C14 UNL     1      16.133  -6.778   2.207  1.00  0.00     0.001 C
BRANCH   5   6
HETATM    6  C13 UNL     1      15.179  -7.623   1.421  1.00  0.00     0.002 C
BRANCH   6   7
HETATM    7  C12 UNL     1      15.660  -7.803  -0.016  1.00  0.00     0.030 C
BRANCH   7   8
HETATM    8  C11 UNL     1      17.058  -8.274  -0.097  1.00  0.00     0.275 C
BRANCH   8   9
HETATM    9  N1  UNL     1      17.943  -7.352  -0.735  1.00  0.00     0.116 N
HETATM   10  C10 UNL     1      19.042  -6.961   0.092  1.00  0.00     0.319 C
HETATM   11  C7  UNL     1      20.368  -6.955  -0.507  1.00  0.00     0.039 A
HETATM   12  C6  UNL     1      20.607  -7.626  -1.676  1.00  0.00     0.082 A
HETATM   13  C8  UNL     1      21.441  -6.269   0.080  1.00  0.00     0.110 A
HETATM   14  C5  UNL     1      21.867  -7.611  -2.236  1.00  0.00     0.048 A
HETATM   15  O3  UNL     1      19.526  -8.293  -2.228  1.00  0.00    -0.321 OA
HETATM   16  C4  UNL     1      22.936  -6.945  -1.678  1.00  0.00    -0.016 A
HETATM   17  C9  UNL     1      22.693  -6.271  -0.504  1.00  0.00     0.106 A
HETATM   18  C18 UNL     1      18.234  -7.668  -2.065  1.00  0.00     0.447 C
BRANCH  16  19
HETATM   19  C2  UNL     1      24.279  -6.947  -2.298  1.00  0.00     0.013 C
HETATM   20  C1  UNL     1      24.325  -6.024  -3.497  1.00  0.00     0.015 C
HETATM   21  C3  UNL     1      24.669  -8.318  -2.803  1.00  0.00     0.015 C
ENDBRANCH  16  19
BRANCH  17  22
HETATM   22  O2  UNL     1      23.711  -5.571   0.131  1.00  0.00    -0.357 OA
ATOM     23  H2  UNL     1      24.253  -5.995   0.785  1.00  0.00     0.217 HD
ENDBRANCH  17  22
BRANCH  13  24
HETATM   24  O1  UNL     1      21.225  -5.583   1.266  1.00  0.00    -0.357 OA
ATOM     25  H1  UNL     1      20.877  -6.058   2.011  1.00  0.00     0.217 HD
ENDBRANCH  13  24
ENDBRANCH   8   9
ENDBRANCH   7   8
ENDBRANCH   6   7
ENDBRANCH   5   6
ENDBRANCH   4   5
ENDBRANCH   1   4
TORSDOF 9
ENDMDL