MODEL 4
REMARK VINA RESULT: -5.728594755      1.561      3.422
REMARK  10 active torsions:
REMARK  status: ('A' for Active; 'I' for Inactive)
REMARK    1  A    between atoms: C2_2  and  C3_3
REMARK    2  A    between atoms: C3_3  and  C4_4
REMARK    3  A    between atoms: C4_4  and  N1_5
REMARK    4  A    between atoms: C5_6  and  N2_7
REMARK    5  A    between atoms: N2_7  and  N3_9
REMARK    6  A    between atoms: N3_9  and  N4_10
REMARK    7  A    between atoms: C9_16  and  N5_17
REMARK    8  A    between atoms: N5_17  and  N6_19
REMARK    9  A    between atoms: N6_19  and  C10_21
REMARK   10  A    between atoms: C10_21  and  C12_23
ROOT
HETATM    1  N1  UNL     1      22.643  -7.255  -2.171  1.00  0.00    -0.316 N
HETATM    2  C5  UNL     1      21.512  -7.676  -2.765  1.00  0.00     0.143 A
HETATM    3  C6  UNL     1      20.485  -7.298  -1.933  1.00  0.00     0.002 A
HETATM    4  C7  UNL     1      19.037  -7.536  -2.150  1.00  0.00     0.053 C
HETATM    5  C8  UNL     1      20.986  -6.636  -0.818  1.00  0.00     0.063 A
HETATM    6  C9  UNL     1      20.405  -6.063   0.295  1.00  0.00     0.135 A
HETATM    7  N7  UNL     1      21.194  -5.486   1.207  1.00  0.00    -0.337 N
ATOM      8  H7  UNL     1      20.789  -5.054   2.037  1.00  0.00     0.168 HD
HETATM    9  C14 UNL     1      22.538  -5.482   1.019  1.00  0.00     0.183 A
HETATM   10  N8  UNL     1      23.106  -6.038  -0.057  1.00  0.00    -0.338 N
ATOM     11  H8  UNL     1      24.120  -6.016  -0.164  1.00  0.00     0.168 HD
HETATM   12  C15 UNL     1      22.352  -6.622  -0.992  1.00  0.00     0.124 A
ENDROOT
BRANCH   6  13
HETATM   13  N5  UNL     1      19.138  -6.084   0.455  1.00  0.00    -0.289 N
ATOM     14  H5  UNL     1      18.584  -5.818  -0.359  1.00  0.00     0.188 HD
BRANCH  13  15
HETATM   15  N6  UNL     1      18.428  -6.417   1.577  1.00  0.00    -0.330 N
ATOM     16  H6  UNL     1      18.793  -6.172   2.498  1.00  0.00     0.180 HD
BRANCH  15  17
HETATM   17  C10 UNL     1      17.144  -7.124   1.463  1.00  0.00     0.095 C
HETATM   18  C11 UNL     1      16.386  -6.432   0.360  1.00  0.00     0.033 C
BRANCH  17  19
HETATM   19  C12 UNL     1      16.403  -7.062   2.780  1.00  0.00     0.022 C
HETATM   20  C13 UNL     1      16.115  -8.424   3.320  1.00  0.00     0.007 C
ENDBRANCH  17  19
ENDBRANCH  15  17
ENDBRANCH  13  15
ENDBRANCH   6  13
BRANCH   2  21
HETATM   21  N2  UNL     1      21.391  -8.369  -3.993  1.00  0.00    -0.199 N
ATOM     22  H2  UNL     1      21.316  -9.385  -3.956  1.00  0.00     0.205 HD
BRANCH  21  23
HETATM   23  N3  UNL     1      21.369  -7.840  -5.095  1.00  0.00    -0.242 NA
BRANCH  23  24
HETATM   24  N4  UNL     1      21.598  -7.221  -6.124  1.00  0.00    -0.260 N
ATOM     25  H42 UNL     1      22.524  -7.640  -6.203  1.00  0.00     0.193 HD
ATOM     26  H41 UNL     1      21.577  -6.620  -6.949  1.00  0.00     0.193 HD
ENDBRANCH  23  24
ENDBRANCH  21  23
ENDBRANCH   2  21
BRANCH   1  27
HETATM   27  C4  UNL     1      23.976  -7.412  -2.656  1.00  0.00     0.132 C
BRANCH  27  28
HETATM   28  C3  UNL     1      24.385  -6.364  -3.659  1.00  0.00     0.020 C
BRANCH  28  29
HETATM   29  C2  UNL     1      25.091  -7.016  -4.832  1.00  0.00    -0.003 C
HETATM   30  C1  UNL     1      25.010  -8.510  -4.657  1.00  0.00     0.005 C
ENDBRANCH  28  29
ENDBRANCH  27  28
ENDBRANCH   1  27
TORSDOF 10
ENDMDL