MODEL 5
REMARK VINA RESULT: -5.639918018      3.095      6.984
REMARK  8 active torsions:
REMARK  status: ('A' for Active; 'I' for Inactive)
REMARK    1  A    between atoms: C2_2  and  C5_6
REMARK    2  A    between atoms: C5_6  and  C6_7
REMARK    3  A    between atoms: C6_7  and  C7_8
REMARK    4  A    between atoms: C7_8  and  C8_9
REMARK    5  A    between atoms: C8_9  and  O1_10
REMARK    6  A    between atoms: O1_10  and  C9_11
REMARK    7  A    between atoms: N2_18  and  N3_20
REMARK    8  A    between atoms: N3_20  and  C16_22
ROOT
HETATM    1  C1  UNL     1      16.447  -5.299  -1.797  1.00  0.00     0.051 C
HETATM    2  C2  UNL     1      17.394  -6.350  -1.346  1.00  0.00    -0.028 C
HETATM    3  C3  UNL     1      17.949  -7.053  -2.357  1.00  0.00     0.102 C
HETATM    4  C4  UNL     1      17.614  -6.766  -3.711  1.00  0.00     0.088 C
HETATM    5  N1  UNL     1      17.322  -6.530  -4.817  1.00  0.00    -0.192 NA
ENDROOT
BRANCH   2   6
HETATM    6  C5  UNL     1      17.791  -6.613   0.012  1.00  0.00     0.032 C
HETATM    7  N2  UNL     1      16.879  -6.374   0.935  1.00  0.00    -0.302 N
ATOM      8  H2  UNL     1      15.972  -6.025   0.626  1.00  0.00     0.186 HD
BRANCH   6   9
HETATM    9  C6  UNL     1      19.121  -7.057   0.401  1.00  0.00     0.061 C
BRANCH   9  10
HETATM   10  C7  UNL     1      20.247  -6.076   0.273  1.00  0.00     0.032 C
BRANCH  10  11
HETATM   11  C8  UNL     1      21.458  -6.606  -0.380  1.00  0.00     0.168 C
BRANCH  11  12
HETATM   12  O1  UNL     1      21.305  -6.752  -1.775  1.00  0.00    -0.385 OA
BRANCH  12  13
HETATM   13  C9  UNL     1      22.270  -7.566  -2.278  1.00  0.00     0.129 C
HETATM   14  C10 UNL     1      23.685  -7.056  -1.962  1.00  0.00     0.033 C
HETATM   15  C11 UNL     1      24.508  -8.007  -2.818  1.00  0.00     0.003 C
HETATM   16  C12 UNL     1      23.649  -8.268  -4.037  1.00  0.00     0.011 C
HETATM   17  C13 UNL     1      22.339  -7.543  -3.801  1.00  0.00    -0.021 C
HETATM   18  C14 UNL     1      21.165  -8.268  -4.412  1.00  0.00     0.017 C
HETATM   19  C15 UNL     1      22.454  -6.167  -4.356  1.00  0.00     0.017 C
ENDBRANCH  12  13
ENDBRANCH  11  12
ENDBRANCH  10  11
ENDBRANCH   9  10
ENDBRANCH   6   9
BRANCH   7  20
HETATM   20  N3  UNL     1      17.065  -6.562   2.279  1.00  0.00    -0.278 N
ATOM     21  H3  UNL     1      17.856  -6.108   2.736  1.00  0.00     0.189 HD
BRANCH  20  22
HETATM   22  C16 UNL     1      16.195  -7.366   3.053  1.00  0.00     0.199 C
HETATM   23  N4  UNL     1      16.313  -7.513   4.458  1.00  0.00    -0.068 NA
HETATM   24  S1  UNL     1      14.985  -8.174   2.301  1.00  0.00    -0.043 SA
ENDBRANCH  20  22
ENDBRANCH   7  20
ENDBRANCH   2   6
TORSDOF 8
ENDMDL