MODEL 5
REMARK VINA RESULT: -6.671244314      3.077      4.236
REMARK  9 active torsions:
REMARK  status: ('A' for Active; 'I' for Inactive)
REMARK    1  A    between atoms: C6_6  and  C7_7
REMARK    2  A    between atoms: C7_7  and  C8_8
REMARK    3  A    between atoms: C8_8  and  C9_9
REMARK    4  A    between atoms: C9_9  and  C10_10
REMARK    5  A    between atoms: C10_10  and  S1_11
REMARK    6  A    between atoms: S1_11  and  C11_12
REMARK    7  A    between atoms: C11_12  and  N1_14
REMARK    8  A    between atoms: N1_14  and  C12_16
REMARK    9  A    between atoms: C12_16  and  C13_17
ROOT
HETATM    1  S1  UNL     1      17.138  -6.571  -0.043  1.00  0.00    -0.101 SA
ENDROOT
BRANCH   1   2
HETATM    2  C10 UNL     1      18.812  -6.762   0.618  1.00  0.00     0.082 C
BRANCH   2   3
HETATM    3  C9  UNL     1      19.867  -6.507  -0.402  1.00  0.00     0.010 C
BRANCH   3   4
HETATM    4  C8  UNL     1      20.874  -7.624  -0.510  1.00  0.00     0.001 C
BRANCH   4   5
HETATM    5  C7  UNL     1      21.299  -7.884  -1.924  1.00  0.00     0.005 C
BRANCH   5   6
HETATM    6  C6  UNL     1      22.192  -6.794  -2.467  1.00  0.00    -0.014 C
HETATM    7  C5  UNL     1      23.536  -6.767  -1.815  1.00  0.00     0.005 C
HETATM    8  C4  UNL     1      24.391  -7.961  -2.123  1.00  0.00     0.001 C
HETATM    9  C3  UNL     1      24.596  -7.968  -3.644  1.00  0.00     0.004 C
HETATM   10  C2  UNL     1      23.231  -8.201  -4.248  1.00  0.00    -0.018 C
HETATM   11  C1  UNL     1      23.303  -8.415  -5.740  1.00  0.00     0.010 C
HETATM   12  C14 UNL     1      22.334  -7.018  -3.955  1.00  0.00     0.008 C
ENDBRANCH   5   6
ENDBRANCH   4   5
ENDBRANCH   3   4
ENDBRANCH   2   3
ENDBRANCH   1   2
BRANCH   1  13
HETATM   13  C11 UNL     1      15.940  -6.401   1.267  1.00  0.00     0.134 C
HETATM   14  S2  UNL     1      14.420  -5.896   0.978  1.00  0.00    -0.053 SA
BRANCH  13  15
HETATM   15  N1  UNL     1      16.299  -6.706   2.602  1.00  0.00    -0.368 N
ATOM     16  H1  UNL     1      16.472  -5.942   3.254  1.00  0.00     0.161 HD
BRANCH  15  17
HETATM   17  C12 UNL     1      16.428  -8.071   3.071  1.00  0.00     0.199 C
BRANCH  17  18
HETATM   18  C13 UNL     1      15.729  -8.277   4.358  1.00  0.00     0.124 A
HETATM   19  N2  UNL     1      16.180  -7.810   5.536  1.00  0.00    -0.272 N
HETATM   20  N3  UNL     1      15.345  -8.151   6.501  1.00  0.00    -0.007 NA
ATOM     21  H2  UNL     1      17.037  -7.273   5.664  1.00  0.00     0.185 HD
HETATM   22  N4  UNL     1      14.366  -8.837   5.928  1.00  0.00    -0.007 NA
HETATM   23  N5  UNL     1      14.593  -8.919   4.621  1.00  0.00    -0.272 N
ATOM     24  H5  UNL     1      13.999  -9.391   3.939  1.00  0.00     0.185 HD
ENDBRANCH  17  18
ENDBRANCH  15  17
ENDBRANCH  13  15
ENDBRANCH   1  13
TORSDOF 9
ENDMDL