MODEL 4
REMARK VINA RESULT: -5.935207826      1.310      1.785
REMARK  7 active torsions:
REMARK  status: ('A' for Active; 'I' for Inactive)
REMARK    1  A    between atoms: O1_2  and  C2_3
REMARK    2  A    between atoms: C4_5  and  N1_6
REMARK    3  A    between atoms: N1_6  and  C5_8
REMARK    4  A    between atoms: C12_15  and  O2_16
REMARK    5  A    between atoms: O2_16  and  C13_17
REMARK    6  A    between atoms: C13_17  and  C14_18
REMARK    7  A    between atoms: C17_24  and  O3_25
ROOT
HETATM    1  C2  UNL     1      15.647  -6.137   0.122  1.00  0.00     0.106 A
HETATM    2  C3  UNL     1      16.962  -6.405  -0.278  1.00  0.00     0.069 A
HETATM    3  C4  UNL     1      17.875  -6.942   0.593  1.00  0.00     0.033 A
HETATM    4  C11 UNL     1      17.470  -7.214   1.879  1.00  0.00     0.069 A
HETATM    5  C12 UNL     1      16.184  -6.964   2.307  1.00  0.00     0.107 A
HETATM    6  C17 UNL     1      15.281  -6.424   1.415  1.00  0.00     0.135 A
ENDROOT
BRANCH   3   7
HETATM    7  N1  UNL     1      19.194  -7.220   0.190  1.00  0.00    -0.385 N
ATOM      8  H1  UNL     1      19.690  -8.027   0.568  1.00  0.00     0.160 HD
BRANCH   7   9
HETATM    9  C5  UNL     1      19.840  -6.348  -0.765  1.00  0.00     0.081 C
HETATM   10  C6  UNL     1      20.363  -7.200  -1.897  1.00  0.00     0.025 C
HETATM   11  C7  UNL     1      21.875  -7.105  -1.910  1.00  0.00     0.002 C
HETATM   12  C8  UNL     1      22.409  -7.419  -0.543  1.00  0.00     0.000 C
HETATM   13  C9  UNL     1      21.960  -6.409   0.466  1.00  0.00     0.002 C
HETATM   14  C10 UNL     1      20.915  -5.522  -0.113  1.00  0.00     0.025 C
ENDBRANCH   7   9
ENDBRANCH   3   7
BRANCH   1  15
HETATM   15  O1  UNL     1      14.752  -5.595  -0.785  1.00  0.00    -0.353 OA
HETATM   16  C1  UNL     1      15.163  -5.285  -2.095  1.00  0.00     0.210 C
ENDBRANCH   1  15
BRANCH   5  17
HETATM   17  O2  UNL     1      15.787  -7.238   3.585  1.00  0.00    -0.346 OA
BRANCH  17  18
HETATM   18  C13 UNL     1      15.641  -8.587   3.985  1.00  0.00     0.208 C
BRANCH  18  19
HETATM   19  C14 UNL     1      14.848  -8.701   5.277  1.00  0.00     0.211 C
HETATM   20  C15 UNL     1      13.532  -9.416   5.015  1.00  0.00     0.062 C
HETATM   21  C16 UNL     1      14.338 -10.661   5.245  1.00  0.00     0.235 C
HETATM   22  N2  UNL     1      15.289  -9.869   6.005  1.00  0.00    -0.069 N
ATOM     23  H22 UNL     1      16.276 -10.123   6.028  1.00  0.00     0.277 HD
ATOM     24  H21 UNL     1      15.274  -9.880   7.025  1.00  0.00     0.277 HD
ENDBRANCH  18  19
ENDBRANCH  17  18
ENDBRANCH   5  17
BRANCH   6  25
HETATM   25  O3  UNL     1      13.973  -6.156   1.804  1.00  0.00    -0.351 OA
HETATM   26  C18 UNL     1      12.923  -7.074   1.691  1.00  0.00     0.210 C
ENDBRANCH   6  25
TORSDOF 7
ENDMDL