MODEL 4
REMARK VINA RESULT: -5.695339270      1.679      2.021
REMARK  12 active torsions:
REMARK  status: ('A' for Active; 'I' for Inactive)
REMARK    1  A    between atoms: C2_2  and  O1_4
REMARK    2  A    between atoms: C2_2  and  C4_6
REMARK    3  A    between atoms: C9_11  and  C11_13
REMARK    4  A    between atoms: C11_13  and  O2_14
REMARK    5  A    between atoms: O2_14  and  C12_15
REMARK    6  A    between atoms: C12_15  and  O4_17
REMARK    7  A    between atoms: O4_17  and  C13_18
REMARK    8  A    between atoms: C13_18  and  C14_19
REMARK    9  A    between atoms: C14_19  and  C15_20
REMARK   10  A    between atoms: C15_20  and  C16_21
REMARK   11  A    between atoms: C16_21  and  C17_22
REMARK   12  A    between atoms: C17_22  and  O5_23
ROOT
HETATM    1  C4  UNL     1      16.406  -6.382   0.267  1.00  0.00     0.029 C
HETATM    2  C5  UNL     1      16.140  -5.577  -0.997  1.00  0.00     0.008 C
HETATM    3  C6  UNL     1      15.239  -4.442  -0.622  1.00  0.00     0.001 C
HETATM    4  C7  UNL     1      14.881  -4.389   0.832  1.00  0.00     0.001 C
HETATM    5  C8  UNL     1      14.367  -5.696   1.376  1.00  0.00     0.012 C
HETATM    6  C9  UNL     1      15.099  -6.890   0.743  1.00  0.00    -0.015 C
HETATM    7  C10 UNL     1      14.189  -7.385  -0.352  1.00  0.00     0.018 C
ENDROOT
BRANCH   6   8
HETATM    8  C11 UNL     1      15.154  -7.959   1.798  1.00  0.00     0.190 C
BRANCH   8   9
HETATM    9  O2  UNL     1      15.573  -7.297   3.005  1.00  0.00    -0.297 OA
BRANCH   9  10
HETATM   10  C12 UNL     1      15.674  -7.983   4.206  1.00  0.00     0.406 C
HETATM   11  O3  UNL     1      16.347  -7.480   5.105  1.00  0.00    -0.230 OA
BRANCH  10  12
HETATM   12  O4  UNL     1      15.039  -9.189   4.383  1.00  0.00    -0.298 OA
BRANCH  12  13
HETATM   13  C13 UNL     1      14.077  -9.442   5.343  1.00  0.00     0.181 C
BRANCH  13  14
HETATM   14  C14 UNL     1      13.800 -10.918   5.457  1.00  0.00     0.027 C
BRANCH  14  15
HETATM   15  C15 UNL     1      15.169 -11.577   5.695  1.00  0.00     0.004 C
BRANCH  15  16
HETATM   16  C16 UNL     1      14.969 -12.957   6.236  1.00  0.00     0.026 C
BRANCH  16  17
HETATM   17  C17 UNL     1      16.073 -13.236   7.230  1.00  0.00     0.164 C
BRANCH  17  18
HETATM   18  O5  UNL     1      16.154 -14.593   7.501  1.00  0.00    -0.401 OA
ATOM     19  H5  UNL     1      16.019 -14.759   8.426  1.00  0.00     0.209 HD
ENDBRANCH  17  18
ENDBRANCH  16  17
ENDBRANCH  15  16
ENDBRANCH  14  15
ENDBRANCH  13  14
ENDBRANCH  12  13
ENDBRANCH  10  12
ENDBRANCH   9  10
ENDBRANCH   8   9
ENDBRANCH   6   8
BRANCH   1  20
HETATM   20  C2  UNL     1      17.501  -7.361   0.099  1.00  0.00     0.055 C
HETATM   21  C1  UNL     1      18.718  -6.572  -0.421  1.00  0.00     0.045 C
HETATM   22  C3  UNL     1      17.261  -8.448  -0.882  1.00  0.00     0.045 C
BRANCH  20  23
HETATM   23  O1  UNL     1      17.904  -7.837   1.345  1.00  0.00    -0.390 OA
ATOM     24  H1  UNL     1      18.847  -7.721   1.349  1.00  0.00     0.210 HD
ENDBRANCH  20  23
ENDBRANCH   1  20
TORSDOF 12
ENDMDL