MODEL 4
REMARK VINA RESULT: -6.462827256      4.537      9.008
REMARK  8 active torsions:
REMARK  status: ('A' for Active; 'I' for Inactive)
REMARK    1  A    between atoms: C5_7  and  C6_8
REMARK    2  A    between atoms: C6_8  and  N2_9
REMARK    3  A    between atoms: N2_9  and  C7_12
REMARK    4  A    between atoms: C7_12  and  C8_13
REMARK    5  A    between atoms: C8_13  and  C9_14
REMARK    6  A    between atoms: C9_14  and  C10_15
REMARK    7  A    between atoms: C10_15  and  C11_16
REMARK    8  A    between atoms: C11_16  and  C12_17
ROOT
HETATM    1  C8  UNL     1      14.818  -9.336   5.282  1.00  0.00     0.027 C
ENDROOT
BRANCH   1   2
HETATM    2  C7  UNL     1      14.450 -10.797   5.493  1.00  0.00     0.232 C
BRANCH   2   3
HETATM    3  N2  UNL     1      15.499 -11.631   6.001  1.00  0.00    -0.071 N
ATOM      4  H22 UNL     1      15.739 -11.387   6.962  1.00  0.00     0.277 HD
ATOM      5  H21 UNL     1      16.393 -11.420   5.558  1.00  0.00     0.277 HD
BRANCH   3   6
HETATM    6  C6  UNL     1      15.162 -13.031   5.877  1.00  0.00     0.272 C
BRANCH   6   7
HETATM    7  C5  UNL     1      15.082 -13.642   7.228  1.00  0.00    -0.009 A
HETATM    8  C2  UNL     1      13.886 -14.310   7.636  1.00  0.00     0.013 A
HETATM    9  C1  UNL     1      12.879 -14.648   6.567  1.00  0.00     0.068 C
HETATM   10  N1  UNL     1      13.961 -14.586   8.913  1.00  0.00    -0.369 N
HETATM   11  C3  UNL     1      15.118 -14.148   9.416  1.00  0.00     0.089 A
ATOM     12  H1  UNL     1      13.239 -15.067   9.448  1.00  0.00     0.165 HD
HETATM   13  C4  UNL     1      15.830 -13.555   8.334  1.00  0.00     0.027 A
ENDBRANCH   6   7
ENDBRANCH   3   6
ENDBRANCH   2   3
ENDBRANCH   1   2
BRANCH   1  14
HETATM   14  C9  UNL     1      14.708  -9.010   3.845  1.00  0.00     0.002 C
BRANCH  14  15
HETATM   15  C10 UNL     1      13.449  -9.677   3.229  1.00  0.00     0.003 C
BRANCH  15  16
HETATM   16  C11 UNL     1      13.549  -9.313   1.741  1.00  0.00     0.035 C
BRANCH  16  17
HETATM   17  C12 UNL     1      14.397  -8.116   1.544  1.00  0.00     0.160 C
HETATM   18  C13 UNL     1      13.544  -6.873   1.329  1.00  0.00     0.035 C
HETATM   19  C14 UNL     1      14.075  -6.134   0.082  1.00  0.00     0.003 C
HETATM   20  C15 UNL     1      15.476  -5.600   0.391  1.00  0.00     0.008 C
HETATM   21  C16 UNL     1      16.544  -6.492  -0.169  1.00  0.00     0.110 C
HETATM   22  C17 UNL     1      17.142  -7.381   0.899  1.00  0.00     0.364 A
HETATM   23  O1  UNL     1      16.450  -8.607   0.812  1.00  0.00    -0.166 OA
HETATM   24  O3  UNL     1      18.459  -7.326   1.159  1.00  0.00    -0.161 OA
HETATM   25  O4  UNL     1      17.546  -6.957   2.067  1.00  0.00    -0.161 OA
HETATM   26  O2  UNL     1      15.230  -8.314   0.452  1.00  0.00    -0.230 OA
ENDBRANCH  16  17
ENDBRANCH  15  16
ENDBRANCH  14  15
ENDBRANCH   1  14
TORSDOF 8
ENDMDL