MODEL 3
REMARK VINA RESULT: -5.887455911      2.568      6.603
REMARK  10 active torsions:
REMARK  status: ('A' for Active; 'I' for Inactive)
REMARK    1  A    between atoms: C2_2  and  C3_3
REMARK    2  A    between atoms: C3_3  and  C4_4
REMARK    3  A    between atoms: C4_4  and  C5_5
REMARK    4  A    between atoms: C5_5  and  C6_6
REMARK    5  A    between atoms: C6_6  and  C7_7
REMARK    6  A    between atoms: C7_7  and  C8_8
REMARK    7  A    between atoms: C9_9  and  O1_10
REMARK    8  A    between atoms: N1_12  and  C10_13
REMARK    9  A    between atoms: C14_17  and  N2_18
REMARK   10  A    between atoms: N3_21  and  C15_22
ROOT
HETATM    1  C8  UNL     1      15.935  -7.445   1.992  1.00  0.00     0.062 A
HETATM    2  C9  UNL     1      15.663  -8.063   3.185  1.00  0.00     0.170 A
HETATM    3  N1  UNL     1      14.449  -8.663   3.430  1.00  0.00    -0.153 N
HETATM    4  C14 UNL     1      13.545  -8.622   2.467  1.00  0.00     0.685 A
HETATM    5  N3  UNL     1      13.801  -8.004   1.260  1.00  0.00    -0.147 N
HETATM    6  C17 UNL     1      14.972  -7.421   1.013  1.00  0.00     0.272 A
HETATM    7  O2  UNL     1      15.188  -6.853  -0.115  1.00  0.00    -0.267 OA
ENDROOT
BRANCH   1   8
HETATM    8  C7  UNL     1      17.252  -6.792   1.706  1.00  0.00     0.052 C
BRANCH   8   9
HETATM    9  C6  UNL     1      18.063  -7.581   0.753  1.00  0.00     0.032 C
BRANCH   9  10
HETATM   10  C5  UNL     1      19.019  -6.857  -0.100  1.00  0.00    -0.030 C
BRANCH  10  11
HETATM   11  C4  UNL     1      20.298  -7.416  -0.520  1.00  0.00    -0.031 C
BRANCH  11  12
HETATM   12  C3  UNL     1      21.582  -6.756  -0.214  1.00  0.00     0.026 C
BRANCH  12  13
HETATM   13  C2  UNL     1      21.199  -5.520   0.665  1.00  0.00    -0.001 C
HETATM   14  C1  UNL     1      22.468  -4.955   1.265  1.00  0.00     0.005 C
ENDBRANCH  12  13
ENDBRANCH  11  12
ENDBRANCH  10  11
ENDBRANCH   9  10
ENDBRANCH   8   9
ENDBRANCH   1   8
BRANCH   2  15
HETATM   15  O1  UNL     1      16.680  -8.061   4.155  1.00  0.00    -0.345 OA
ATOM     16  H1  UNL     1      16.482  -8.466   4.991  1.00  0.00     0.219 HD
ENDBRANCH   2  15
BRANCH   3  17
HETATM   17  C10 UNL     1      14.340  -9.247   4.701  1.00  0.00     0.046 C
HETATM   18  C11 UNL     1      14.903 -10.681   4.563  1.00  0.00     0.039 C
HETATM   19  C12 UNL     1      14.973  -8.681   5.889  1.00  0.00     0.039 C
HETATM   20  C13 UNL     1      12.849  -9.449   5.061  1.00  0.00     0.039 C
ENDBRANCH   3  17
BRANCH   5  21
HETATM   21  C15 UNL     1      12.757  -8.007   0.265  1.00  0.00     0.146 C
HETATM   22  C16 UNL     1      11.945  -6.730   0.279  1.00  0.00     0.027 C
ENDBRANCH   5  21
BRANCH   4  23
HETATM   23  N2  UNL     1      12.439  -9.126   2.591  1.00  0.00    -0.234 N
ATOM     24  H22 UNL     1      11.835  -8.716   3.302  1.00  0.00     0.174 HD
ATOM     25  H21 UNL     1      12.134  -9.913   2.018  1.00  0.00     0.174 HD
ENDBRANCH   4  23
TORSDOF 10
ENDMDL