MODEL 1
REMARK VINA RESULT: -7.094675925      0.000      0.000
REMARK  5 active torsions:
REMARK  status: ('A' for Active; 'I' for Inactive)
REMARK    1  A    between atoms: C5_7  and  N2_8
REMARK    2  A    between atoms: N2_8  and  C6_10
REMARK    3  A    between atoms: C6_10  and  C7_11
REMARK    4  A    between atoms: C7_11  and  N3_12
REMARK    5  A    between atoms: C9_15  and  C10_16
ROOT
HETATM    1  N2  UNL     1      14.837 -13.935   9.860  1.00  0.00    -0.225 N
ATOM      2  H2  UNL     1      14.548 -13.119  10.401  1.00  0.00     0.177 HD
ENDROOT
BRANCH   1   3
HETATM    3  C5  UNL     1      15.365 -13.683   8.567  1.00  0.00     0.670 C
HETATM    4  N1  UNL     1      16.504 -12.926   8.196  1.00  0.00    -0.224 N
HETATM    5  C4  UNL     1      16.883 -13.376   6.861  1.00  0.00     0.168 C
ATOM      6  H1  UNL     1      16.968 -12.208   8.752  1.00  0.00     0.177 HD
HETATM    7  C2  UNL     1      15.516 -13.754   6.333  1.00  0.00     0.056 C
HETATM    8  C1  UNL     1      14.859 -12.503   5.786  1.00  0.00     0.040 C
HETATM    9  C3  UNL     1      15.599 -14.838   5.277  1.00  0.00     0.040 C
HETATM   10  N4  UNL     1      14.796 -14.160   7.492  1.00  0.00    -0.216 N
ATOM     11  H4  UNL     1      13.957 -14.740   7.485  1.00  0.00     0.178 HD
ENDBRANCH   1   3
BRANCH   1  12
HETATM   12  C6  UNL     1      14.665 -15.208  10.486  1.00  0.00     0.158 C
BRANCH  12  13
HETATM   13  C7  UNL     1      13.256 -15.396  10.937  1.00  0.00     0.147 C
BRANCH  13  14
HETATM   14  N3  UNL     1      12.456 -16.085   9.942  1.00  0.00    -0.335 N
HETATM   15  C8  UNL     1      12.384 -17.355   9.174  1.00  0.00     0.244 A
HETATM   16  O1  UNL     1      12.872 -18.474   8.907  1.00  0.00    -0.271 OA
HETATM   17  C9  UNL     1      11.373 -16.268   9.038  1.00  0.00     0.183 A
BRANCH  17  18
HETATM   18  C10 UNL     1      11.358 -15.374   7.853  1.00  0.00     0.018 C
HETATM   19  C11 UNL     1      10.032 -15.426   7.110  1.00  0.00     0.007 C
HETATM   20  C12 UNL     1      10.309 -14.338   6.056  1.00  0.00     0.000 C
HETATM   21  C13 UNL     1      11.181 -13.310   6.770  1.00  0.00     0.000 C
HETATM   22  C14 UNL     1      11.459 -13.904   8.158  1.00  0.00     0.007 C
ENDBRANCH  17  18
ENDBRANCH  13  14
ENDBRANCH  12  13
ENDBRANCH   1  12
TORSDOF 5
ENDMDL