MODEL 2
REMARK VINA RESULT: -5.773275643      2.424      4.516
REMARK  6 active torsions:
REMARK  status: ('A' for Active; 'I' for Inactive)
REMARK    1  A    between atoms: N1_4  and  N2_6
REMARK    2  A    between atoms: N2_6  and  C3_8
REMARK    3  A    between atoms: C3_8  and  N3_10
REMARK    4  A    between atoms: N3_10  and  C4_12
REMARK    5  A    between atoms: C4_12  and  C5_13
REMARK    6  A    between atoms: C5_13  and  N4_14
ROOT
HETATM    1  N3  UNL     1      15.750 -14.124   8.127  1.00  0.00    -0.361 N
ATOM      2  H3  UNL     1      16.723 -14.419   8.210  1.00  0.00     0.162 HD
ENDROOT
BRANCH   1   3
HETATM    3  C3  UNL     1      15.191 -13.953   6.815  1.00  0.00     0.186 C
HETATM    4  S1  UNL     1      16.075 -14.180   5.468  1.00  0.00    -0.040 SA
BRANCH   3   5
HETATM    5  N2  UNL     1      13.834 -13.569   6.665  1.00  0.00    -0.275 N
ATOM      6  H2  UNL     1      13.567 -12.584   6.694  1.00  0.00     0.189 HD
BRANCH   5   7
HETATM    7  N1  UNL     1      12.872 -14.559   6.478  1.00  0.00    -0.292 N
HETATM    8  C2  UNL     1      11.627 -14.332   6.567  1.00  0.00     0.091 C
HETATM    9  C1  UNL     1      11.149 -12.970   6.879  1.00  0.00     0.083 C
HETATM   10 CL1  UNL     1      10.459 -15.596   6.328  1.00  0.00    -0.068 Cl
ATOM     11  H1  UNL     1      13.181 -15.506   6.261  1.00  0.00     0.187 HD
ENDBRANCH   5   7
ENDBRANCH   3   5
ENDBRANCH   1   3
BRANCH   1  12
HETATM   12  C4  UNL     1      14.994 -13.896   9.323  1.00  0.00     0.166 C
BRANCH  12  13
HETATM   13  C5  UNL     1      15.104 -14.974  10.370  1.00  0.00     0.082 C
BRANCH  13  14
HETATM   14  N4  UNL     1      13.994 -15.803  10.519  1.00  0.00    -0.372 N
HETATM   15  C6  UNL     1      13.887 -16.680  11.586  1.00  0.00     0.063 C
HETATM   16  C7  UNL     1      12.530 -17.208  11.903  1.00  0.00     0.044 C
HETATM   17  C8  UNL     1      11.550 -17.256  10.785  1.00  0.00     0.007 C
HETATM   18  C9  UNL     1      12.210 -16.937   9.447  1.00  0.00     0.021 C
HETATM   19  C10 UNL     1      12.881 -15.578   9.680  1.00  0.00     0.127 C
ENDBRANCH  13  14
ENDBRANCH  12  13
ENDBRANCH   1  12
TORSDOF 6
ENDMDL