MODEL 2
REMARK VINA RESULT: -6.956459129      2.685      5.223
REMARK  6 active torsions:
REMARK  status: ('A' for Active; 'I' for Inactive)
REMARK    1  A    between atoms: C3_6  and  N2_7
REMARK    2  A    between atoms: N2_7  and  C4_9
REMARK    3  A    between atoms: C4_9  and  C5_10
REMARK    4  A    between atoms: C10_18  and  N4_19
REMARK    5  A    between atoms: N4_19  and  C11_21
REMARK    6  A    between atoms: C11_21  and  C12_22
ROOT
HETATM    1  F1  UNL     1      12.268 -17.601  11.139  1.00  0.00    -0.201 F
HETATM    2  C1  UNL     1      12.984 -16.603  10.566  1.00  0.00     0.176 A
HETATM    3  C2  UNL     1      14.239 -16.311  11.018  1.00  0.00     0.152 A
HETATM    4  N1  UNL     1      14.926 -15.318  10.432  1.00  0.00    -0.199 N
ATOM      5  H1  UNL     1      15.865 -15.092  10.762  1.00  0.00     0.183 HD
HETATM    6  C3  UNL     1      14.393 -14.617   9.416  1.00  0.00     0.679 A
HETATM    7  N3  UNL     1      13.160 -14.880   8.948  1.00  0.00    -0.174 N
ATOM      8  H3  UNL     1      12.764 -14.341   8.178  1.00  0.00     0.186 HD
HETATM    9  C10 UNL     1      12.468 -15.870   9.527  1.00  0.00     0.157 A
ENDROOT
BRANCH   6  10
HETATM   10  N2  UNL     1      15.063 -13.679   8.876  1.00  0.00    -0.224 N
ATOM     11  H2  UNL     1      14.825 -12.723   9.139  1.00  0.00     0.177 HD
BRANCH  10  12
HETATM   12  C4  UNL     1      16.124 -13.857   7.931  1.00  0.00     0.170 C
BRANCH  12  13
HETATM   13  C5  UNL     1      15.493 -14.110   6.550  1.00  0.00     0.139 C
HETATM   14  C6  UNL     1      14.572 -12.987   6.257  1.00  0.00     0.034 C
HETATM   15  C7  UNL     1      15.192 -11.874   5.479  1.00  0.00     0.005 C
HETATM   16  C8  UNL     1      15.895 -12.506   4.284  1.00  0.00     0.026 C
HETATM   17  C9  UNL     1      16.942 -13.460   4.819  1.00  0.00     0.168 C
HETATM   18  O1  UNL     1      16.492 -14.391   5.687  1.00  0.00    -0.384 OA
ENDBRANCH  12  13
ENDBRANCH  10  12
ENDBRANCH   6  10
BRANCH   9  19
HETATM   19  N4  UNL     1      11.288 -16.147   9.106  1.00  0.00    -0.373 N
ATOM     20  H4  UNL     1      10.558 -16.325   9.797  1.00  0.00     0.161 HD
BRANCH  19  21
HETATM   21  C11 UNL     1      10.939 -16.221   7.716  1.00  0.00     0.126 C
BRANCH  21  22
HETATM   22  C12 UNL     1      10.068 -15.028   7.369  1.00  0.00     0.003 A
HETATM   23  C13 UNL     1       9.820 -14.868   5.868  1.00  0.00     0.007 A
HETATM   24  C14 UNL     1      10.655 -13.887   6.631  1.00  0.00     0.007 A
ENDBRANCH  21  22
ENDBRANCH  19  21
ENDBRANCH   9  19
TORSDOF 6
ENDMDL