MODEL 2
REMARK VINA RESULT: -5.694708472      3.038      5.143
REMARK  5 active torsions:
REMARK  status: ('A' for Active; 'I' for Inactive)
REMARK       I    between atoms: C2_2  and  N1_4
REMARK    1  A    between atoms: N1_4  and  C3_6
REMARK    2  A    between atoms: C3_6  and  C4_7
REMARK    3  A    between atoms: C6_9  and  N2_10
REMARK    4  A    between atoms: N3_15  and  C8_16
REMARK    5  A    between atoms: C8_16  and  C9_17
ROOT
HETATM    1  C4  UNL     1      15.478 -13.471   5.209  1.00  0.00     0.242 C
HETATM    2  C5  UNL     1      16.908 -13.323   5.797  1.00  0.00     0.072 C
HETATM    3  C6  UNL     1      16.678 -13.416   7.261  1.00  0.00     0.213 C
HETATM    4  C7  UNL     1      15.262 -13.922   7.392  1.00  0.00     0.305 C
HETATM    5  N3  UNL     1      14.891 -14.422   6.076  1.00  0.00     0.097 N
ENDROOT
BRANCH   5   6
HETATM    6  C8  UNL     1      13.464 -14.546   6.078  1.00  0.00     0.280 C
BRANCH   6   7
HETATM    7  C9  UNL     1      12.973 -14.731   7.505  1.00  0.00     0.048 C
HETATM    8  C10 UNL     1      12.111 -15.945   7.666  1.00  0.00     0.009 C
HETATM    9  C11 UNL     1      10.943 -15.931   6.722  1.00  0.00     0.001 C
HETATM   10  C12 UNL     1      10.075 -14.750   7.083  1.00  0.00     0.003 C
HETATM   11  C13 UNL     1      10.843 -13.455   7.124  1.00  0.00     0.037 C
HETATM   12  C14 UNL     1      12.118 -13.529   7.896  1.00  0.00     0.175 C
HETATM   13  F1  UNL     1      11.946 -13.444   9.251  1.00  0.00    -0.249 F
ENDBRANCH   6   7
ENDBRANCH   5   6
BRANCH   1  14
HETATM   14  C3  UNL     1      14.930 -12.094   5.202  1.00  0.00     0.158 C
BRANCH  14  15
HETATM   15  N1  UNL     1      15.560 -11.130   4.370  1.00  0.00    -0.359 N
HETATM   16  C2  UNL     1      15.101  -9.797   4.217  1.00  0.00     0.213 C
HETATM   17  C1  UNL     1      15.840  -8.880   3.320  1.00  0.00     0.117 C
HETATM   18  O1  UNL     1      14.078  -9.428   4.847  1.00  0.00    -0.274 OA
ATOM     19  H1  UNL     1      16.392 -11.413   3.851  1.00  0.00     0.162 HD
ENDBRANCH  14  15
ENDBRANCH   1  14
BRANCH   3  20
HETATM   20  N2  UNL     1      16.813 -12.189   7.986  1.00  0.00    -0.073 N
ATOM     21  H23 UNL     1      17.800 -11.956   8.097  1.00  0.00     0.274 HD
ATOM     22  H22 UNL     1      16.506 -11.406   7.408  1.00  0.00     0.274 HD
ATOM     23  H21 UNL     1      16.345 -12.159   8.891  1.00  0.00     0.274 HD
ENDBRANCH   3  20
TORSDOF 5
ENDMDL