MODEL 3
REMARK VINA RESULT: -6.188406743      0.943      1.178
REMARK  4 active torsions:
REMARK  status: ('A' for Active; 'I' for Inactive)
REMARK    1  A    between atoms: C7_10  and  C8_11
REMARK    2  A    between atoms: C8_11  and  O2_12
REMARK    3  A    between atoms: O2_12  and  C9_13
REMARK    4  A    between atoms: C9_13  and  C10_14
ROOT
HETATM    1  O1  UNL     1      14.986 -13.767   9.736  1.00  0.00    -0.273 OA
HETATM    2  C1  UNL     1      14.062 -14.600   9.914  1.00  0.00     0.222 C
HETATM    3  N1  UNL     1      14.207 -15.734  10.797  1.00  0.00    -0.360 N
ATOM      4  H1  UNL     1      14.996 -15.895  11.424  1.00  0.00     0.162 HD
HETATM    5  C2  UNL     1      13.057 -16.608  10.655  1.00  0.00     0.128 C
HETATM    6  C3  UNL     1      12.585 -16.239   9.266  1.00  0.00     0.017 C
HETATM    7  C4  UNL     1      11.147 -16.512   9.010  1.00  0.00     0.007 C
HETATM    8  C5  UNL     1      10.836 -15.913   7.632  1.00  0.00     0.001 C
HETATM    9  C6  UNL     1      11.076 -14.445   7.622  1.00  0.00     0.007 C
HETATM   10  C7  UNL     1      12.462 -14.042   8.072  1.00  0.00     0.023 C
HETATM   11  C14 UNL     1      12.714 -14.712   9.377  1.00  0.00     0.089 C
ENDROOT
BRANCH  10  12
HETATM   12  C8  UNL     1      13.441 -14.347   7.005  1.00  0.00     0.173 C
BRANCH  12  13
HETATM   13  O2  UNL     1      13.683 -13.247   6.208  1.00  0.00    -0.389 OA
BRANCH  13  14
HETATM   14  C9  UNL     1      14.998 -13.038   5.866  1.00  0.00     0.200 C
BRANCH  14  15
HETATM   15  C10 UNL     1      15.228 -11.566   5.511  1.00  0.00     0.212 C
HETATM   16  C11 UNL     1      13.866 -10.896   5.332  1.00  0.00     0.074 C
HETATM   17  C12 UNL     1      13.958 -10.112   4.043  1.00  0.00     0.197 C
HETATM   18  F1  UNL     1      13.710  -8.778   4.300  1.00  0.00    -0.248 F
HETATM   19  C13 UNL     1      15.383 -10.283   3.589  1.00  0.00     0.269 C
HETATM   20  N2  UNL     1      15.879 -11.483   4.237  1.00  0.00    -0.066 N
ATOM     21  H22 UNL     1      16.897 -11.513   4.303  1.00  0.00     0.277 HD
ATOM     22  H21 UNL     1      15.762 -12.323   3.671  1.00  0.00     0.277 HD
ENDBRANCH  14  15
ENDBRANCH  13  14
ENDBRANCH  12  13
ENDBRANCH  10  12
TORSDOF 4
ENDMDL