MODEL 5
REMARK VINA RESULT: -5.192918067      1.718      3.959
REMARK  4 active torsions:
REMARK  status: ('A' for Active; 'I' for Inactive)
REMARK    1  A    between atoms: C2_2  and  N1_3
REMARK    2  A    between atoms: N1_3  and  C3_5
REMARK    3  A    between atoms: C5_7  and  C6_8
REMARK    4  A    between atoms: C6_8  and  N2_9
ROOT
HETATM    1  C3  UNL     1      12.519 -15.688   9.735  1.00  0.00     0.090 C
HETATM    2  C4  UNL     1      13.842 -15.069  10.027  1.00  0.00     0.032 C
HETATM    3  C5  UNL     1      14.401 -14.664   8.636  1.00  0.00     0.022 C
HETATM    4  C9  UNL     1      13.260 -14.698   7.726  1.00  0.00     0.020 C
HETATM    5  C10 UNL     1      13.020 -13.511   6.840  1.00  0.00     0.125 C
HETATM    6  N3  UNL     1      11.628 -13.523   6.361  1.00  0.00    -0.392 N
ATOM      7  H3  UNL     1      11.317 -12.769   5.747  1.00  0.00     0.159 HD
HETATM    8  C11 UNL     1      10.695 -14.539   6.717  1.00  0.00     0.019 C
HETATM    9  C12 UNL     1       9.523 -14.868   5.867  1.00  0.00     0.069 C
HETATM   10  C13 UNL     1      10.903 -15.179   7.866  1.00  0.00     0.040 C
HETATM   11 CL1  UNL     1       9.785 -16.432   8.339  1.00  0.00    -0.086 Cl
HETATM   12  C14 UNL     1      12.056 -14.756   8.639  1.00  0.00     0.061 C
ENDROOT
BRANCH   1  13
HETATM   13  N1  UNL     1      12.361 -17.030   9.486  1.00  0.00    -0.397 N
ATOM     14  H1  UNL     1      12.385 -17.332   8.512  1.00  0.00     0.159 HD
BRANCH  13  15
HETATM   15  C2  UNL     1      12.170 -18.014  10.461  1.00  0.00     0.051 C
HETATM   16  C1  UNL     1      11.810 -17.700  11.852  1.00  0.00     0.054 C
ENDBRANCH  13  15
ENDBRANCH   1  13
BRANCH   3  17
HETATM   17  C6  UNL     1      15.167 -13.392   8.768  1.00  0.00     0.276 C
BRANCH  17  18
HETATM   18  N2  UNL     1      16.395 -13.376   8.063  1.00  0.00     0.080 N
HETATM   19  C7  UNL     1      17.093 -12.125   8.069  1.00  0.00     0.309 C
HETATM   20  C8  UNL     1      16.310 -13.963   6.741  1.00  0.00     0.309 C
ENDBRANCH  17  18
ENDBRANCH   3  17
TORSDOF 4
ENDMDL