MODEL 1
REMARK VINA RESULT: -5.340954015      0.000      0.000
REMARK  8 active torsions:
REMARK  status: ('A' for Active; 'I' for Inactive)
REMARK    1  A    between atoms: C2_2  and  C3_3
REMARK    2  A    between atoms: C3_3  and  C4_4
REMARK    3  A    between atoms: C4_4  and  N1_5
REMARK    4  A    between atoms: N1_5  and  C5_7
REMARK    5  A    between atoms: C5_7  and  N2_8
REMARK    6  A    between atoms: C5_7  and  S1_17
REMARK    7  A    between atoms: N2_8  and  N3_10
REMARK    8  A    between atoms: S1_17  and  C11_18
ROOT
HETATM    1  C5  UNL     1      13.730 -14.732  10.024  1.00  0.00     0.156 C
ENDROOT
BRANCH   1   2
HETATM    2  N1  UNL     1      14.920 -13.979   9.804  1.00  0.00    -0.370 N
ATOM      3  H1  UNL     1      15.172 -13.235  10.455  1.00  0.00     0.161 HD
BRANCH   2   4
HETATM    4  C4  UNL     1      15.775 -14.255   8.673  1.00  0.00     0.121 C
BRANCH   4   5
HETATM    5  C3  UNL     1      16.209 -12.966   8.049  1.00  0.00     0.019 C
BRANCH   5   6
HETATM    6  C2  UNL     1      15.858 -12.914   6.567  1.00  0.00    -0.003 C
HETATM    7  C1  UNL     1      15.679 -14.305   6.024  1.00  0.00     0.005 C
ENDBRANCH   5   6
ENDBRANCH   4   5
ENDBRANCH   2   4
ENDBRANCH   1   2
BRANCH   1   8
HETATM    8  N2  UNL     1      12.501 -14.412   9.339  1.00  0.00    -0.275 N
ATOM      9  H2  UNL     1      11.720 -14.073   9.900  1.00  0.00     0.189 HD
BRANCH   8  10
HETATM   10  N3  UNL     1      12.313 -14.532   8.010  1.00  0.00    -0.281 N
HETATM   11  C6  UNL     1      12.143 -13.392   7.221  1.00  0.00     0.118 C
HETATM   12  C7  UNL     1      10.782 -13.435   6.559  1.00  0.00     0.319 C
HETATM   13  N4  UNL     1      10.487 -14.721   5.990  1.00  0.00     0.093 N
HETATM   14  C8  UNL     1       9.212 -14.695   5.358  1.00  0.00     0.310 C
HETATM   15  C9  UNL     1      10.636 -15.812   6.919  1.00  0.00     0.319 C
HETATM   16  C10 UNL     1      12.057 -15.789   7.455  1.00  0.00     0.118 C
ENDBRANCH   8  10
ENDBRANCH   1   8
BRANCH   1  17
HETATM   17  S1  UNL     1      13.710 -15.985  11.058  1.00  0.00    -0.078 SA
BRANCH  17  18
HETATM   18  C11 UNL     1      12.777 -17.483  10.592  1.00  0.00     0.197 C
HETATM   19 CL1  UNL     1      11.276 -17.489  11.562  1.00  0.00    -0.119 Cl
ENDBRANCH  17  18
ENDBRANCH   1  17
TORSDOF 8
ENDMDL