MODEL 5
REMARK VINA RESULT: -5.622253382      2.271      3.959
REMARK  3 active torsions:
REMARK  status: ('A' for Active; 'I' for Inactive)
REMARK    1  A    between atoms: C2_2  and  O1_3
REMARK    2  A    between atoms: O1_3  and  C3_4
REMARK    3  A    between atoms: C11_12  and  N1_13
ROOT
HETATM    1  C3  UNL     1      11.862 -16.051   8.668  1.00  0.00     0.148 C
HETATM    2  C4  UNL     1      11.600 -16.111   7.173  1.00  0.00     0.017 C
HETATM    3  C5  UNL     1      10.154 -15.809   6.861  1.00  0.00     0.007 C
HETATM    4  C6  UNL     1      10.112 -14.622   5.928  1.00  0.00     0.001 C
HETATM    5  C7  UNL     1      10.822 -13.486   6.628  1.00  0.00     0.005 C
HETATM    6  C8  UNL     1      12.253 -13.844   6.829  1.00  0.00    -0.012 C
HETATM    7  C9  UNL     1      12.590 -15.275   6.454  1.00  0.00     0.012 C
HETATM    8  C10 UNL     1      12.726 -13.697   8.267  1.00  0.00     0.032 C
HETATM    9  C11 UNL     1      12.125 -14.677   9.212  1.00  0.00     0.111 C
ENDROOT
BRANCH   9  10
HETATM   10  N1  UNL     1      12.727 -14.860  10.437  1.00  0.00    -0.379 N
HETATM   11  C12 UNL     1      13.997 -15.197  10.790  1.00  0.00     0.110 C
HETATM   12  C13 UNL     1      14.599 -16.479  10.390  1.00  0.00     0.266 C
HETATM   13  C15 UNL     1      15.076 -14.150  10.659  1.00  0.00     0.242 C
HETATM   14  O2  UNL     1      14.019 -17.579  10.295  1.00  0.00    -0.266 OA
HETATM   15  N2  UNL     1      15.986 -16.271  10.124  1.00  0.00    -0.353 N
HETATM   16  C14 UNL     1      16.114 -14.864   9.807  1.00  0.00     0.166 C
ATOM     17  H2  UNL     1      16.730 -16.967  10.151  1.00  0.00     0.162 HD
HETATM   18  F1  UNL     1      14.643 -12.973  10.144  1.00  0.00    -0.241 F
ATOM     19  H1  UNL     1      12.102 -14.716  11.230  1.00  0.00     0.160 HD
ENDBRANCH   9  10
BRANCH   1  20
HETATM   20  O1  UNL     1      10.712 -16.563   9.294  1.00  0.00    -0.384 OA
BRANCH  20  21
HETATM   21  C2  UNL     1      10.858 -17.667  10.048  1.00  0.00     0.163 C
HETATM   22  C1  UNL     1      11.030 -17.539  11.529  1.00  0.00     0.033 C
ENDBRANCH  20  21
ENDBRANCH   1  20
TORSDOF 3
ENDMDL