MODEL 2
REMARK VINA RESULT: -5.523936720      1.869      2.873
REMARK  7 active torsions:
REMARK  status: ('A' for Active; 'I' for Inactive)
REMARK    1  A    between atoms: C2_2  and  C3_3
REMARK    2  A    between atoms: C3_3  and  O1_4
REMARK    3  A    between atoms: C3_3  and  N1_6
REMARK    4  A    between atoms: C3_3  and  C10_17
REMARK    5  A    between atoms: N1_6  and  C4_9
REMARK    6  A    between atoms: C4_9  and  C5_10
REMARK    7  A    between atoms: C5_10  and  N2_11
ROOT
HETATM    1  N1  UNL     1      13.695 -16.027  10.318  1.00  0.00    -0.041 N
ATOM      2  H11 UNL     1      14.619 -16.457  10.361  1.00  0.00     0.280 HD
ATOM      3  H12 UNL     1      13.601 -15.717  11.285  1.00  0.00     0.280 HD
ENDROOT
BRANCH   1   4
HETATM    4  C3  UNL     1      12.674 -17.037  10.002  1.00  0.00     0.227 C
BRANCH   4   5
HETATM    5  C2  UNL     1      12.081 -16.694   8.680  1.00  0.00     0.064 C
HETATM    6  C1  UNL     1      10.582 -16.860   8.603  1.00  0.00     0.010 C
ENDBRANCH   4   5
BRANCH   4   7
HETATM    7  O1  UNL     1      13.435 -18.238   9.908  1.00  0.00    -0.365 OA
ATOM      8  H1  UNL     1      14.282 -18.127  10.324  1.00  0.00     0.212 HD
ENDBRANCH   4   7
BRANCH   4   9
HETATM    9  C10 UNL     1      11.734 -17.193  11.144  1.00  0.00     0.049 A
HETATM   10  C11 UNL     1      11.904 -16.605  12.485  1.00  0.00     0.010 A
HETATM   11  C12 UNL     1      11.938 -18.132  12.266  1.00  0.00     0.010 A
ENDBRANCH   4   9
ENDBRANCH   1   4
BRANCH   1  12
HETATM   12  C4  UNL     1      13.706 -14.916   9.441  1.00  0.00     0.255 C
BRANCH  12  13
HETATM   13  C5  UNL     1      14.970 -14.076   9.580  1.00  0.00     0.149 C
BRANCH  13  14
HETATM   14  N2  UNL     1      15.577 -13.972   8.303  1.00  0.00    -0.390 N
HETATM   15  C6  UNL     1      16.365 -12.849   8.019  1.00  0.00     0.068 C
HETATM   16  C7  UNL     1      15.811 -11.896   6.985  1.00  0.00     0.118 C
HETATM   17  S1  UNL     1      15.715 -12.825   5.425  1.00  0.00    -0.162 SA
HETATM   18  C8  UNL     1      15.577 -14.583   5.949  1.00  0.00     0.094 C
HETATM   19  C9  UNL     1      14.838 -14.564   7.250  1.00  0.00     0.132 C
ENDBRANCH  13  14
ENDBRANCH  12  13
ENDBRANCH   1  12
TORSDOF 7
ENDMDL