MODEL 1
REMARK VINA RESULT: -7.201341972      0.000      0.000
REMARK  6 active torsions:
REMARK  status: ('A' for Active; 'I' for Inactive)
REMARK    1  A    between atoms: C3_5  and  C4_6
REMARK    2  A    between atoms: C4_6  and  N2_7
REMARK    3  A    between atoms: C8_11  and  C9_12
REMARK    4  A    between atoms: C9_12  and  N3_13
REMARK    5  A    between atoms: N3_13  and  C10_15
REMARK    6  A    between atoms: C10_15  and  C11_16
ROOT
HETATM    1  N2  UNL     1      12.472 -14.543   6.839  1.00  0.00     0.103 N
HETATM    2  C5  UNL     1      11.621 -13.334   6.970  1.00  0.00     0.274 C
HETATM    3  C6  UNL     1      10.259 -13.851   6.556  1.00  0.00     0.033 C
HETATM    4  C7  UNL     1      10.317 -15.339   6.904  1.00  0.00     0.043 C
HETATM    5  C8  UNL     1      11.635 -15.472   7.590  1.00  0.00     0.261 C
ENDROOT
BRANCH   5   6
HETATM    6  C9  UNL     1      12.193 -16.842   7.597  1.00  0.00     0.091 C
BRANCH   6   7
HETATM    7  N3  UNL     1      11.907 -17.672   8.675  1.00  0.00    -0.398 N
ATOM      8  H3  UNL     1      11.877 -18.680   8.518  1.00  0.00     0.158 HD
BRANCH   7   9
HETATM    9  C10 UNL     1      11.659 -17.191   9.964  1.00  0.00     0.150 C
BRANCH   9  10
HETATM   10  C11 UNL     1      12.640 -17.926  10.906  1.00  0.00     0.139 C
HETATM   11  C12 UNL     1      12.417 -17.596  12.340  1.00  0.00     0.035 C
HETATM   12  C13 UNL     1      13.436 -16.515  12.597  1.00  0.00     0.029 C
HETATM   13  C14 UNL     1      14.106 -16.360  11.250  1.00  0.00     0.168 C
HETATM   14  O1  UNL     1      13.930 -17.560  10.569  1.00  0.00    -0.384 OA
ENDBRANCH   9  10
ENDBRANCH   7   9
ENDBRANCH   6   7
ENDBRANCH   5   6
BRANCH   1  15
HETATM   15  C4  UNL     1      13.748 -14.317   7.483  1.00  0.00     0.331 C
BRANCH  15  16
HETATM   16  C3  UNL     1      14.779 -13.985   6.460  1.00  0.00     0.054 A
HETATM   17  C2  UNL     1      15.533 -14.893   5.765  1.00  0.00     0.115 A
HETATM   18  N1  UNL     1      16.339 -14.208   4.959  1.00  0.00    -0.360 N
HETATM   19  C1  UNL     1      16.121 -12.883   5.123  1.00  0.00     0.180 A
ATOM     20  H1  UNL     1      17.017 -14.618   4.316  1.00  0.00     0.166 HD
HETATM   21  N4  UNL     1      15.149 -12.761   6.060  1.00  0.00    -0.353 N
ATOM     22  H4  UNL     1      14.762 -11.882   6.404  1.00  0.00     0.166 HD
ENDBRANCH  15  16
ENDBRANCH   1  15
TORSDOF 6
ENDMDL