MODEL 1
REMARK VINA RESULT: -6.239399521      0.000      0.000
REMARK  7 active torsions:
REMARK  status: ('A' for Active; 'I' for Inactive)
REMARK    1  A    between atoms: N1_1  and  C1_4
REMARK    2  A    between atoms: N2_7  and  C4_8
REMARK    3  A    between atoms: C4_8  and  C5_9
REMARK    4  A    between atoms: C5_9  and  C6_10
REMARK    5  A    between atoms: C6_10  and  C7_11
REMARK    6  A    between atoms: C7_11  and  C8_12
REMARK    7  A    between atoms: C8_12  and  N3_13
ROOT
HETATM    1  C5  UNL     1      13.354 -14.367   9.443  1.00  0.00     0.030 C
ENDROOT
BRANCH   1   2
HETATM    2  C4  UNL     1      12.831 -15.711   9.868  1.00  0.00     0.272 C
BRANCH   2   3
HETATM    3  N2  UNL     1      12.399 -16.346   8.586  1.00  0.00     0.089 N
HETATM    4  C3  UNL     1      11.005 -16.735   8.754  1.00  0.00     0.278 C
HETATM    5  C2  UNL     1      10.016 -15.983   7.931  1.00  0.00     0.082 C
HETATM    6  C1  UNL     1      10.376 -14.628   7.624  1.00  0.00    -0.017 C
HETATM    7  C14 UNL     1      11.650 -15.261   6.446  1.00  0.00     0.082 C
HETATM    8  C13 UNL     1      12.638 -15.435   7.511  1.00  0.00     0.278 C
BRANCH   6   9
HETATM    9  N1  UNL     1      10.665 -13.572   7.377  1.00  0.00    -0.405 N
ATOM     10  H12 UNL     1      11.021 -13.443   8.324  1.00  0.00     0.155 HD
ATOM     11  H11 UNL     1      10.931 -12.611   7.161  1.00  0.00     0.155 HD
ENDBRANCH   6   9
ENDBRANCH   2   3
ENDBRANCH   1   2
BRANCH   1  12
HETATM   12  C6  UNL     1      14.715 -14.072  10.093  1.00  0.00     0.003 C
BRANCH  12  13
HETATM   13  C7  UNL     1      15.675 -14.118   8.934  1.00  0.00     0.030 C
BRANCH  13  14
HETATM   14  C8  UNL     1      15.684 -12.984   8.005  1.00  0.00     0.272 C
BRANCH  14  15
HETATM   15  N3  UNL     1      15.337 -13.376   6.638  1.00  0.00     0.091 N
HETATM   16  C9  UNL     1      16.570 -13.136   5.889  1.00  0.00     0.300 C
HETATM   17  C10 UNL     1      16.391 -12.618   4.511  1.00  0.00     0.262 C
HETATM   18  N4  UNL     1      15.541 -11.447   4.478  1.00  0.00    -0.072 N
HETATM   19  C11 UNL     1      14.903 -11.192   5.743  1.00  0.00     0.262 C
ATOM     20  H42 UNL     1      16.057 -10.628   4.156  1.00  0.00     0.277 HD
ATOM     21  H41 UNL     1      14.854 -11.513   3.727  1.00  0.00     0.277 HD
HETATM   22  C12 UNL     1      14.276 -12.493   6.193  1.00  0.00     0.300 C
ENDBRANCH  14  15
ENDBRANCH  13  14
ENDBRANCH  12  13
ENDBRANCH   1  12
TORSDOF 7
ENDMDL