MODEL 5
REMARK VINA RESULT: -5.539692599      2.259      4.192
REMARK  6 active torsions:
REMARK  status: ('A' for Active; 'I' for Inactive)
REMARK    1  A    between atoms: C2_2  and  O1_3
REMARK    2  A    between atoms: O1_3  and  C3_4
REMARK    3  A    between atoms: C3_4  and  C4_5
REMARK    4  A    between atoms: C4_5  and  N1_6
REMARK    5  A    between atoms: N1_6  and  C5_7
REMARK    6  A    between atoms: N1_6  and  C9_14
ROOT
HETATM    1  N1  UNL     1      13.338 -14.507   8.424  1.00  0.00    -0.364 N
ENDROOT
BRANCH   1   2
HETATM    2  C4  UNL     1      13.746 -15.188   9.565  1.00  0.00     0.086 C
BRANCH   2   3
HETATM    3  C3  UNL     1      12.939 -14.868  10.783  1.00  0.00     0.212 C
BRANCH   3   4
HETATM    4  O1  UNL     1      12.153 -16.012  11.061  1.00  0.00    -0.387 OA
BRANCH   4   5
HETATM    5  C2  UNL     1      12.933 -17.105  11.355  1.00  0.00     0.163 C
HETATM    6  C1  UNL     1      13.411 -16.952  12.795  1.00  0.00     0.033 C
ENDBRANCH   4   5
ENDBRANCH   3   4
ENDBRANCH   2   3
ENDBRANCH   1   2
BRANCH   1   7
HETATM    7  C5  UNL     1      12.057 -14.525   7.930  1.00  0.00     0.112 C
HETATM    8  C6  UNL     1      11.579 -13.543   6.918  1.00  0.00     0.054 C
HETATM    9  C7  UNL     1      10.219 -14.144   6.524  1.00  0.00     0.234 C
HETATM   10  N2  UNL     1      10.279 -15.531   6.793  1.00  0.00    -0.073 N
HETATM   11  C8  UNL     1      11.642 -15.824   7.240  1.00  0.00     0.257 C
ATOM     12  H22 UNL     1       9.566 -15.842   7.453  1.00  0.00     0.277 HD
ATOM     13  H21 UNL     1       9.985 -16.106   6.003  1.00  0.00     0.277 HD
ENDBRANCH   1   7
BRANCH   1  14
HETATM   14  C9  UNL     1      14.377 -13.925   7.632  1.00  0.00     0.188 C
HETATM   15  C10 UNL     1      15.477 -13.424   8.586  1.00  0.00     0.120 C
HETATM   16  S1  UNL     1      16.659 -12.553   7.515  1.00  0.00    -0.164 SA
HETATM   17  C11 UNL     1      16.027 -12.818   5.820  1.00  0.00     0.093 C
HETATM   18  C12 UNL     1      15.751 -14.281   5.680  1.00  0.00     0.126 C
HETATM   19  N3  UNL     1      14.874 -14.844   6.671  1.00  0.00    -0.400 N
ATOM     20  H3  UNL     1      14.627 -15.833   6.682  1.00  0.00     0.155 HD
ENDBRANCH   1  14
TORSDOF 6
ENDMDL