MODEL 2
REMARK VINA RESULT: -6.318519074      1.546      2.821
REMARK  8 active torsions:
REMARK  status: ('A' for Active; 'I' for Inactive)
REMARK    1  A    between atoms: N1_4  and  C4_5
REMARK    2  A    between atoms: C4_5  and  C5_6
REMARK    3  A    between atoms: C5_6  and  C6_7
REMARK    4  A    between atoms: C6_7  and  O1_8
REMARK    5  A    between atoms: C8_11  and  N2_12
REMARK    6  A    between atoms: N2_12  and  C9_13
REMARK    7  A    between atoms: N2_12  and  C12_17
REMARK    8  A    between atoms: C9_13  and  C10_14
ROOT
HETATM    1  C10 UNL     1      14.335 -14.776  10.569  1.00  0.00     0.168 C
HETATM    2  C11 UNL     1      15.192 -15.884  10.991  1.00  0.00     0.064 C
HETATM    3  N3  UNL     1      15.889 -16.767  11.308  1.00  0.00    -0.197 NA
ENDROOT
BRANCH   1   4
HETATM    4  C9  UNL     1      13.014 -15.367  10.140  1.00  0.00     0.073 C
BRANCH   4   5
HETATM    5  N2  UNL     1      12.767 -15.262   8.785  1.00  0.00    -0.381 N
BRANCH   5   6
HETATM    6  C8  UNL     1      12.995 -14.239   7.947  1.00  0.00     0.107 C
HETATM    7  C2  UNL     1      12.127 -13.807   6.834  1.00  0.00     0.024 C
HETATM    8  C1  UNL     1      10.751 -13.361   7.139  1.00  0.00     0.014 C
HETATM    9  C3  UNL     1      12.987 -12.588   6.372  1.00  0.00     0.128 C
HETATM   10  N1  UNL     1      14.263 -13.109   6.460  1.00  0.00    -0.391 N
HETATM   11  C7  UNL     1      14.331 -14.327   7.141  1.00  0.00     0.147 C
BRANCH  10  12
HETATM   12  C4  UNL     1      15.401 -12.372   6.185  1.00  0.00     0.060 C
BRANCH  12  13
HETATM   13  C5  UNL     1      15.858 -12.353   4.740  1.00  0.00     0.070 C
BRANCH  13  14
HETATM   14  C6  UNL     1      17.166 -13.115   4.579  1.00  0.00     0.169 C
BRANCH  14  15
HETATM   15  O1  UNL     1      16.965 -14.489   4.761  1.00  0.00    -0.401 OA
ATOM     16  H1  UNL     1      17.734 -14.979   4.494  1.00  0.00     0.209 HD
ENDBRANCH  14  15
ENDBRANCH  13  14
ENDBRANCH  12  13
ENDBRANCH  10  12
ENDBRANCH   5   6
BRANCH   5  17
HETATM   17  C12 UNL     1      12.220 -16.462   8.212  1.00  0.00     0.084 A
HETATM   18  C13 UNL     1      12.008 -17.705   8.955  1.00  0.00     0.027 A
HETATM   19  C14 UNL     1      10.834 -16.903   8.318  1.00  0.00     0.027 A
ENDBRANCH   5  17
ENDBRANCH   4   5
ENDBRANCH   1   4
TORSDOF 8
ENDMDL