MODEL 4
REMARK VINA RESULT: -6.417782415      3.068      4.985
REMARK  6 active torsions:
REMARK  status: ('A' for Active; 'I' for Inactive)
REMARK    1  A    between atoms: C2_2  and  N1_3
REMARK    2  A    between atoms: N1_3  and  C4_5
REMARK    3  A    between atoms: C4_5  and  C5_6
REMARK    4  A    between atoms: C8_9  and  N2_10
REMARK    5  A    between atoms: N2_10  and  C9_12
REMARK    6  A    between atoms: C9_12  and  C10_13
ROOT
HETATM    1  C5  UNL     1      15.190 -11.860   5.942  1.00  0.00     0.155 C
HETATM    2  C6  UNL     1      15.928 -12.334   4.719  1.00  0.00     0.052 C
HETATM    3  C7  UNL     1      14.000 -12.817   6.109  1.00  0.00     0.070 C
HETATM    4  C8  UNL     1      14.594 -13.895   6.931  1.00  0.00     0.105 C
HETATM    5  C14 UNL     1      15.485 -13.130   7.883  1.00  0.00     0.258 C
HETATM    6  N3  UNL     1      16.027 -12.061   7.112  1.00  0.00    -0.060 N
ATOM      7  H31 UNL     1      16.146 -11.208   7.658  1.00  0.00     0.278 HD
ATOM      8  H32 UNL     1      17.006 -12.212   6.870  1.00  0.00     0.278 HD
ENDROOT
BRANCH   4   9
HETATM    9  N2  UNL     1      13.666 -14.734   7.619  1.00  0.00    -0.413 N
ATOM     10  H2  UNL     1      13.511 -14.650   8.623  1.00  0.00     0.153 HD
BRANCH   9  11
HETATM   11  C9  UNL     1      12.978 -15.682   6.839  1.00  0.00     0.146 C
BRANCH  11  12
HETATM   12  C10 UNL     1      11.504 -15.656   7.277  1.00  0.00     0.138 C
HETATM   13  C11 UNL     1      11.223 -14.376   7.994  1.00  0.00     0.035 C
HETATM   14  C12 UNL     1      10.520 -13.565   6.920  1.00  0.00     0.029 C
HETATM   15  C13 UNL     1       9.863 -14.672   6.124  1.00  0.00     0.168 C
HETATM   16  O1  UNL     1      10.734 -15.750   6.155  1.00  0.00    -0.384 OA
ENDBRANCH  11  12
ENDBRANCH   9  11
ENDBRANCH   4   9
BRANCH   1  17
HETATM   17  C4  UNL     1      14.699 -10.436   5.849  1.00  0.00     0.101 C
BRANCH  17  18
HETATM   18  N1  UNL     1      13.563 -10.200   5.068  1.00  0.00    -0.376 N
HETATM   19  C3  UNL     1      12.395  -9.754   5.734  1.00  0.00     0.154 C
BRANCH  18  20
HETATM   20  C2  UNL     1      13.664 -10.005   3.683  1.00  0.00     0.058 C
HETATM   21  C1  UNL     1      14.774  -9.044   3.274  1.00  0.00     0.055 C
ENDBRANCH  18  20
ENDBRANCH  17  18
ENDBRANCH   1  17
TORSDOF 6
ENDMDL