MODEL 5
REMARK VINA RESULT: -6.113163206      1.984      5.069
REMARK  7 active torsions:
REMARK  status: ('A' for Active; 'I' for Inactive)
REMARK    1  A    between atoms: N1_1  and  C1_5
REMARK    2  A    between atoms: C1_5  and  C2_6
REMARK    3  A    between atoms: C2_6  and  C3_7
REMARK    4  A    between atoms: C2_6  and  N3_18
REMARK    5  A    between atoms: C3_7  and  C4_8
REMARK    6  A    between atoms: C4_8  and  N2_9
REMARK    7  A    between atoms: N2_9  and  C5_12
ROOT
HETATM    1  C2  UNL     1      14.375 -15.044  10.818  1.00  0.00     0.015 C
ENDROOT
BRANCH   1   2
HETATM    2  C1  UNL     1      15.845 -15.262  10.551  1.00  0.00     0.282 C
BRANCH   2   3
HETATM    3  N1  UNL     1      16.406 -16.357  11.321  1.00  0.00    -0.074 N
ATOM      4  H13 UNL     1      15.788 -16.616  12.090  1.00  0.00     0.274 HD
ATOM      5  H12 UNL     1      16.384 -17.226  10.788  1.00  0.00     0.274 HD
ATOM      6  H11 UNL     1      17.348 -16.163  11.662  1.00  0.00     0.274 HD
ENDBRANCH   2   3
ENDBRANCH   1   2
BRANCH   1   7
HETATM    7  C3  UNL     1      13.825 -14.050   9.819  1.00  0.00     0.082 C
BRANCH   7   8
HETATM    8  C4  UNL     1      14.766 -14.010   8.608  1.00  0.00     0.238 C
BRANCH   8   9
HETATM    9  N2  UNL     1      14.120 -13.723   7.372  1.00  0.00    -0.071 N
ATOM     10  H22 UNL     1      14.172 -12.737   7.119  1.00  0.00     0.277 HD
ATOM     11  H21 UNL     1      14.621 -14.097   6.567  1.00  0.00     0.277 HD
BRANCH   9  12
HETATM   12  C5  UNL     1      12.740 -14.216   7.462  1.00  0.00     0.185 C
HETATM   13  C6  UNL     1      12.596 -15.545   6.794  1.00  0.00     0.033 C
HETATM   14  C7  UNL     1      11.139 -15.982   6.867  1.00  0.00     0.002 C
HETATM   15  C8  UNL     1      10.326 -14.968   6.099  1.00  0.00     0.000 C
HETATM   16  C9  UNL     1      10.395 -13.671   6.880  1.00  0.00     0.002 C
HETATM   17  C10 UNL     1      11.814 -13.151   6.932  1.00  0.00     0.033 C
ENDBRANCH   9  12
ENDBRANCH   8   9
ENDBRANCH   7   8
ENDBRANCH   1   7
BRANCH   1  18
HETATM   18  N3  UNL     1      13.607 -16.130  11.163  1.00  0.00    -0.362 N
HETATM   19  C11 UNL     1      12.642 -16.569  10.231  1.00  0.00     0.154 C
HETATM   20  C12 UNL     1      12.588 -18.082  10.304  1.00  0.00     0.188 C
HETATM   21  O1  UNL     1      12.206 -18.468  11.539  1.00  0.00    -0.385 OA
HETATM   22  C13 UNL     1      12.426 -17.680  12.606  1.00  0.00     0.212 C
HETATM   23  C14 UNL     1      13.479 -16.602  12.478  1.00  0.00     0.089 C
ENDBRANCH   1  18
TORSDOF 7
ENDMDL