MODEL 3
REMARK VINA RESULT: -5.053052475      1.066      1.077
REMARK  8 active torsions:
REMARK  status: ('A' for Active; 'I' for Inactive)
REMARK    1  A    between atoms: C2_2  and  S1_3
REMARK    2  A    between atoms: S1_3  and  C3_4
REMARK    3  A    between atoms: C3_4  and  C4_5
REMARK    4  A    between atoms: C4_5  and  N1_6
REMARK    5  A    between atoms: N1_6  and  C5_8
REMARK    6  A    between atoms: C5_8  and  N2_10
REMARK    7  A    between atoms: N2_10  and  C6_12
REMARK    8  A    between atoms: C6_12  and  C7_13
ROOT
HETATM    1  C5  UNL     1      10.989 -15.003   7.743  1.00  0.00     0.167 C
HETATM    2  S2  UNL     1      10.071 -14.794   6.431  1.00  0.00    -0.041 SA
ENDROOT
BRANCH   1   3
HETATM    3  N1  UNL     1      12.080 -14.152   7.999  1.00  0.00    -0.367 N
ATOM      4  H1  UNL     1      12.170 -13.738   8.927  1.00  0.00     0.161 HD
BRANCH   3   5
HETATM    5  C4  UNL     1      13.069 -13.846   7.012  1.00  0.00     0.132 C
BRANCH   5   6
HETATM    6  C3  UNL     1      13.758 -15.085   6.530  1.00  0.00     0.093 C
BRANCH   6   7
HETATM    7  S1  UNL     1      15.439 -14.714   5.952  1.00  0.00    -0.168 SA
BRANCH   7   8
HETATM    8  C2  UNL     1      15.767 -12.935   6.075  1.00  0.00     0.069 C
HETATM    9  C1  UNL     1      15.874 -12.388   4.667  1.00  0.00     0.016 C
ENDBRANCH   7   8
ENDBRANCH   6   7
ENDBRANCH   5   6
ENDBRANCH   3   5
ENDBRANCH   1   3
BRANCH   1  10
HETATM   10  N2  UNL     1      10.714 -16.066   8.642  1.00  0.00    -0.363 N
ATOM     11  H2  UNL     1       9.870 -16.025   9.213  1.00  0.00     0.162 HD
BRANCH  10  12
HETATM   12  C6  UNL     1      11.596 -17.212   8.773  1.00  0.00     0.182 C
BRANCH  12  13
HETATM   13  C7  UNL     1      12.393 -17.062  10.033  1.00  0.00     0.277 C
HETATM   14  O1  UNL     1      13.497 -16.216   9.886  1.00  0.00    -0.358 OA
HETATM   15  C8  UNL     1      13.911 -15.997  11.219  1.00  0.00     0.197 C
HETATM   16  C9  UNL     1      12.675 -16.332  12.041  1.00  0.00     0.197 C
HETATM   17  O2  UNL     1      11.690 -16.374  11.040  1.00  0.00    -0.358 OA
ENDBRANCH  12  13
ENDBRANCH  10  12
ENDBRANCH   1  10
TORSDOF 8
ENDMDL