MODEL 1
REMARK VINA RESULT: -7.772913346      0.000      0.000
REMARK  7 active torsions:
REMARK  status: ('A' for Active; 'I' for Inactive)
REMARK    1  A    between atoms: O1_1  and  C1_3
REMARK    2  A    between atoms: C1_3  and  C2_4
REMARK    3  A    between atoms: C2_4  and  N1_5
REMARK    4  A    between atoms: N1_5  and  C3_8
REMARK    5  A    between atoms: C3_8  and  C4_9
REMARK    6  A    between atoms: C4_9  and  N2_10
REMARK    7  A    between atoms: C8_14  and  O2_15
ROOT
HETATM    1  N2  UNL     1      15.680 -12.856   6.708  1.00  0.00     0.107 N
HETATM    2  C5  UNL     1      15.403 -14.261   6.841  1.00  0.00     0.279 A
HETATM    3  C6  UNL     1      14.439 -14.906   5.927  1.00  0.00     0.009 C
HETATM    4  C7  UNL     1      13.201 -15.255   6.114  1.00  0.00     0.003 C
HETATM    5  C8  UNL     1      12.311 -15.141   7.278  1.00  0.00     0.140 C
HETATM    6  C9  UNL     1      11.421 -16.350   7.476  1.00  0.00     0.036 C
HETATM    7  C10 UNL     1      11.013 -16.503   8.928  1.00  0.00     0.003 C
HETATM    8  C11 UNL     1      11.907 -17.456   9.678  1.00  0.00     0.000 C
HETATM    9  C12 UNL     1      12.039 -17.089  11.144  1.00  0.00     0.000 C
HETATM   10  C13 UNL     1      12.893 -15.851  11.333  1.00  0.00     0.000 C
HETATM   11  C14 UNL     1      14.348 -16.135  11.435  1.00  0.00     0.000 C
HETATM   12  C15 UNL     1      15.172 -15.556  10.321  1.00  0.00     0.000 C
HETATM   13  C16 UNL     1      15.074 -14.057  10.242  1.00  0.00     0.002 C
HETATM   14  C17 UNL     1      15.931 -13.551   9.124  1.00  0.00     0.038 C
HETATM   15  C18 UNL     1      15.030 -13.414   7.882  1.00  0.00     0.261 A
ENDROOT
BRANCH   1  16
HETATM   16  C4  UNL     1      14.924 -11.880   6.039  1.00  0.00     0.301 C
BRANCH  16  17
HETATM   17  C3  UNL     1      15.421 -11.496   4.695  1.00  0.00     0.262 C
BRANCH  17  18
HETATM   18  N1  UNL     1      15.121 -10.125   4.339  1.00  0.00    -0.071 N
ATOM     19  H12 UNL     1      14.708 -10.077   3.407  1.00  0.00     0.277 HD
ATOM     20  H11 UNL     1      15.981  -9.600   4.173  1.00  0.00     0.277 HD
BRANCH  18  21
HETATM   21  C2  UNL     1      14.297  -9.448   5.289  1.00  0.00     0.258 C
BRANCH  21  22
HETATM   22  C1  UNL     1      12.933  -9.239   4.649  1.00  0.00     0.191 C
BRANCH  22  23
HETATM   23  O1  UNL     1      11.978  -9.247   5.675  1.00  0.00    -0.399 OA
ATOM     24  H1  UNL     1      11.822 -10.154   5.915  1.00  0.00     0.209 HD
ENDBRANCH  22  23
ENDBRANCH  21  22
ENDBRANCH  18  21
ENDBRANCH  17  18
ENDBRANCH  16  17
ENDBRANCH   1  16
BRANCH   5  25
HETATM   25  O2  UNL     1      11.523 -13.965   7.216  1.00  0.00    -0.392 OA
ATOM     26  H2  UNL     1      10.723 -14.055   7.720  1.00  0.00     0.210 HD
ENDBRANCH   5  25
TORSDOF 7
ENDMDL