MODEL 1
REMARK VINA RESULT: -6.555464649      0.000      0.000
REMARK  7 active torsions:
REMARK  status: ('A' for Active; 'I' for Inactive)
REMARK    1  A    between atoms: C2_3  and  O2_5
REMARK    2  A    between atoms: O2_5  and  C3_6
REMARK    3  A    between atoms: C3_6  and  C4_7
REMARK    4  A    between atoms: C3_6  and  N2_13
REMARK    5  A    between atoms: C4_7  and  C5_8
REMARK    6  A    between atoms: C14_18  and  O3_19
REMARK    7  A    between atoms: C15_21  and  O4_22
ROOT
HETATM    1  C1  UNL     1      15.582 -15.258  10.564  1.00  0.00     0.235 C
HETATM    2  N1  UNL     1      15.536 -14.790   9.293  1.00  0.00    -0.370 NA
HETATM    3  C2  UNL     1      15.501 -14.322   7.997  1.00  0.00     0.440 C
HETATM    4  O1  UNL     1      16.269 -14.732   7.080  1.00  0.00    -0.221 OA
ENDROOT
BRANCH   3   5
HETATM    5  O2  UNL     1      14.542 -13.328   7.685  1.00  0.00    -0.267 OA
BRANCH   5   6
HETATM    6  C3  UNL     1      13.693 -13.634   6.488  1.00  0.00     0.232 C
BRANCH   6   7
HETATM    7  C4  UNL     1      13.459 -12.409   5.786  1.00  0.00     0.059 C
BRANCH   7   8
HETATM    8  C5  UNL     1      14.297 -11.237   5.677  1.00  0.00    -0.010 C
HETATM    9  C6  UNL     1      13.353 -10.020   5.645  1.00  0.00     0.005 C
HETATM   10  C7  UNL     1      13.926  -9.135   4.590  1.00  0.00     0.000 C
HETATM   11  C8  UNL     1      14.612 -10.078   3.624  1.00  0.00     0.000 C
HETATM   12  C9  UNL     1      15.267 -11.090   4.570  1.00  0.00     0.005 C
ENDBRANCH   7   8
ENDBRANCH   6   7
BRANCH   6  13
HETATM   13  N2  UNL     1      12.762 -14.427   7.104  1.00  0.00    -0.376 N
HETATM   14  C10 UNL     1      11.813 -13.833   8.026  1.00  0.00     0.084 C
HETATM   15  C11 UNL     1      10.470 -14.237   7.461  1.00  0.00     0.027 C
HETATM   16  C16 UNL     1      11.963 -14.442   9.415  1.00  0.00     0.059 C
HETATM   17  C12 UNL     1      10.782 -15.276   6.403  1.00  0.00     0.030 C
HETATM   18  C13 UNL     1      12.218 -15.654   6.840  1.00  0.00     0.113 C
HETATM   19  C14 UNL     1      12.017 -16.554   8.048  1.00  0.00     0.169 C
HETATM   20  C15 UNL     1      12.340 -15.888   9.352  1.00  0.00     0.150 C
BRANCH  19  21
HETATM   21  O3  UNL     1      10.661 -16.985   8.053  1.00  0.00    -0.391 OA
ATOM     22  H3  UNL     1      10.647 -17.905   8.291  1.00  0.00     0.210 HD
ENDBRANCH  19  21
BRANCH  20  23
HETATM   23  O4  UNL     1      11.609 -16.563  10.343  1.00  0.00    -0.393 OA
ATOM     24  H4  UNL     1      12.226 -17.109  10.815  1.00  0.00     0.210 HD
ENDBRANCH  20  23
ENDBRANCH   6  13
ENDBRANCH   5   6
ENDBRANCH   3   5
TORSDOF 6
ENDMDL