MODEL 2
REMARK VINA RESULT: -6.431883353      1.863      5.338
REMARK  8 active torsions:
REMARK  status: ('A' for Active; 'I' for Inactive)
REMARK    1  A    between atoms: C2_2  and  O1_3
REMARK    2  A    between atoms: C2_2  and  C3_5
REMARK    3  A    between atoms: C3_5  and  N1_6
REMARK    4  A    between atoms: C3_5  and  C16_21
REMARK    5  A    between atoms: N1_6  and  C4_8
REMARK    6  A    between atoms: C4_8  and  O2_9
REMARK    7  A    between atoms: C4_8  and  C9_14
REMARK    8  A    between atoms: O2_9  and  C5_10
ROOT
HETATM    1  C4  UNL     1      13.451 -14.133   8.384  1.00  0.00     0.226 C
ENDROOT
BRANCH   1   2
HETATM    2  N1  UNL     1      14.618 -13.957   7.564  1.00  0.00    -0.380 N
ATOM      3  H1  UNL     1      15.521 -13.957   8.039  1.00  0.00     0.156 HD
BRANCH   2   4
HETATM    4  C3  UNL     1      14.629 -13.789   6.208  1.00  0.00     0.209 C
BRANCH   4   5
HETATM    5  C2  UNL     1      15.514 -12.540   5.910  1.00  0.00     0.147 C
HETATM    6  C1  UNL     1      14.644 -11.341   5.722  1.00  0.00     0.042 C
BRANCH   5   7
HETATM    7  O1  UNL     1      16.411 -12.301   6.929  1.00  0.00    -0.393 OA
ATOM      8  H1  UNL     1      17.253 -12.066   6.559  1.00  0.00     0.210 HD
ENDBRANCH   5   7
ENDBRANCH   4   5
BRANCH   4   9
HETATM    9  C16 UNL     1      15.348 -14.894   5.450  1.00  0.00     0.199 C
HETATM   10  O3  UNL     1      14.703 -15.988   5.301  1.00  0.00    -0.646 OA
HETATM   11  O4  UNL     1      16.611 -14.767   4.931  1.00  0.00    -0.646 OA
ENDBRANCH   4   9
ENDBRANCH   2   4
ENDBRANCH   1   2
BRANCH   1  12
HETATM   12  O2  UNL     1      12.663 -14.963   7.571  1.00  0.00    -0.357 OA
BRANCH  12  13
HETATM   13  C5  UNL     1      11.425 -14.647   7.252  1.00  0.00     0.052 C
HETATM   14  C6  UNL     1      10.933 -13.267   7.597  1.00  0.00     0.045 C
HETATM   15  C7  UNL     1      10.453 -15.647   7.864  1.00  0.00     0.045 C
HETATM   16  C8  UNL     1      11.148 -14.745   5.735  1.00  0.00     0.045 C
ENDBRANCH  12  13
ENDBRANCH   1  12
BRANCH   1  17
HETATM   17  C9  UNL     1      13.630 -14.906   9.646  1.00  0.00     0.001 C
HETATM   18  C10 UNL     1      15.052 -14.712  10.115  1.00  0.00     0.020 C
HETATM   19  C11 UNL     1      13.399 -16.383   9.496  1.00  0.00     0.018 C
HETATM   20  C12 UNL     1      12.961 -16.937  10.828  1.00  0.00    -0.009 A
HETATM   21  C13 UNL     1      13.498 -16.584  12.121  1.00  0.00     0.010 A
HETATM   22  C14 UNL     1      12.381 -15.802  11.557  1.00  0.00    -0.009 A
HETATM   23  C15 UNL     1      12.627 -14.582  10.720  1.00  0.00     0.018 C
ENDBRANCH   1  17
TORSDOF 8
ENDMDL