MODEL 1
REMARK VINA RESULT: -7.838838741      0.000      0.000
REMARK  7 active torsions:
REMARK  status: ('A' for Active; 'I' for Inactive)
REMARK    1  A    between atoms: C2_3  and  N2_4
REMARK       I    between atoms: N2_4  and  C3_6
REMARK    2  A    between atoms: C3_6  and  C4_8
REMARK    3  A    between atoms: C4_8  and  C5_9
REMARK    4  A    between atoms: C5_9  and  C6_10
REMARK    5  A    between atoms: C6_10  and  O2_11
REMARK    6  A    between atoms: C6_10  and  C7_13
REMARK    7  A    between atoms: C7_13  and  O3_14
ROOT
HETATM    1  N1  UNL     1      16.471 -14.969   4.644  1.00  0.00    -0.195 NA
HETATM    2  C1  UNL     1      15.755 -14.604   5.470  1.00  0.00     0.091 C
HETATM    3  C2  UNL     1      14.817 -14.123   6.522  1.00  0.00     0.122 C
HETATM    4  C13 UNL     1      14.596 -12.640   6.242  1.00  0.00     0.046 C
HETATM    5  C14 UNL     1      15.947 -11.921   6.184  1.00  0.00     0.004 C
HETATM    6  C15 UNL     1      16.844 -12.423   7.305  1.00  0.00     0.000 C
HETATM    7  C16 UNL     1      16.009 -13.021   8.425  1.00  0.00     0.004 C
HETATM    8  C17 UNL     1      15.405 -14.324   7.880  1.00  0.00     0.046 C
ENDROOT
BRANCH   3   9
HETATM    9  N2  UNL     1      13.571 -14.807   6.295  1.00  0.00    -0.339 N
HETATM   10  C3  UNL     1      12.357 -14.120   6.376  1.00  0.00     0.219 C
HETATM   11  O1  UNL     1      12.346 -12.898   6.651  1.00  0.00    -0.274 OA
ATOM     12  H2  UNL     1      13.574 -15.802   6.073  1.00  0.00     0.164 HD
BRANCH  10  13
HETATM   13  C4  UNL     1      11.031 -14.771   6.147  1.00  0.00     0.105 C
BRANCH  13  14
HETATM   14  C5  UNL     1      10.912 -16.051   6.940  1.00  0.00     0.044 C
BRANCH  14  15
HETATM   15  C6  UNL     1      10.785 -15.779   8.421  1.00  0.00     0.152 C
BRANCH  15  16
HETATM   16  O2  UNL     1      10.766 -14.382   8.619  1.00  0.00    -0.393 OA
ATOM     17  H2  UNL     1      11.658 -14.059   8.570  1.00  0.00     0.210 HD
ENDBRANCH  15  16
BRANCH  15  18
HETATM   18  C7  UNL     1      11.915 -16.326   9.219  1.00  0.00     0.084 C
HETATM   19  C8  UNL     1      11.517 -17.261  10.306  1.00  0.00     0.040 C
HETATM   20  C9  UNL     1      11.712 -16.713  11.693  1.00  0.00     0.003 C
HETATM   21  C10 UNL     1      13.219 -16.508  11.889  1.00  0.00     0.000 C
HETATM   22  C11 UNL     1      13.745 -15.649  10.776  1.00  0.00     0.003 C
HETATM   23  C12 UNL     1      12.653 -15.159   9.850  1.00  0.00     0.040 C
BRANCH  18  24
HETATM   24  O3  UNL     1      12.824 -16.914   8.319  1.00  0.00    -0.387 OA
ATOM     25  H3  UNL     1      13.203 -16.216   7.798  1.00  0.00     0.210 HD
ENDBRANCH  18  24
ENDBRANCH  15  18
ENDBRANCH  14  15
ENDBRANCH  13  14
ENDBRANCH  10  13
ENDBRANCH   3   9
TORSDOF 7
ENDMDL