MODEL 2
REMARK VINA RESULT: -7.551681145      0.575      1.286
REMARK  7 active torsions:
REMARK  status: ('A' for Active; 'I' for Inactive)
REMARK    1  A    between atoms: O1_1  and  C1_3
REMARK    2  A    between atoms: C4_6  and  C5_7
REMARK    3  A    between atoms: C5_7  and  O2_8
REMARK    4  A    between atoms: C5_7  and  N1_10
REMARK    5  A    between atoms: N2_13  and  C8_14
REMARK    6  A    between atoms: C8_14  and  C9_15
REMARK    7  A    between atoms: C9_15  and  C10_16
ROOT
HETATM    1  N1  UNL     1      15.409  -8.849   3.247  1.00  0.00     0.126 N
HETATM    2  C6  UNL     1      16.200  -7.743   3.700  1.00  0.00     0.306 C
HETATM    3  C7  UNL     1      16.091  -6.551   2.788  1.00  0.00     0.302 C
HETATM    4  N2  UNL     1      16.502  -6.843   1.428  1.00  0.00     0.091 N
HETATM    5  C16 UNL     1      15.847  -8.070   1.026  1.00  0.00     0.302 C
HETATM    6  C17 UNL     1      14.762  -8.485   2.021  1.00  0.00     0.306 C
ENDROOT
BRANCH   1   7
HETATM    7  C5  UNL     1      14.521  -9.366   4.243  1.00  0.00     0.408 C
BRANCH   7   8
HETATM    8  C4  UNL     1      15.020 -10.717   4.668  1.00  0.00     0.070 A
HETATM    9  C3  UNL     1      14.590 -11.493   5.716  1.00  0.00     0.034 A
HETATM   10  C2  UNL     1      15.319 -12.668   5.757  1.00  0.00     0.058 A
HETATM   11  C1  UNL     1      16.209 -12.594   4.705  1.00  0.00     0.140 A
HETATM   12  N3  UNL     1      16.016 -11.426   4.070  1.00  0.00    -0.337 N
ATOM     13  H3  UNL     1      16.543 -11.114   3.253  1.00  0.00     0.168 HD
BRANCH  11  14
HETATM   14  O1  UNL     1      17.136 -13.595   4.396  1.00  0.00    -0.346 OA
ATOM     15  H1  UNL     1      18.069 -13.520   4.558  1.00  0.00     0.219 HD
ENDBRANCH  11  14
ENDBRANCH   7   8
BRANCH   7  16
HETATM   16  O2  UNL     1      13.238  -9.531   3.764  1.00  0.00    -0.363 OA
ATOM     17  H2  UNL     1      13.298  -9.655   2.824  1.00  0.00     0.212 HD
ENDBRANCH   7  16
ENDBRANCH   1   7
BRANCH   4  18
HETATM   18  C8  UNL     1      17.929  -6.931   1.408  1.00  0.00     0.273 C
BRANCH  18  19
HETATM   19  C9  UNL     1      18.495  -7.276   0.059  1.00  0.00     0.034 C
BRANCH  19  20
HETATM   20  C10 UNL     1      19.967  -7.093  -0.046  1.00  0.00    -0.013 C
HETATM   21  C11 UNL     1      20.484  -7.010  -1.450  1.00  0.00     0.005 C
HETATM   22  C12 UNL     1      21.990  -7.024  -1.424  1.00  0.00     0.000 C
HETATM   23  C13 UNL     1      22.519  -6.520  -0.103  1.00  0.00     0.000 C
HETATM   24  C14 UNL     1      21.686  -5.287   0.263  1.00  0.00     0.000 C
HETATM   25  C15 UNL     1      20.317  -5.781   0.643  1.00  0.00     0.005 C
ENDBRANCH  19  20
ENDBRANCH  18  19
ENDBRANCH   4  18
TORSDOF 7
ENDMDL