MODEL 2
REMARK VINA RESULT: -6.349266992      5.459      8.658
REMARK  7 active torsions:
REMARK  status: ('A' for Active; 'I' for Inactive)
REMARK    1  A    between atoms: N1_2  and  C2_3
REMARK    2  A    between atoms: N1_2  and  C10_13
REMARK    3  A    between atoms: C5_6  and  C6_7
REMARK    4  A    between atoms: C6_7  and  C7_8
REMARK    5  A    between atoms: C7_8  and  O1_9
REMARK    6  A    between atoms: C13_17  and  C14_18
REMARK    7  A    between atoms: C16_22  and  O3_23
ROOT
HETATM    1  C10 UNL     1      14.683 -13.447   6.041  1.00  0.00     0.257 C
HETATM    2  C11 UNL     1      15.680 -14.623   6.020  1.00  0.00     0.204 C
HETATM    3  O2  UNL     1      16.365 -14.506   7.213  1.00  0.00    -0.388 OA
HETATM    4  C12 UNL     1      15.270 -14.535   8.110  1.00  0.00     0.179 C
HETATM    5  C13 UNL     1      14.291 -13.514   7.489  1.00  0.00     0.079 C
ENDROOT
BRANCH   1   6
HETATM    6  N1  UNL     1      15.387 -12.236   5.661  1.00  0.00     0.096 N
HETATM    7  C1  UNL     1      16.448 -12.701   4.708  1.00  0.00     0.310 C
BRANCH   6   8
HETATM    8  C2  UNL     1      14.654 -11.295   4.889  1.00  0.00     0.223 C
HETATM    9  C3  UNL     1      15.460 -10.846   3.688  1.00  0.00     0.036 C
HETATM   10  C4  UNL     1      15.786  -9.355   3.728  1.00  0.00     0.007 C
HETATM   11  C5  UNL     1      14.582  -8.487   3.796  1.00  0.00    -0.012 C
HETATM   12  C8  UNL     1      13.441  -9.276   4.382  1.00  0.00     0.007 C
HETATM   13  C9  UNL     1      14.086 -10.099   5.530  1.00  0.00     0.036 C
BRANCH  11  14
HETATM   14  C6  UNL     1      14.244  -7.736   2.575  1.00  0.00     0.030 C
BRANCH  14  15
HETATM   15  C7  UNL     1      15.285  -6.940   1.903  1.00  0.00     0.164 C
BRANCH  15  16
HETATM   16  O1  UNL     1      15.829  -5.954   2.702  1.00  0.00    -0.401 OA
ATOM     17  H1  UNL     1      15.908  -5.113   2.268  1.00  0.00     0.209 HD
ENDBRANCH  15  16
ENDBRANCH  14  15
ENDBRANCH  11  14
ENDBRANCH   6   8
ENDBRANCH   1   6
BRANCH   5  18
HETATM   18  C14 UNL     1      12.950 -14.105   7.737  1.00  0.00    -0.030 A
HETATM   19  C15 UNL     1      12.536 -14.852   8.800  1.00  0.00     0.098 A
HETATM   20  N2  UNL     1      11.234 -15.207   8.663  1.00  0.00    -0.346 N
HETATM   21  C16 UNL     1      10.824 -14.679   7.500  1.00  0.00     0.140 A
ATOM     22  H2  UNL     1      10.678 -15.764   9.313  1.00  0.00     0.167 HD
HETATM   23  C17 UNL     1      11.840 -13.993   6.891  1.00  0.00     0.065 A
BRANCH  21  24
HETATM   24  O3  UNL     1       9.551 -14.772   6.920  1.00  0.00    -0.346 OA
ATOM     25  H3  UNL     1       9.237 -15.432   6.312  1.00  0.00     0.219 HD
ENDBRANCH  21  24
ENDBRANCH   5  18
TORSDOF 7
ENDMDL