MODEL 3
REMARK VINA RESULT: -7.058616162      1.000      1.363
REMARK  6 active torsions:
REMARK  status: ('A' for Active; 'I' for Inactive)
REMARK    1  A    between atoms: O1_1  and  C1_3
REMARK    2  A    between atoms: C1_3  and  C2_4
REMARK    3  A    between atoms: C1_3  and  C6_9
REMARK    4  A    between atoms: C11_16  and  N2_17
REMARK    5  A    between atoms: N2_17  and  C12_20
REMARK    6  A    between atoms: C12_20  and  C13_21
ROOT
HETATM    1  C6  UNL     1      16.759  -7.831   1.033  1.00  0.00     0.123 C
HETATM    2  C7  UNL     1      16.047  -8.414  -0.035  1.00  0.00    -0.171 C
HETATM    3  C8  UNL     1      15.321  -8.854  -1.155  1.00  0.00     0.100 C
HETATM    4  C9  UNL     1      15.306  -7.639  -2.159  1.00  0.00     0.130 C
HETATM    5  N1  UNL     1      15.606  -6.403  -1.439  1.00  0.00    -0.399 N
ATOM      6  H1  UNL     1      14.868  -5.705  -1.350  1.00  0.00     0.158 HD
HETATM    7  C10 UNL     1      16.821  -6.132  -0.878  1.00  0.00     0.089 C
HETATM    8  C11 UNL     1      17.095  -6.364   0.623  1.00  0.00     0.241 C
ENDROOT
BRANCH   8   9
HETATM    9  N2  UNL     1      18.506  -6.106   0.773  1.00  0.00    -0.061 N
ATOM     10  H22 UNL     1      18.688  -5.103   0.743  1.00  0.00     0.278 HD
ATOM     11  H21 UNL     1      18.804  -6.310   1.727  1.00  0.00     0.278 HD
BRANCH   9  12
HETATM   12  C12 UNL     1      19.335  -6.786  -0.159  1.00  0.00     0.271 C
BRANCH  12  13
HETATM   13  C13 UNL     1      20.743  -6.286   0.031  1.00  0.00    -0.033 A
HETATM   14  C14 UNL     1      21.011  -5.297   0.973  1.00  0.00     0.009 A
HETATM   15  C15 UNL     1      22.313  -4.867   1.118  1.00  0.00     0.001 A
HETATM   16  C16 UNL     1      23.356  -5.378   0.367  1.00  0.00     0.000 A
HETATM   17  C17 UNL     1      23.085  -6.359  -0.566  1.00  0.00     0.001 A
HETATM   18  C18 UNL     1      21.790  -6.784  -0.708  1.00  0.00     0.009 A
ENDBRANCH  12  13
ENDBRANCH   9  12
ENDBRANCH   8   9
BRANCH   1  19
HETATM   19  C1  UNL     1      16.053  -7.865   2.375  1.00  0.00     0.192 C
BRANCH  19  20
HETATM   20  O1  UNL     1      16.517  -9.045   3.005  1.00  0.00    -0.388 OA
ATOM     21  H1  UNL     1      15.757  -9.462   3.392  1.00  0.00     0.210 HD
ENDBRANCH  19  20
BRANCH  19  22
HETATM   22  C2  UNL     1      14.606  -7.960   2.335  1.00  0.00     0.082 A
HETATM   23  C3  UNL     1      13.861  -9.059   2.781  1.00  0.00     0.037 A
HETATM   24  C4  UNL     1      12.519  -8.780   2.581  1.00  0.00     0.027 A
HETATM   25  C5  UNL     1      12.517  -7.516   2.018  1.00  0.00     0.142 A
HETATM   26  O2  UNL     1      13.751  -7.097   1.903  1.00  0.00    -0.324 OA
ENDBRANCH  19  22
ENDBRANCH   1  19
TORSDOF 6
ENDMDL