MODEL 3
REMARK VINA RESULT: -5.444035635      2.636      3.954
REMARK  6 active torsions:
REMARK  status: ('A' for Active; 'I' for Inactive)
REMARK    1  A    between atoms: C3_3  and  C4_4
REMARK    2  A    between atoms: C3_3  and  C17_23
REMARK    3  A    between atoms: C12_12  and  O1_14
REMARK    4  A    between atoms: C15_17  and  C16_18
REMARK    5  A    between atoms: C16_18  and  O2_19
REMARK    6  A    between atoms: O2_19  and  N1_20
ROOT
HETATM    1  C4  UNL     1      22.158  -7.155  -0.265  1.00  0.00     0.021 C
HETATM    2  C5  UNL     1      22.534  -7.519  -1.605  1.00  0.00    -0.071 C
HETATM    3  C6  UNL     1      23.950  -7.169  -2.018  1.00  0.00     0.044 C
HETATM    4  C7  UNL     1      23.908  -7.064  -3.528  1.00  0.00    -0.033 C
HETATM    5  C8  UNL     1      23.775  -5.646  -3.926  1.00  0.00     0.016 C
HETATM    6  C9  UNL     1      25.076  -7.702  -4.202  1.00  0.00     0.010 C
HETATM    7  C10 UNL     1      24.789  -7.641  -5.687  1.00  0.00     0.004 C
HETATM    8  C11 UNL     1      23.519  -8.257  -6.085  1.00  0.00     0.038 C
HETATM    9  C12 UNL     1      22.312  -8.003  -5.216  1.00  0.00     0.059 C
HETATM   10  C13 UNL     1      21.417  -9.230  -5.483  1.00  0.00     0.046 C
HETATM   11  C14 UNL     1      22.673  -7.928  -3.819  1.00  0.00     0.038 C
HETATM   12  C15 UNL     1      21.746  -7.268  -2.834  1.00  0.00     0.048 C
ENDROOT
BRANCH   1  13
HETATM   13  C3  UNL     1      22.189  -5.833   0.280  1.00  0.00     0.036 C
HETATM   14  C2  UNL     1      21.000  -5.206   0.529  1.00  0.00    -0.013 C
HETATM   15  C1  UNL     1      19.702  -5.880   0.240  1.00  0.00     0.037 C
BRANCH  13  16
HETATM   16  C17 UNL     1      23.339  -5.032   0.563  1.00  0.00     0.209 C
HETATM   17  O3  UNL     1      23.308  -4.142   1.510  1.00  0.00    -0.644 OA
HETATM   18  O4  UNL     1      24.532  -5.130  -0.122  1.00  0.00    -0.644 OA
ENDBRANCH  13  16
ENDBRANCH   1  13
BRANCH  12  19
HETATM   19  C16 UNL     1      20.402  -7.908  -2.718  1.00  0.00     0.210 C
BRANCH  19  20
HETATM   20  O2  UNL     1      19.396  -7.235  -3.407  1.00  0.00    -0.287 OA
BRANCH  20  21
HETATM   21  N1  UNL     1      18.244  -7.440  -2.726  1.00  0.00    -0.311 N
ATOM     22  H12 UNL     1      18.133  -7.391  -1.713  1.00  0.00     0.184 HD
ATOM     23  H11 UNL     1      17.522  -7.650  -3.416  1.00  0.00     0.184 HD
ENDBRANCH  20  21
ENDBRANCH  19  20
ENDBRANCH  12  19
BRANCH   9  24
HETATM   24  O1  UNL     1      21.547  -6.936  -5.701  1.00  0.00    -0.390 OA
ATOM     25  H1  UNL     1      20.745  -6.827  -5.204  1.00  0.00     0.210 HD
ENDBRANCH   9  24
TORSDOF 6
ENDMDL