MODEL 1
REMARK VINA RESULT: -8.216284936      0.000      0.000
REMARK  5 active torsions:
REMARK  status: ('A' for Active; 'I' for Inactive)
REMARK    1  A    between atoms: N1_1  and  S1_4
REMARK    2  A    between atoms: S1_4  and  C1_7
REMARK    3  A    between atoms: C3_9  and  C4_10
REMARK    4  A    between atoms: C5_11  and  C6_12
REMARK    5  A    between atoms: C6_12  and  C7_14
ROOT
HETATM    1  C1  UNL     1      -3.884 -35.074 -30.375  1.00  0.00     0.081 A
HETATM    2  C2  UNL     1      -4.387 -33.860 -29.964  1.00  0.00     0.046 A
HETATM    3  C3  UNL     1      -5.026 -33.686 -28.754  1.00  0.00     0.030 A
HETATM    4  C8  UNL     1      -5.154 -34.792 -27.940  1.00  0.00    -0.007 A
HETATM    5  C9  UNL     1      -5.789 -34.672 -26.710  1.00  0.00     0.014 A
HETATM    6  C10 UNL     1      -5.930 -35.764 -25.876  1.00  0.00     0.001 A
HETATM    7  C11 UNL     1      -5.445 -37.004 -26.237  1.00  0.00     0.001 A
HETATM    8  C12 UNL     1      -4.815 -37.125 -27.457  1.00  0.00     0.012 A
HETATM    9  C13 UNL     1      -4.665 -36.045 -28.301  1.00  0.00    -0.023 A
HETATM   10  C14 UNL     1      -4.035 -36.141 -29.532  1.00  0.00     0.037 A
ENDROOT
BRANCH   1  11
HETATM   11  S1  UNL     1      -3.083 -35.221 -31.925  1.00  0.00     0.256 S
HETATM   12  O1  UNL     1      -3.157 -33.923 -32.680  1.00  0.00    -0.201 OA
HETATM   13  O2  UNL     1      -1.644 -35.634 -31.700  1.00  0.00    -0.201 OA
BRANCH  11  14
HETATM   14  N1  UNL     1      -3.841 -36.434 -32.880  1.00  0.00    -0.324 N
ATOM     15  H12 UNL     1      -3.385 -36.977 -33.613  1.00  0.00     0.169 HD
ATOM     16  H11 UNL     1      -4.814 -36.507 -32.581  1.00  0.00     0.169 HD
ENDBRANCH  11  14
ENDBRANCH   1  11
BRANCH   3  17
HETATM   17  C4  UNL     1      -5.538 -32.395 -28.364  1.00  0.00    -0.057 C
HETATM   18  C5  UNL     1      -5.977 -31.322 -28.021  1.00  0.00    -0.016 C
BRANCH  18  19
HETATM   19  C6  UNL     1      -6.485 -30.031 -27.609  1.00  0.00     0.263 C
HETATM   20  O3  UNL     1      -7.503 -29.532 -28.189  1.00  0.00    -0.275 OA
BRANCH  19  21
HETATM   21  C7  UNL     1      -5.831 -29.318 -26.539  1.00  0.00     0.323 C
HETATM   22  O4  UNL     1      -4.631 -29.524 -26.285  1.00  0.00    -0.297 OA
ENDBRANCH  19  21
ENDBRANCH  18  19
ENDBRANCH   3  17
TORSDOF 5
ENDMDL