MODEL 4
REMARK VINA RESULT: -7.177552322      5.330      8.067
REMARK  3 active torsions:
REMARK  status: ('A' for Active; 'I' for Inactive)
REMARK    1  A    between atoms: C2_2  and  C3_3
REMARK    2  A    between atoms: C2_2  and  C11_11
REMARK    3  A    between atoms: C4_4  and  C5_5
REMARK       I    between atoms: C11_11  and  N1_13
ROOT
HETATM    1  C11 UNL     1      -5.490 -34.965 -26.220  1.00  0.00     0.265 C
HETATM    2  O1  UNL     1      -6.217 -35.092 -25.204  1.00  0.00    -0.267 OA
HETATM    3  N1  UNL     1      -5.078 -33.670 -26.637  1.00  0.00    -0.299 N
ATOM      4  H1  UNL     1      -4.092 -33.529 -26.854  1.00  0.00     0.171 HD
HETATM    5  C12 UNL     1      -5.862 -32.675 -26.757  1.00  0.00     0.205 C
HETATM    6  N2  UNL     1      -7.245 -32.566 -26.534  1.00  0.00    -0.346 N
ATOM      7  H2  UNL     1      -7.760 -33.276 -26.014  1.00  0.00     0.167 HD
HETATM    8  C13 UNL     1      -7.878 -31.441 -27.059  1.00  0.00     0.078 C
HETATM    9  C14 UNL     1      -6.950 -30.309 -27.262  1.00  0.00     0.193 C
HETATM   10  S1  UNL     1      -5.343 -31.077 -27.274  1.00  0.00     0.211 S
HETATM   11  O2  UNL     1      -4.432 -30.447 -26.275  1.00  0.00    -0.219 OA
HETATM   12  O3  UNL     1      -4.746 -31.097 -28.633  1.00  0.00    -0.219 OA
ENDROOT
BRANCH   1  13
HETATM   13  C2  UNL     1      -5.099 -36.171 -26.932  1.00  0.00     0.076 C
HETATM   14  C1  UNL     1      -5.198 -37.323 -26.289  1.00  0.00     0.039 C
BRANCH  13  15
HETATM   15  C3  UNL     1      -4.623 -36.120 -28.280  1.00  0.00    -0.057 C
HETATM   16  C4  UNL     1      -4.221 -36.077 -29.417  1.00  0.00    -0.061 C
BRANCH  16  17
HETATM   17  C5  UNL     1      -3.731 -36.039 -30.772  1.00  0.00     0.018 A
HETATM   18  C6  UNL     1      -4.197 -36.966 -31.687  1.00  0.00     0.020 A
HETATM   19  C7  UNL     1      -3.706 -36.903 -32.977  1.00  0.00     0.001 A
HETATM   20  C8  UNL     1      -2.784 -35.957 -33.359  1.00  0.00     0.000 A
HETATM   21  C9  UNL     1      -2.313 -35.030 -32.453  1.00  0.00     0.001 A
HETATM   22  C10 UNL     1      -2.794 -35.080 -31.159  1.00  0.00     0.020 A
ENDBRANCH  16  17
ENDBRANCH  13  15
ENDBRANCH   1  13
TORSDOF 3
ENDMDL