MODEL 3
REMARK VINA RESULT: -4.823433187      2.098      7.102
REMARK  1 active torsions:
REMARK  status: ('A' for Active; 'I' for Inactive)
REMARK       I    between atoms: C1_2  and  N1_3
REMARK       I    between atoms: C1_2  and  N4_13
REMARK    1  A    between atoms: N1_3  and  C2_5
ROOT
HETATM    1  O1  UNL     1       0.168 -31.065 -35.677  1.00  0.00    -0.245 OA
HETATM    2  C1  UNL     1      -1.086 -31.013 -35.643  1.00  0.00     0.350 C
HETATM    3  N1  UNL     1      -1.783 -32.245 -35.566  1.00  0.00    -0.140 N
ATOM      4  H1  UNL     1      -2.638 -32.299 -35.014  1.00  0.00     0.189 HD
HETATM    5  N4  UNL     1      -1.770 -29.780 -35.684  1.00  0.00    -0.218 N
HETATM    6  C6  UNL     1      -1.238 -28.446 -35.763  1.00  0.00     0.186 C
HETATM    7  C7  UNL     1      -2.092 -27.517 -34.997  1.00  0.00    -0.016 A
HETATM    8  C8  UNL     1      -1.714 -26.277 -34.426  1.00  0.00     0.010 A
HETATM    9  C9  UNL     1      -2.633 -25.539 -33.762  1.00  0.00     0.001 A
HETATM   10  C10 UNL     1      -3.949 -25.973 -33.625  1.00  0.00     0.002 A
HETATM   11  C11 UNL     1      -4.355 -27.169 -34.163  1.00  0.00     0.026 A
HETATM   12  C12 UNL     1      -3.391 -27.914 -34.843  1.00  0.00     0.088 A
HETATM   13  S1  UNL     1      -3.493 -29.482 -35.650  1.00  0.00     0.269 S
HETATM   14  O2  UNL     1      -4.109 -30.511 -34.785  1.00  0.00    -0.200 OA
HETATM   15  O3  UNL     1      -4.063 -29.381 -37.007  1.00  0.00    -0.200 OA
ENDROOT
BRANCH   3  16
HETATM   16  C2  UNL     1      -1.360 -33.297 -36.177  1.00  0.00     0.685 A
HETATM   17  N2  UNL     1      -2.071 -34.431 -36.050  1.00  0.00    -0.202 N
HETATM   18  C3  UNL     1      -1.716 -35.573 -36.643  1.00  0.00     0.107 A
ATOM     19  H2  UNL     1      -2.915 -34.418 -35.477  1.00  0.00     0.183 HD
HETATM   20  C4  UNL     1      -0.576 -35.591 -37.415  1.00  0.00     0.035 A
HETATM   21  C5  UNL     1       0.169 -34.436 -37.559  1.00  0.00     0.107 A
HETATM   22  N3  UNL     1      -0.244 -33.302 -36.929  1.00  0.00    -0.202 N
ATOM     23  H3  UNL     1       0.300 -32.445 -37.029  1.00  0.00     0.183 HD
ENDBRANCH   3  16
TORSDOF 1
ENDMDL