MODEL 1
REMARK VINA RESULT: -5.348525948      0.000      0.000
REMARK  1 active torsions:
REMARK  status: ('A' for Active; 'I' for Inactive)
REMARK       I    between atoms: N2_7  and  C6_9
REMARK    1  A    between atoms: C6_9  and  C7_11
ROOT
HETATM    1  C1  UNL     1      -7.789 -30.283 -25.875  1.00  0.00     0.132 C
HETATM    2  N1  UNL     1      -7.267 -30.108 -27.230  1.00  0.00    -0.181 NA
HETATM    3  C2  UNL     1      -5.968 -30.657 -27.332  1.00  0.00     0.081 C
HETATM    4  C3  UNL     1      -5.169 -30.319 -26.071  1.00  0.00     0.041 C
HETATM    5  C4  UNL     1      -5.169 -30.031 -28.479  1.00  0.00     0.041 C
HETATM    6  C5  UNL     1      -6.016 -32.104 -27.566  1.00  0.00     0.118 C
HETATM    7  N2  UNL     1      -5.051 -32.880 -27.209  1.00  0.00    -0.310 N
ATOM      8  H2  UNL     1      -4.239 -32.462 -26.754  1.00  0.00     0.170 HD
HETATM    9  C6  UNL     1      -5.055 -34.281 -27.415  1.00  0.00     0.257 C
HETATM   10  O1  UNL     1      -5.562 -34.994 -26.516  1.00  0.00    -0.267 OA
HETATM   11  N3  UNL     1      -7.187 -32.530 -28.196  1.00  0.00    -0.259 N
ATOM     12  H3  UNL     1      -7.382 -33.462 -28.562  1.00  0.00     0.181 HD
HETATM   13  S1  UNL     1      -8.235 -31.168 -28.233  1.00  0.00     0.304 S
HETATM   14  O2  UNL     1      -9.555 -31.435 -27.612  1.00  0.00    -0.188 OA
HETATM   15  O3  UNL     1      -8.362 -30.624 -29.619  1.00  0.00    -0.188 OA
ENDROOT
BRANCH   9  16
HETATM   16  C7  UNL     1      -4.510 -34.926 -28.598  1.00  0.00     0.032 A
HETATM   17  C8  UNL     1      -4.681 -36.285 -28.806  1.00  0.00     0.017 A
HETATM   18  C9  UNL     1      -4.162 -36.890 -29.929  1.00  0.00     0.001 A
HETATM   19  C10 UNL     1      -3.458 -36.200 -30.894  1.00  0.00     0.000 A
HETATM   20  C11 UNL     1      -3.287 -34.848 -30.686  1.00  0.00     0.001 A
HETATM   21  C12 UNL     1      -3.805 -34.239 -29.563  1.00  0.00     0.017 A
ENDBRANCH   9  16
TORSDOF 1
ENDMDL