MODEL 1
REMARK VINA RESULT: -7.140070765      0.000      0.000
REMARK  2 active torsions:
REMARK  status: ('A' for Active; 'I' for Inactive)
REMARK    1  A    between atoms: C7_7  and  S1_8
REMARK    2  A    between atoms: S1_8  and  N1_11
REMARK       I    between atoms: C8_13  and  N2_14
REMARK       I    between atoms: C8_13  and  N4_18
ROOT
HETATM    1  N1  UNL     1      -6.438 -32.258 -28.169  1.00  0.00    -0.112 N
ATOM      2  H1  UNL     1      -7.171 -32.819 -28.603  1.00  0.00     0.197 HD
HETATM    3  C8  UNL     1      -6.628 -31.026 -28.006  1.00  0.00     0.698 C
HETATM    4  N2  UNL     1      -7.903 -30.518 -28.462  1.00  0.00    -0.125 N
ATOM      5  H2  UNL     1      -7.931 -29.850 -29.233  1.00  0.00     0.197 HD
HETATM    6  C9  UNL     1      -9.091 -30.926 -27.864  1.00  0.00     0.196 C
HETATM    7  N3  UNL     1     -10.068 -31.278 -27.373  1.00  0.00    -0.171 NA
HETATM    8  N4  UNL     1      -5.762 -30.083 -27.435  1.00  0.00    -0.225 N
HETATM    9  C10 UNL     1      -4.654 -29.498 -28.166  1.00  0.00     0.168 C
HETATM   10  C11 UNL     1      -5.968 -29.642 -26.045  1.00  0.00     0.168 C
ENDROOT
BRANCH   1  11
HETATM   11  S1  UNL     1      -4.988 -33.021 -27.688  1.00  0.00     0.277 S
HETATM   12  O1  UNL     1      -4.997 -33.344 -26.208  1.00  0.00    -0.200 OA
HETATM   13  O2  UNL     1      -3.865 -32.039 -27.857  1.00  0.00    -0.200 OA
BRANCH  11  14
HETATM   14  C7  UNL     1      -4.606 -34.428 -28.638  1.00  0.00     0.086 A
HETATM   15  C5  UNL     1      -5.146 -35.650 -28.304  1.00  0.00    -0.039 A
HETATM   16  C4  UNL     1      -4.826 -36.758 -29.070  1.00  0.00     0.009 A
HETATM   17  C6  UNL     1      -6.059 -35.792 -27.147  1.00  0.00     0.050 C
HETATM   18  C3  UNL     1      -3.982 -36.681 -30.158  1.00  0.00     0.007 A
HETATM   19  C2  UNL     1      -3.443 -35.477 -30.497  1.00  0.00    -0.060 A
HETATM   20  C1  UNL     1      -2.526 -35.313 -31.655  1.00  0.00     0.048 C
HETATM   21  C12 UNL     1      -3.763 -34.371 -29.730  1.00  0.00     0.032 A
ENDBRANCH  11  14
ENDBRANCH   1  11
TORSDOF 2
ENDMDL