MODEL 4
REMARK VINA RESULT: -5.372468503      2.120      7.816
REMARK  7 active torsions:
REMARK  status: ('A' for Active; 'I' for Inactive)
REMARK    1  A    between atoms: C2_2  and  C3_3
REMARK    2  A    between atoms: C3_3  and  O1_4
REMARK    3  A    between atoms: C3_3  and  N1_6
REMARK    4  A    between atoms: C7_10  and  N2_11
REMARK    5  A    between atoms: C7_10  and  C8_15
REMARK    6  A    between atoms: C9_16  and  C10_17
REMARK    7  A    between atoms: N3_21  and  O2_22
ROOT
HETATM    1  N1  UNL     1      -5.841 -33.058 -27.544  1.00  0.00    -0.355 N
HETATM    2  C4  UNL     1      -5.088 -33.566 -26.371  1.00  0.00     0.152 C
HETATM    3  C5  UNL     1      -3.651 -33.476 -26.679  1.00  0.00    -0.008 C
HETATM    4  C6  UNL     1      -3.238 -33.981 -27.837  1.00  0.00     0.024 C
HETATM    5  C7  UNL     1      -4.276 -34.588 -28.708  1.00  0.00     0.219 C
HETATM    6  C15 UNL     1      -5.474 -33.628 -28.813  1.00  0.00     0.181 C
ENDROOT
BRANCH   5   7
HETATM    7  N2  UNL     1      -4.767 -35.831 -28.189  1.00  0.00    -0.054 N
ATOM      8  H23 UNL     1      -4.803 -36.545 -28.917  1.00  0.00     0.276 HD
ATOM      9  H22 UNL     1      -4.084 -36.266 -27.568  1.00  0.00     0.276 HD
ATOM     10  H21 UNL     1      -5.671 -35.730 -27.728  1.00  0.00     0.276 HD
ENDBRANCH   5   7
BRANCH   5  11
HETATM   11  C8  UNL     1      -3.741 -34.826 -30.062  1.00  0.00    -0.056 C
HETATM   12  C9  UNL     1      -3.326 -35.024 -31.169  1.00  0.00    -0.062 C
BRANCH  12  13
HETATM   13  C10 UNL     1      -2.848 -35.258 -32.512  1.00  0.00     0.035 A
HETATM   14  C11 UNL     1      -2.681 -34.226 -33.415  1.00  0.00     0.023 A
HETATM   15  C12 UNL     1      -2.222 -34.475 -34.696  1.00  0.00     0.021 A
HETATM   16  C13 UNL     1      -1.926 -35.763 -35.077  1.00  0.00     0.122 A
HETATM   17  N3  UNL     1      -2.084 -36.773 -34.205  1.00  0.00    -0.246 N
HETATM   18  C14 UNL     1      -2.532 -36.530 -32.959  1.00  0.00     0.142 A
BRANCH  17  19
HETATM   19  O2  UNL     1      -1.771 -38.037 -34.650  1.00  0.00    -0.284 OA
ATOM     20  H2  UNL     1      -1.732 -38.726 -33.997  1.00  0.00     0.245 HD
ENDBRANCH  17  19
ENDBRANCH  12  13
ENDBRANCH   5  11
BRANCH   1  21
HETATM   21  C3  UNL     1      -6.826 -32.083 -27.332  1.00  0.00     0.137 C
BRANCH  21  22
HETATM   22  C2  UNL     1      -6.753 -30.693 -27.088  1.00  0.00     0.045 C
HETATM   23  C1  UNL     1      -5.707 -29.978 -26.820  1.00  0.00     0.015 C
ENDBRANCH  21  22
BRANCH  21  24
HETATM   24  O1  UNL     1      -8.056 -32.552 -27.368  1.00  0.00    -0.346 OA
ATOM     25  H1  UNL     1      -8.217 -33.154 -28.085  1.00  0.00     0.219 HD
ENDBRANCH  21  24
ENDBRANCH   1  21
TORSDOF 7
ENDMDL