MODEL 1
REMARK VINA RESULT: -6.481675395      0.000      0.000
REMARK  4 active torsions:
REMARK  status: ('A' for Active; 'I' for Inactive)
REMARK    1  A    between atoms: S1_2  and  N1_5
REMARK    2  A    between atoms: N1_5  and  C2_7
REMARK    3  A    between atoms: C4_11  and  C5_12
REMARK    4  A    between atoms: C6_13  and  C7_14
ROOT
HETATM    1  C2  UNL     1      -2.383 -35.499 -34.663  1.00  0.00     0.691 A
HETATM    2  N2  UNL     1      -2.779 -36.628 -34.053  1.00  0.00    -0.200 N
ATOM      3  H2  UNL     1      -2.762 -37.501 -34.580  1.00  0.00     0.183 HD
HETATM    4  C3  UNL     1      -3.197 -36.651 -32.776  1.00  0.00     0.128 A
HETATM    5  C4  UNL     1      -3.224 -35.475 -32.051  1.00  0.00     0.050 A
HETATM    6  C13 UNL     1      -2.823 -34.325 -32.662  1.00  0.00     0.128 A
HETATM    7  N3  UNL     1      -2.409 -34.355 -33.958  1.00  0.00    -0.200 N
ATOM      8  H3  UNL     1      -2.112 -33.488 -34.405  1.00  0.00     0.183 HD
ENDROOT
BRANCH   5   9
HETATM    9  C5  UNL     1      -3.676 -35.503 -30.670  1.00  0.00    -0.059 C
HETATM   10  C6  UNL     1      -4.039 -35.510 -29.520  1.00  0.00    -0.061 C
BRANCH  10  11
HETATM   11  C7  UNL     1      -4.456 -35.499 -28.147  1.00  0.00     0.018 A
HETATM   12  C8  UNL     1      -5.391 -36.389 -27.635  1.00  0.00     0.020 A
HETATM   13  C9  UNL     1      -5.773 -36.356 -26.311  1.00  0.00     0.001 A
HETATM   14  C10 UNL     1      -5.201 -35.409 -25.492  1.00  0.00     0.000 A
HETATM   15  C11 UNL     1      -4.274 -34.506 -25.946  1.00  0.00     0.001 A
HETATM   16  C12 UNL     1      -3.917 -34.575 -27.287  1.00  0.00     0.020 A
ENDBRANCH  10  11
ENDBRANCH   5   9
BRANCH   1  17
HETATM   17  N1  UNL     1      -1.977 -35.440 -35.884  1.00  0.00    -0.117 N
ATOM     18  H1  UNL     1      -2.014 -36.299 -36.434  1.00  0.00     0.197 HD
BRANCH  17  19
HETATM   19  S1  UNL     1      -1.385 -34.039 -36.651  1.00  0.00     0.240 S
HETATM   20  C1  UNL     1       0.120 -34.396 -37.557  1.00  0.00     0.186 C
HETATM   21  O1  UNL     1      -2.379 -33.357 -37.514  1.00  0.00    -0.206 OA
HETATM   22  O2  UNL     1      -0.994 -33.055 -35.558  1.00  0.00    -0.206 OA
ENDBRANCH  17  19
ENDBRANCH   1  17
TORSDOF 4
ENDMDL