MODEL 3
REMARK VINA RESULT: -7.398509700      1.761      5.776
REMARK  2 active torsions:
REMARK  status: ('A' for Active; 'I' for Inactive)
REMARK       I    between atoms: N1_2  and  C2_4
REMARK       I    between atoms: C2_4  and  N3_18
REMARK    1  A    between atoms: N2_5  and  S1_7
REMARK    2  A    between atoms: S1_7  and  C3_10
ROOT
HETATM    1  S1  UNL     1      -4.428 -32.954 -26.992  1.00  0.00     0.277 S
HETATM    2  O1  UNL     1      -3.344 -32.054 -26.479  1.00  0.00    -0.200 OA
HETATM    3  O2  UNL     1      -4.648 -34.007 -25.921  1.00  0.00    -0.200 OA
ENDROOT
BRANCH   1   4
HETATM    4  N2  UNL     1      -3.855 -33.716 -28.426  1.00  0.00    -0.113 N
HETATM    5  C2  UNL     1      -4.506 -34.743 -28.868  1.00  0.00     0.684 C
HETATM    6  N1  UNL     1      -5.658 -35.249 -28.218  1.00  0.00    -0.230 N
HETATM    7  N3  UNL     1      -4.064 -35.412 -30.064  1.00  0.00    -0.226 N
HETATM    8  C1  UNL     1      -5.737 -36.495 -27.526  1.00  0.00     0.165 C
ATOM      9  H1  UNL     1      -6.501 -34.676 -28.247  1.00  0.00     0.177 HD
HETATM   10  C11 UNL     1      -4.040 -36.863 -30.126  1.00  0.00     0.168 C
HETATM   11  C12 UNL     1      -3.633 -34.687 -31.231  1.00  0.00     0.168 C
ATOM     12  H2  UNL     1      -3.028 -33.368 -28.912  1.00  0.00     0.197 HD
ENDBRANCH   1   4
BRANCH   1  13
HETATM   13  C3  UNL     1      -5.854 -32.020 -27.257  1.00  0.00     0.086 A
HETATM   14  C4  UNL     1      -7.080 -32.650 -27.268  1.00  0.00     0.026 A
HETATM   15  C5  UNL     1      -8.270 -31.975 -27.474  1.00  0.00     0.008 A
HETATM   16  C6  UNL     1      -8.257 -30.607 -27.678  1.00  0.00    -0.061 A
HETATM   17  C7  UNL     1      -9.522 -29.842 -27.904  1.00  0.00     0.048 C
HETATM   18  C8  UNL     1      -7.023 -29.990 -27.664  1.00  0.00     0.015 A
HETATM   19  C9  UNL     1      -5.839 -30.647 -27.462  1.00  0.00    -0.038 A
HETATM   20  C10 UNL     1      -4.517 -29.973 -27.449  1.00  0.00     0.050 C
ENDBRANCH   1  13
TORSDOF 2
ENDMDL