MODEL 4
REMARK VINA RESULT: -5.625397186      7.183      8.078
REMARK  4 active torsions:
REMARK  status: ('A' for Active; 'I' for Inactive)
REMARK       I    between atoms: C1_2  and  N1_3
REMARK    1  A    between atoms: C1_2  and  C9_20
REMARK    2  A    between atoms: N1_3  and  C2_5
REMARK    3  A    between atoms: N3_8  and  O2_9
REMARK    4  A    between atoms: N4_17  and  O3_18
ROOT
HETATM    1  C2  UNL     1      -2.763 -29.137 -35.020  1.00  0.00     0.728 A
HETATM    2  N2  UNL     1      -2.404 -28.978 -33.697  1.00  0.00    -0.103 N
ATOM      3  H2  UNL     1      -1.790 -29.678 -33.283  1.00  0.00     0.208 HD
HETATM    4  N3  UNL     1      -2.798 -27.992 -32.944  1.00  0.00    -0.147 N
HETATM    5  C3  UNL     1      -3.609 -27.063 -33.482  1.00  0.00     0.111 A
HETATM    6  C4  UNL     1      -4.040 -26.009 -32.705  1.00  0.00     0.036 A
HETATM    7  C5  UNL     1      -4.872 -25.027 -33.206  1.00  0.00     0.003 A
HETATM    8  C6  UNL     1      -5.257 -25.145 -34.524  1.00  0.00     0.002 A
HETATM    9  C7  UNL     1      -4.849 -26.184 -35.338  1.00  0.00     0.035 A
HETATM   10  C8  UNL     1      -4.008 -27.159 -34.799  1.00  0.00     0.112 A
HETATM   11  N4  UNL     1      -3.573 -28.201 -35.545  1.00  0.00    -0.049 N
ENDROOT
BRANCH   1  12
HETATM   12  N1  UNL     1      -2.304 -30.124 -35.590  1.00  0.00    -0.152 N
HETATM   13  C1  UNL     1      -2.505 -31.100 -36.496  1.00  0.00     0.270 C
HETATM   14  O1  UNL     1      -3.573 -31.216 -37.153  1.00  0.00    -0.267 OA
ATOM     15  H1  UNL     1      -1.365 -30.265 -35.215  1.00  0.00     0.188 HD
BRANCH  13  16
HETATM   16  C9  UNL     1      -1.457 -32.126 -36.787  1.00  0.00     0.032 A
HETATM   17  C10 UNL     1      -1.761 -33.370 -37.260  1.00  0.00     0.017 A
HETATM   18  C11 UNL     1      -0.765 -34.283 -37.515  1.00  0.00     0.001 A
HETATM   19  C12 UNL     1       0.553 -33.981 -37.306  1.00  0.00     0.000 A
HETATM   20  C13 UNL     1       0.873 -32.729 -36.829  1.00  0.00     0.001 A
HETATM   21  C14 UNL     1      -0.142 -31.829 -36.580  1.00  0.00     0.017 A
ENDBRANCH  13  16
ENDBRANCH   1  12
BRANCH  11  22
HETATM   22  O3  UNL     1      -4.015 -28.222 -36.837  1.00  0.00    -0.269 OA
ATOM     23  H3  UNL     1      -4.899 -27.989 -37.095  1.00  0.00     0.245 HD
ENDBRANCH  11  22
BRANCH   4  24
HETATM   24  O2  UNL     1      -2.407 -27.888 -31.634  1.00  0.00    -0.267 OA
ATOM     25  H2  UNL     1      -2.179 -27.051 -31.247  1.00  0.00     0.247 HD
ENDBRANCH   4  24
TORSDOF 4
ENDMDL