MODEL 4
REMARK VINA RESULT: -4.768616232      2.489      5.080
REMARK  3 active torsions:
REMARK  status: ('A' for Active; 'I' for Inactive)
REMARK    1  A    between atoms: N1_5  and  S1_6
REMARK    2  A    between atoms: S1_6  and  N2_7
REMARK       I    between atoms: N3_14  and  C7_15
REMARK    3  A    between atoms: C7_15  and  C8_17
ROOT
HETATM    1  C1  UNL     1      -3.056 -32.472 -26.713  1.00  0.00     0.034 C
HETATM    2  C2  UNL     1      -4.518 -32.582 -26.506  1.00  0.00     0.107 C
HETATM    3  C3  UNL     1      -5.289 -31.392 -27.109  1.00  0.00     0.120 C
HETATM    4  C4  UNL     1      -4.877 -31.124 -28.512  1.00  0.00     0.036 C
HETATM    5  N1  UNL     1      -6.653 -31.707 -26.960  1.00  0.00    -0.266 N
HETATM    6  C5  UNL     1      -6.999 -32.689 -26.011  1.00  0.00     0.098 C
HETATM    7  C6  UNL     1      -6.411 -34.069 -26.280  1.00  0.00     0.171 C
HETATM    8  N3  UNL     1      -5.111 -33.827 -26.938  1.00  0.00    -0.340 N
HETATM    9  C7  UNL     1      -4.571 -34.733 -27.864  1.00  0.00     0.228 C
HETATM   10  O3  UNL     1      -3.446 -34.444 -28.382  1.00  0.00    -0.273 OA
ENDROOT
BRANCH   5  11
HETATM   11  S1  UNL     1      -7.755 -31.231 -28.093  1.00  0.00     0.318 S
HETATM   12  O1  UNL     1      -9.132 -31.732 -27.699  1.00  0.00    -0.183 OA
HETATM   13  O2  UNL     1      -7.456 -31.912 -29.423  1.00  0.00    -0.183 OA
BRANCH  11  14
HETATM   14  N2  UNL     1      -7.904 -29.527 -28.328  1.00  0.00    -0.311 N
ATOM     15  H22 UNL     1      -7.368 -28.867 -27.765  1.00  0.00     0.170 HD
ATOM     16  H21 UNL     1      -8.555 -29.234 -29.057  1.00  0.00     0.170 HD
ENDBRANCH  11  14
ENDBRANCH   5  11
BRANCH   9  17
HETATM   17  C8  UNL     1      -5.200 -36.008 -28.300  1.00  0.00     0.030 C
HETATM   18  C9  UNL     1      -4.543 -36.609 -29.522  1.00  0.00     0.025 C
HETATM   19  C10 UNL     1      -6.695 -35.823 -28.537  1.00  0.00     0.025 C
HETATM   20  C11 UNL     1      -5.068 -37.031 -27.183  1.00  0.00     0.025 C
ENDBRANCH   9  17
TORSDOF 3
ENDMDL