MODEL 2
REMARK VINA RESULT: -8.519116178      1.063      1.175
REMARK  3 active torsions:
REMARK  status: ('A' for Active; 'I' for Inactive)
REMARK    1  A    between atoms: C2_2  and  C3_4
REMARK    2  A    between atoms: C6_9  and  N2_10
REMARK    3  A    between atoms: C13_18  and  C14_19
ROOT
HETATM    1  C3  UNL     1      19.571  84.089   6.694  1.00  0.00     0.119 A
HETATM    2  C4  UNL     1      19.860  84.458   5.408  1.00  0.00     0.073 A
HETATM    3  C5  UNL     1      19.437  83.694   4.310  1.00  0.00     0.078 A
HETATM    4  N1  UNL     1      19.566  83.803   2.977  1.00  0.00    -0.319 N
ATOM      5  H1  UNL     1      20.049  84.542   2.467  1.00  0.00     0.169 HD
HETATM    6  C6  UNL     1      18.931  82.740   2.452  1.00  0.00     0.227 A
HETATM    7  O3  UNL     1      18.436  82.016   3.424  1.00  0.00    -0.271 OA
HETATM    8  C17 UNL     1      18.716  82.555   4.599  1.00  0.00     0.181 A
HETATM    9  C18 UNL     1      18.441  82.211   5.911  1.00  0.00     0.325 A
HETATM   10  O4  UNL     1      17.776  81.157   6.152  1.00  0.00    -0.257 OA
HETATM   11  O5  UNL     1      18.873  82.979   6.875  1.00  0.00    -0.270 OA
ENDROOT
BRANCH   6  12
HETATM   12  N2  UNL     1      18.821  82.458   1.060  1.00  0.00    -0.347 N
HETATM   13  C7  UNL     1      17.539  82.515   0.392  1.00  0.00     0.131 C
HETATM   14  C8  UNL     1      17.755  82.109  -1.067  1.00  0.00     0.088 C
HETATM   15  C9  UNL     1      18.376  80.721  -1.044  1.00  0.00     0.167 C
HETATM   16  C10 UNL     1      19.779  80.820  -0.494  1.00  0.00     0.088 C
HETATM   17  O1  UNL     1      17.629  79.948  -0.181  1.00  0.00    -0.352 OA
HETATM   18  O2  UNL     1      18.361  80.111  -2.280  1.00  0.00    -0.347 OA
HETATM   19  C11 UNL     1      19.991  82.105   0.273  1.00  0.00     0.131 C
HETATM   20  C12 UNL     1      16.854  79.098  -0.933  1.00  0.00     0.203 C
HETATM   21  C13 UNL     1      17.087  79.583  -2.347  1.00  0.00     0.152 C
BRANCH  21  22
HETATM   22  C14 UNL     1      17.042  78.350  -3.242  1.00  0.00     0.009 C
HETATM   23  C15 UNL     1      17.154  77.077  -2.466  1.00  0.00     0.012 C
HETATM   24  C16 UNL     1      18.206  78.491  -4.219  1.00  0.00     0.012 C
ENDBRANCH  21  22
ENDBRANCH   6  12
BRANCH   1  25
HETATM   25  C2  UNL     1      20.010  84.881   7.824  1.00  0.00     0.141 C
HETATM   26  C1  UNL     1      21.110  85.591   7.759  1.00  0.00     0.059 C
HETATM   27  F1  UNL     1      19.306  84.923   8.992  1.00  0.00    -0.204 F
ENDBRANCH   1  25
TORSDOF 3
ENDMDL