MODEL 4
REMARK VINA RESULT: -5.605893781      3.709      6.932
REMARK  5 active torsions:
REMARK  status: ('A' for Active; 'I' for Inactive)
REMARK    1  A    between atoms: C2_2  and  O1_3
REMARK    2  A    between atoms: O1_3  and  C3_4
REMARK    3  A    between atoms: C3_4  and  C4_6
REMARK    4  A    between atoms: C11_20  and  S1_21
REMARK    5  A    between atoms: S1_21  and  C12_22
ROOT
HETATM    1  C4  UNL     1      17.282  81.186  -1.639  1.00  0.00     0.176 C
HETATM    2  C5  UNL     1      17.852  82.110  -0.594  1.00  0.00     0.126 C
HETATM    3  N1  UNL     1      17.124  82.525   0.374  1.00  0.00    -0.383 N
ATOM      4  H11 UNL     1      17.509  83.151   1.081  1.00  0.00     0.158 HD
ATOM      5  H12 UNL     1      16.144  82.268   0.501  1.00  0.00     0.158 HD
HETATM    6  O3  UNL     1      19.169  82.456  -0.764  1.00  0.00    -0.336 OA
HETATM    7  C6  UNL     1      19.821  82.551  -2.001  1.00  0.00     0.217 C
HETATM    8  C7  UNL     1      19.018  82.176  -3.191  1.00  0.00     0.161 C
HETATM    9  C8  UNL     1      19.090  83.360  -4.167  1.00  0.00     0.044 C
HETATM   10  C9  UNL     1      18.727  82.749  -5.477  1.00  0.00     0.030 C
HETATM   11  C10 UNL     1      19.245  81.332  -5.347  1.00  0.00     0.233 C
HETATM   12  N2  UNL     1      19.674  81.160  -3.994  1.00  0.00    -0.063 N
ATOM     13  H21 UNL     1      19.515  80.215  -3.645  1.00  0.00     0.278 HD
ATOM     14  H22 UNL     1      20.689  81.170  -3.895  1.00  0.00     0.278 HD
HETATM   15  C11 UNL     1      17.602  81.804  -2.968  1.00  0.00     0.114 C
ENDROOT
BRANCH  15  16
HETATM   16  S1  UNL     1      16.575  83.284  -3.176  1.00  0.00    -0.096 SA
BRANCH  16  17
HETATM   17  C12 UNL     1      14.833  82.789  -3.161  1.00  0.00     0.112 A
HETATM   18  N3  UNL     1      13.875  83.221  -2.355  1.00  0.00    -0.348 N
HETATM   19  C13 UNL     1      12.672  82.766  -2.479  1.00  0.00     0.013 A
ATOM     20  H3  UNL     1      14.087  83.913  -1.636  1.00  0.00     0.167 HD
HETATM   21  C14 UNL     1      11.530  83.219  -1.588  1.00  0.00     0.068 C
HETATM   22  C15 UNL     1      12.440  81.838  -3.463  1.00  0.00     0.077 A
HETATM   23  S2  UNL     1      13.996  81.679  -4.152  1.00  0.00    -0.075 SA
ENDBRANCH  16  17
ENDBRANCH  15  16
BRANCH   1  24
HETATM   24  C3  UNL     1      17.852  79.828  -1.460  1.00  0.00     0.272 C
HETATM   25  O2  UNL     1      18.027  79.089  -2.462  1.00  0.00    -0.264 OA
BRANCH  24  26
HETATM   26  O1  UNL     1      18.216  79.298  -0.232  1.00  0.00    -0.321 OA
BRANCH  26  27
HETATM   27  C2  UNL     1      17.424  78.407   0.518  1.00  0.00     0.174 C
HETATM   28  C1  UNL     1      16.980  79.095   1.776  1.00  0.00     0.034 C
ENDBRANCH  26  27
ENDBRANCH  24  26
ENDBRANCH   1  24
TORSDOF 5
ENDMDL