MODEL 5
REMARK VINA RESULT: -7.225061982      2.589      3.864
REMARK  4 active torsions:
REMARK  status: ('A' for Active; 'I' for Inactive)
REMARK    1  A    between atoms: C5_8  and  C6_9
REMARK    2  A    between atoms: C6_9  and  C7_10
REMARK    3  A    between atoms: C7_10  and  C8_11
REMARK    4  A    between atoms: C10_14  and  O3_15
ROOT
HETATM    1  C8  UNL     1      18.565  82.508   1.289  1.00  0.00     0.135 C
HETATM    2  O2  UNL     1      17.355  81.864   1.368  1.00  0.00    -0.382 OA
HETATM    3  C9  UNL     1      17.576  80.546   1.013  1.00  0.00     0.207 C
HETATM    4  C10 UNL     1      18.408  80.737  -0.266  1.00  0.00     0.091 C
HETATM    5  C11 UNL     1      17.435  80.889  -1.391  1.00  0.00     0.041 C
HETATM    6  C12 UNL     1      18.187  81.511  -2.553  1.00  0.00     0.011 C
HETATM    7  C13 UNL     1      18.453  82.945  -2.119  1.00  0.00     0.029 C
HETATM    8  C14 UNL     1      19.215  83.616  -3.223  1.00  0.00     0.088 C
HETATM    9  C15 UNL     1      19.077  85.106  -3.241  1.00  0.00     0.021 C
HETATM   10  C16 UNL     1      20.629  83.237  -2.904  1.00  0.00     0.263 C
HETATM   11  O4  UNL     1      21.600  83.200  -3.701  1.00  0.00    -0.265 OA
HETATM   12  O5  UNL     1      20.674  82.934  -1.565  1.00  0.00    -0.314 OA
HETATM   13  C17 UNL     1      19.379  82.956  -0.970  1.00  0.00     0.150 C
HETATM   14  C18 UNL     1      19.224  81.915   0.056  1.00  0.00     0.042 C
HETATM   15  C19 UNL     1      20.637  81.404   0.391  1.00  0.00     0.024 C
ENDROOT
BRANCH   1  16
HETATM   16  C7  UNL     1      19.367  82.352   2.512  1.00  0.00     0.037 C
BRANCH  16  17
HETATM   17  C6  UNL     1      18.701  81.863   3.757  1.00  0.00     0.046 C
BRANCH  17  18
HETATM   18  C5  UNL     1      18.838  82.681   4.955  1.00  0.00    -0.003 A
HETATM   19  C2  UNL     1      19.450  83.876   5.176  1.00  0.00     0.037 A
HETATM   20  C1  UNL     1      20.131  84.803   4.249  1.00  0.00     0.071 C
HETATM   21  N1  UNL     1      19.311  84.160   6.502  1.00  0.00    -0.265 N
HETATM   22  O1  UNL     1      18.657  83.206   7.048  1.00  0.00    -0.242 OA
ATOM     23  H1  UNL     1      19.666  84.990   6.976  1.00  0.00     0.194 HD
HETATM   24  C3  UNL     1      18.333  82.279   6.202  1.00  0.00     0.080 A
HETATM   25  C4  UNL     1      17.575  81.050   6.540  1.00  0.00     0.079 C
ENDBRANCH  17  18
ENDBRANCH  16  17
ENDBRANCH   1  16
BRANCH   4  26
HETATM   26  O3  UNL     1      19.126  79.552  -0.429  1.00  0.00    -0.387 OA
ATOM     27  H3  UNL     1      19.151  79.393  -1.365  1.00  0.00     0.210 HD
ENDBRANCH   4  26
TORSDOF 4
ENDMDL