MODEL 3
REMARK VINA RESULT: -6.171877308      7.168     10.577
REMARK  5 active torsions:
REMARK  status: ('A' for Active; 'I' for Inactive)
REMARK    1  A    between atoms: C2_2  and  O1_3
REMARK    2  A    between atoms: O1_3  and  C3_4
REMARK       I    between atoms: C3_4  and  N1_6
REMARK    3  A    between atoms: N2_9  and  C6_10
REMARK    4  A    between atoms: C8_13  and  O4_14
REMARK    5  A    between atoms: C11_19  and  O6_20
ROOT
HETATM    1  C3  UNL     1      25.434  76.914  -4.533  1.00  0.00     0.362 C
HETATM    2  O2  UNL     1      25.066  77.483  -5.604  1.00  0.00    -0.238 OA
HETATM    3  N1  UNL     1      25.855  77.708  -3.425  1.00  0.00    -0.326 N
HETATM    4  C4  UNL     1      25.804  79.114  -3.683  1.00  0.00     0.148 C
HETATM    5  C5  UNL     1      25.293  79.946  -2.547  1.00  0.00     0.145 C
HETATM    6  N2  UNL     1      26.270  79.949  -1.478  1.00  0.00    -0.350 N
HETATM    7  C10 UNL     1      27.242  78.933  -1.214  1.00  0.00     0.236 C
HETATM    8  O5  UNL     1      28.255  78.859  -2.163  1.00  0.00    -0.336 OA
HETATM    9  C11 UNL     1      29.349  78.167  -1.693  1.00  0.00     0.261 C
HETATM   10  C13 UNL     1      29.096  77.329  -0.485  1.00  0.00     0.062 C
HETATM   11  C14 UNL     1      27.740  76.706  -0.417  1.00  0.00     0.020 C
HETATM   12  C15 UNL     1      26.665  77.551  -1.077  1.00  0.00     0.017 C
HETATM   13  C16 UNL     1      25.481  77.639  -0.121  1.00  0.00     0.021 C
HETATM   14  C17 UNL     1      26.232  76.889  -2.310  1.00  0.00     0.141 C
ENDROOT
BRANCH   6  15
HETATM   15  C6  UNL     1      26.197  81.100  -0.649  1.00  0.00     0.059 A
HETATM   16  C7  UNL     1      25.106  81.916  -0.440  1.00  0.00     0.174 A
HETATM   17  O3  UNL     1      25.431  82.873   0.386  1.00  0.00    -0.298 OA
HETATM   18  C8  UNL     1      26.675  82.767   0.759  1.00  0.00     0.184 A
HETATM   19  C9  UNL     1      27.195  81.650   0.121  1.00  0.00     0.095 A
BRANCH  18  20
HETATM   20  O4  UNL     1      27.374  83.614   1.641  1.00  0.00    -0.341 OA
ATOM     21  H4  UNL     1      28.256  83.493   1.974  1.00  0.00     0.220 HD
ENDBRANCH  18  20
ENDBRANCH   6  15
BRANCH   9  22
HETATM   22  O6  UNL     1      30.337  79.103  -1.396  1.00  0.00    -0.366 OA
HETATM   23  C12 UNL     1      30.712  79.031  -0.045  1.00  0.00     0.204 C
ENDBRANCH   9  22
BRANCH   1  24
HETATM   24  O1  UNL     1      25.401  75.531  -4.509  1.00  0.00    -0.304 OA
BRANCH  24  25
HETATM   25  C2  UNL     1      24.667  74.862  -5.514  1.00  0.00     0.176 C
HETATM   26  C1  UNL     1      23.419  74.238  -4.908  1.00  0.00     0.034 C
ENDBRANCH  24  25
ENDBRANCH   1  24
TORSDOF 5
ENDMDL