MODEL 2
REMARK VINA RESULT: -7.823567060      2.405      2.691
REMARK  4 active torsions:
REMARK  status: ('A' for Active; 'I' for Inactive)
REMARK    1  A    between atoms: C2_2  and  N1_3
REMARK    2  A    between atoms: C4_12  and  N3_13
REMARK    3  A    between atoms: N3_13  and  C5_15
REMARK    4  A    between atoms: C5_15  and  C6_16
ROOT
HETATM    1  N1  UNL     1      16.813  82.773  -1.216  1.00  0.00    -0.364 N
ATOM      2  H1  UNL     1      16.037  82.730  -0.555  1.00  0.00     0.162 HD
HETATM    3  C3  UNL     1      17.974  82.397  -0.820  1.00  0.00     0.204 C
HETATM    4  O1  UNL     1      19.117  82.404  -1.619  1.00  0.00    -0.191 OA
HETATM    5  S1  UNL     1      20.649  82.061  -0.950  1.00  0.00     0.370 S
HETATM    6  O2  UNL     1      21.674  82.848  -1.718  1.00  0.00    -0.175 OA
HETATM    7  O3  UNL     1      20.891  80.573  -1.057  1.00  0.00    -0.175 OA
HETATM    8  N2  UNL     1      20.746  82.497   0.690  1.00  0.00    -0.241 N
ATOM      9  H2  UNL     1      21.636  82.836   1.058  1.00  0.00     0.183 HD
HETATM   10  C4  UNL     1      19.742  82.415   1.480  1.00  0.00     0.159 C
HETATM   11  S3  UNL     1      18.189  81.824   0.841  1.00  0.00    -0.009 SA
ENDROOT
BRANCH  10  12
HETATM   12  N3  UNL     1      19.855  82.788   2.850  1.00  0.00    -0.365 N
ATOM     13  H3  UNL     1      20.314  82.146   3.496  1.00  0.00     0.162 HD
BRANCH  12  14
HETATM   14  C5  UNL     1      19.345  84.041   3.359  1.00  0.00     0.168 C
BRANCH  14  15
HETATM   15  C6  UNL     1      20.386  84.591   4.303  1.00  0.00     0.007 A
HETATM   16  S2  UNL     1      21.945  85.178   3.947  1.00  0.00    -0.104 SA
HETATM   17  C7  UNL     1      22.442  85.591   5.523  1.00  0.00     0.057 A
HETATM   18  C8  UNL     1      21.361  85.254   6.287  1.00  0.00    -0.044 A
HETATM   19  C9  UNL     1      20.292  84.736   5.666  1.00  0.00    -0.037 A
HETATM   20  C13 UNL     1      21.267  85.416   7.796  1.00  0.00     0.040 C
HETATM   21  C10 UNL     1      19.088  84.363   6.528  1.00  0.00     0.040 C
HETATM   22  C11 UNL     1      19.508  83.635   7.768  1.00  0.00     0.005 C
HETATM   23  C12 UNL     1      20.793  84.093   8.354  1.00  0.00     0.005 C
ENDBRANCH  14  15
ENDBRANCH  12  14
ENDBRANCH  10  12
BRANCH   1  24
HETATM   24  C2  UNL     1      16.555  83.254  -2.557  1.00  0.00     0.118 C
HETATM   25  C1  UNL     1      15.198  82.865  -3.056  1.00  0.00     0.026 C
ENDBRANCH   1  24
TORSDOF 4
ENDMDL