MODEL 1
REMARK VINA RESULT: -6.676019577      0.000      0.000
REMARK  5 active torsions:
REMARK  status: ('A' for Active; 'I' for Inactive)
REMARK    1  A    between atoms: C3_3  and  O1_4
REMARK    2  A    between atoms: C6_9  and  O3_10
REMARK    3  A    between atoms: O3_10  and  C7_11
REMARK    4  A    between atoms: C7_11  and  C8_13
REMARK    5  A    between atoms: C14_21  and  C15_22
ROOT
HETATM    1  C1  UNL     1      16.914  81.600  -1.540  1.00  0.00     0.020 C
HETATM    2  C2  UNL     1      18.044  81.114  -1.071  1.00  0.00    -0.029 C
HETATM    3  C3  UNL     1      19.276  81.403  -1.855  1.00  0.00     0.151 C
HETATM    4  C4  UNL     1      20.012  82.496  -1.193  1.00  0.00     0.071 C
HETATM    5  C5  UNL     1      19.914  82.644   0.255  1.00  0.00     0.166 C
HETATM    6  O2  UNL     1      18.668  83.189   0.654  1.00  0.00    -0.349 OA
HETATM    7  C6  UNL     1      18.735  82.502   1.859  1.00  0.00     0.307 C
HETATM    8  C12 UNL     1      19.727  81.559   1.163  1.00  0.00     0.134 C
HETATM    9  C13 UNL     1      20.920  81.369   2.118  1.00  0.00     0.054 C
HETATM   10  O5  UNL     1      19.227  80.374   0.836  1.00  0.00    -0.359 OA
HETATM   11  C14 UNL     1      18.017  80.320   0.188  1.00  0.00     0.176 C
ENDROOT
BRANCH   7  12
HETATM   12  O3  UNL     1      19.268  83.214   2.940  1.00  0.00    -0.282 OA
BRANCH  12  13
HETATM   13  C7  UNL     1      19.007  82.974   4.255  1.00  0.00     0.302 C
HETATM   14  O4  UNL     1      18.369  81.940   4.566  1.00  0.00    -0.259 OA
BRANCH  13  15
HETATM   15  C8  UNL     1      19.461  83.902   5.311  1.00  0.00     0.080 A
HETATM   16  C9  UNL     1      20.266  84.997   5.171  1.00  0.00     0.025 A
HETATM   17  C10 UNL     1      20.551  85.700   6.271  1.00  0.00     0.009 A
HETATM   18  C11 UNL     1      20.012  85.266   7.455  1.00  0.00     0.050 A
HETATM   19  S1  UNL     1      19.124  83.887   6.981  1.00  0.00    -0.096 SA
ENDBRANCH  13  15
ENDBRANCH  12  13
ENDBRANCH   7  12
BRANCH  11  20
HETATM   20  C15 UNL     1      17.784  78.901  -0.208  1.00  0.00     0.011 C
HETATM   21  C16 UNL     1      16.936  78.113   0.429  1.00  0.00    -0.089 C
HETATM   22  C17 UNL     1      16.754  76.709  -0.024  1.00  0.00     0.042 C
HETATM   23  C18 UNL     1      16.154  78.585   1.584  1.00  0.00     0.042 C
ENDBRANCH  11  20
BRANCH   3  24
HETATM   24  O1  UNL     1      20.114  80.263  -1.861  1.00  0.00    -0.391 OA
ATOM     25  H1  UNL     1      20.211  79.944  -2.751  1.00  0.00     0.210 HD
ENDBRANCH   3  24
TORSDOF 5
ENDMDL