MODEL 3
REMARK VINA RESULT: -5.874066098      2.545      3.836
REMARK  4 active torsions:
REMARK  status: ('A' for Active; 'I' for Inactive)
REMARK    1  A    between atoms: O1_2  and  C2_3
REMARK    2  A    between atoms: C3_4  and  O2_5
REMARK    3  A    between atoms: C4_7  and  O3_8
REMARK    4  A    between atoms: C8_12  and  N1_13
ROOT
HETATM    1  C2  UNL     1      17.480  79.740  -1.012  1.00  0.00     0.138 A
HETATM    2  C3  UNL     1      16.712  79.071  -1.925  1.00  0.00     0.136 A
HETATM    3  C4  UNL     1      16.074  79.778  -2.964  1.00  0.00     0.112 A
HETATM    4  C6  UNL     1      16.217  81.130  -3.058  1.00  0.00     0.008 A
HETATM    5  C7  UNL     1      17.011  81.816  -2.123  1.00  0.00     0.012 A
HETATM    6  C8  UNL     1      17.629  81.108  -1.111  1.00  0.00     0.148 A
HETATM    7  C9  UNL     1      17.311  83.279  -2.217  1.00  0.00     0.220 C
HETATM    8  O6  UNL     1      17.129  83.759  -3.563  1.00  0.00    -0.316 OA
HETATM    9  C10 UNL     1      16.674  82.845  -4.552  1.00  0.00     0.273 C
HETATM   10  O7  UNL     1      17.158  82.779  -5.696  1.00  0.00    -0.264 OA
HETATM   11  C11 UNL     1      15.559  81.990  -4.030  1.00  0.00     0.082 C
HETATM   12  C12 UNL     1      14.654  82.998  -3.276  1.00  0.00     0.030 C
HETATM   13  C13 UNL     1      13.541  83.364  -4.257  1.00  0.00    -0.013 C
HETATM   14  C14 UNL     1      12.436  82.333  -4.151  1.00  0.00     0.005 C
HETATM   15  C15 UNL     1      13.306  81.071  -4.328  1.00  0.00     0.006 C
HETATM   16  C16 UNL     1      14.592  81.495  -4.997  1.00  0.00     0.009 C
HETATM   17  C17 UNL     1      14.121  82.872  -5.568  1.00  0.00     0.011 C
ENDROOT
BRANCH   3  18
HETATM   18  O3  UNL     1      15.347  78.946  -3.808  1.00  0.00    -0.352 OA
HETATM   19  C5  UNL     1      16.111  78.368  -4.879  1.00  0.00     0.210 C
ENDBRANCH   3  18
BRANCH   2  20
HETATM   20  O2  UNL     1      16.572  77.695  -1.813  1.00  0.00    -0.356 OA
ATOM     21  H2  UNL     1      17.338  77.142  -1.907  1.00  0.00     0.218 HD
ENDBRANCH   2  20
BRANCH   6  22
HETATM   22  N1  UNL     1      18.421  81.840  -0.181  1.00  0.00    -0.112 N
HETATM   23  O4  UNL     1      19.618  81.967  -0.389  1.00  0.00    -0.532 OA
HETATM   24  O5  UNL     1      17.814  82.372   0.915  1.00  0.00    -0.532 OA
ENDBRANCH   6  22
BRANCH   1  25
HETATM   25  O1  UNL     1      18.112  79.063   0.017  1.00  0.00    -0.351 OA
HETATM   26  C1  UNL     1      17.436  78.818   1.261  1.00  0.00     0.210 C
ENDBRANCH   1  25
TORSDOF 4
ENDMDL