MODEL 3
REMARK VINA RESULT: -7.027105781      0.978      1.428
REMARK  5 active torsions:
REMARK  status: ('A' for Active; 'I' for Inactive)
REMARK    1  A    between atoms: C2_2  and  O1_3
REMARK    2  A    between atoms: O1_3  and  C3_4
REMARK    3  A    between atoms: C3_4  and  C4_6
REMARK    4  A    between atoms: C4_6  and  S1_7
REMARK    5  A    between atoms: S1_7  and  C5_8
ROOT
HETATM    1  C5  UNL     1      19.017  82.661   2.673  1.00  0.00     0.115 A
HETATM    2  N1  UNL     1      18.767  82.605   1.390  1.00  0.00    -0.344 N
ATOM      3  H1  UNL     1      18.953  83.421   0.808  1.00  0.00     0.167 HD
HETATM    4  C6  UNL     1      18.284  81.519   0.840  1.00  0.00     0.080 A
HETATM    5  C7  UNL     1      18.052  80.455   1.658  1.00  0.00     0.138 A
HETATM    6  S2  UNL     1      18.555  81.083   3.184  1.00  0.00    -0.038 SA
HETATM    7  O3  UNL     1      17.543  79.159   1.438  1.00  0.00    -0.333 OA
HETATM    8  C8  UNL     1      17.656  78.380   0.265  1.00  0.00     0.279 C
HETATM    9  C9  UNL     1      17.043  79.142  -0.849  1.00  0.00     0.242 C
HETATM   10  O4  UNL     1      16.396  78.430  -1.656  1.00  0.00    -0.271 OA
HETATM   11  N2  UNL     1      17.115  80.540  -1.081  1.00  0.00    -0.344 N
ATOM     12  H2  UNL     1      16.359  80.895  -1.665  1.00  0.00     0.163 HD
HETATM   13  C10 UNL     1      18.035  81.553  -0.660  1.00  0.00     0.079 C
HETATM   14  C11 UNL     1      17.450  82.897  -1.072  1.00  0.00     0.038 C
HETATM   15  C12 UNL     1      17.746  83.266  -2.497  1.00  0.00     0.003 C
HETATM   16  C13 UNL     1      19.190  83.137  -2.880  1.00  0.00     0.000 C
HETATM   17  C14 UNL     1      20.005  82.639  -1.690  1.00  0.00     0.003 C
HETATM   18  C15 UNL     1      19.390  81.319  -1.300  1.00  0.00     0.038 C
ENDROOT
BRANCH   1  19
HETATM   19  S1  UNL     1      19.572  84.082   3.613  1.00  0.00    -0.095 SA
BRANCH  19  20
HETATM   20  C4  UNL     1      19.441  83.747   5.356  1.00  0.00     0.192 C
BRANCH  20  21
HETATM   21  C3  UNL     1      19.652  84.957   6.206  1.00  0.00     0.268 C
HETATM   22  O2  UNL     1      20.670  85.648   5.929  1.00  0.00    -0.264 OA
BRANCH  21  23
HETATM   23  O1  UNL     1      18.860  85.364   7.238  1.00  0.00    -0.321 OA
BRANCH  23  24
HETATM   24  C2  UNL     1      18.860  84.809   8.544  1.00  0.00     0.174 C
HETATM   25  C1  UNL     1      18.045  83.511   8.561  1.00  0.00     0.034 C
ENDBRANCH  23  24
ENDBRANCH  21  23
ENDBRANCH  20  21
ENDBRANCH  19  20
ENDBRANCH   1  19
TORSDOF 5
ENDMDL