MODEL 5
REMARK VINA RESULT: -5.111389193      1.504      1.717
REMARK  3 active torsions:
REMARK  status: ('A' for Active; 'I' for Inactive)
REMARK    1  A    between atoms: S1_2  and  C2_3
REMARK    2  A    between atoms: C2_3  and  C3_4
REMARK    3  A    between atoms: C4_5  and  C5_6
ROOT
HETATM    1  C3  UNL     1      18.760  81.242  -0.000  1.00  0.00    -0.016 A
HETATM    2  C4  UNL     1      19.974  81.649   0.514  1.00  0.00     0.090 A
HETATM    3  S2  UNL     1      20.831  82.151  -0.878  1.00  0.00    -0.075 SA
HETATM    4  C6  UNL     1      19.644  81.850  -2.076  1.00  0.00     0.050 A
HETATM    5  C7  UNL     1      18.604  81.364  -1.330  1.00  0.00    -0.010 A
HETATM    6  C8  UNL     1      17.177  81.233  -1.905  1.00  0.00     0.211 C
HETATM    7  S3  UNL     1      16.798  82.764  -2.797  1.00  0.00     0.269 S
HETATM    8  O3  UNL     1      15.395  83.177  -2.528  1.00  0.00    -0.198 OA
HETATM    9  O4  UNL     1      17.668  83.869  -2.192  1.00  0.00    -0.198 OA
HETATM   10  O5  UNL     1      17.168  82.503  -4.379  1.00  0.00    -0.274 OA
HETATM   11  C9  UNL     1      17.919  83.493  -4.954  1.00  0.00     0.205 C
HETATM   12  C10 UNL     1      19.347  83.506  -4.540  1.00  0.00     0.074 C
HETATM   13  C11 UNL     1      20.175  83.714  -5.858  1.00  0.00     0.024 C
HETATM   14  S4  UNL     1      20.030  82.054  -3.801  1.00  0.00    -0.115 SA
ENDROOT
BRANCH   1  15
HETATM   15  C2  UNL     1      17.682  80.705   0.973  1.00  0.00     0.114 C
BRANCH  15  16
HETATM   16  S1  UNL     1      17.476  79.009   0.998  1.00  0.00    -0.169 SA
HETATM   17  C1  UNL     1      17.089  77.783  -0.084  1.00  0.00     0.090 C
ENDBRANCH  15  16
ENDBRANCH   1  15
BRANCH   2  18
HETATM   18  C5  UNL     1      20.489  81.673   1.896  1.00  0.00     0.217 C
HETATM   19  O1  UNL     1      19.940  82.017   2.938  1.00  0.00    -0.643 OA
HETATM   20  O2  UNL     1      21.834  81.228   2.065  1.00  0.00    -0.643 OA
ENDBRANCH   2  18
TORSDOF 3
ENDMDL