MODEL 5
REMARK VINA RESULT: -5.943004941      2.476      3.408
REMARK  6 active torsions:
REMARK  status: ('A' for Active; 'I' for Inactive)
REMARK    1  A    between atoms: C2_2  and  O1_3
REMARK    2  A    between atoms: O1_3  and  C3_4
REMARK    3  A    between atoms: C3_4  and  C4_6
REMARK    4  A    between atoms: C11_14  and  N1_15
REMARK       I    between atoms: N1_15  and  C12_17
REMARK    5  A    between atoms: C12_17  and  O4_19
REMARK    6  A    between atoms: O4_19  and  N2_20
ROOT
HETATM    1  C4  UNL     1      19.139  11.331  42.563  1.00  0.00     0.068 A
HETATM    2  C5  UNL     1      19.356  10.152  41.878  1.00  0.00     0.039 A
HETATM    3  C6  UNL     1      18.901  10.024  40.590  1.00  0.00     0.018 A
HETATM    4 BR1  UNL     1      19.191   8.391  39.615  1.00  0.00    -0.051 Br
HETATM    5  C7  UNL     1      18.232  11.079  39.997  1.00  0.00    -0.036 A
HETATM    6  C8  UNL     1      17.759  10.878  38.591  1.00  0.00     0.050 C
HETATM    7  C9  UNL     1      18.002  12.264  40.658  1.00  0.00    -0.027 A
HETATM    8  C10 UNL     1      17.294  13.339  39.987  1.00  0.00     0.051 C
HETATM    9  C11 UNL     1      18.463  12.386  41.955  1.00  0.00     0.059 A
ENDROOT
BRANCH   9  10
HETATM   10  N1  UNL     1      18.206  13.628  42.583  1.00  0.00    -0.300 N
HETATM   11  C12 UNL     1      17.339  13.789  43.689  1.00  0.00     0.386 C
HETATM   12  O3  UNL     1      16.714  12.839  44.217  1.00  0.00    -0.236 OA
ATOM     13  H1  UNL     1      18.674  14.456  42.216  1.00  0.00     0.171 HD
BRANCH  11  14
HETATM   14  O4  UNL     1      17.155  15.049  44.232  1.00  0.00    -0.188 OA
BRANCH  14  15
HETATM   15  N2  UNL     1      17.334  15.255  45.577  1.00  0.00    -0.301 N
ATOM     16  H22 UNL     1      16.531  15.526  46.145  1.00  0.00     0.184 HD
ATOM     17  H21 UNL     1      18.256  15.137  45.998  1.00  0.00     0.184 HD
ENDBRANCH  14  15
ENDBRANCH  11  14
ENDBRANCH   9  10
BRANCH   1  18
HETATM   18  C3  UNL     1      19.605  11.500  43.939  1.00  0.00     0.295 C
HETATM   19  O2  UNL     1      19.080  10.963  44.928  1.00  0.00    -0.259 OA
BRANCH  18  20
HETATM   20  O1  UNL     1      20.710  12.315  44.171  1.00  0.00    -0.318 OA
BRANCH  20  21
HETATM   21  C2  UNL     1      22.002  11.826  44.425  1.00  0.00     0.174 C
HETATM   22  C1  UNL     1      22.526  12.195  45.785  1.00  0.00     0.034 C
ENDBRANCH  20  21
ENDBRANCH  18  20
ENDBRANCH   1  18
TORSDOF 6
ENDMDL