MODEL 3
REMARK VINA RESULT: -7.801490886      1.779      2.393
REMARK  3 active torsions:
REMARK  status: ('A' for Active; 'I' for Inactive)
REMARK    1  A    between atoms: C2_2  and  C8_15
REMARK    2  A    between atoms: N1_3  and  N2_5
REMARK       I    between atoms: N2_5  and  C3_7
REMARK    3  A    between atoms: C3_7  and  C4_9
ROOT
HETATM    1  C8  UNL     1      18.587  10.742  40.952  1.00  0.00     0.051 A
HETATM    2  S1  UNL     1      19.250   9.149  41.138  1.00  0.00    -0.074 SA
HETATM    3  C9  UNL     1      19.214   8.654  39.523  1.00  0.00     0.082 A
HETATM    4 CL1  UNL     1      19.731   7.105  38.828  1.00  0.00    -0.076 Cl
HETATM    5  C10 UNL     1      18.687   9.730  38.861  1.00  0.00    -0.011 A
HETATM    6  C11 UNL     1      18.493   9.664  37.341  1.00  0.00     0.052 C
HETATM    7  C12 UNL     1      18.362  10.816  39.606  1.00  0.00     0.071 A
HETATM    8  C13 UNL     1      17.784  12.038  38.997  1.00  0.00     0.101 C
HETATM    9  N3  UNL     1      17.324  13.001  38.487  1.00  0.00    -0.191 NA
ENDROOT
BRANCH   1  10
HETATM   10  C2  UNL     1      18.357  11.708  42.028  1.00  0.00     0.040 C
HETATM   11  C1  UNL     1      17.826  13.045  41.795  1.00  0.00     0.071 C
HETATM   12  N1  UNL     1      18.645  11.337  43.226  1.00  0.00    -0.301 N
ATOM     13  H1  UNL     1      19.016  10.397  43.368  1.00  0.00     0.186 HD
BRANCH  12  14
HETATM   14  N2  UNL     1      18.474  12.160  44.337  1.00  0.00    -0.264 N
HETATM   15  C3  UNL     1      17.556  11.830  45.340  1.00  0.00     0.295 C
HETATM   16  O1  UNL     1      16.868  10.760  45.229  1.00  0.00    -0.264 OA
ATOM     17  H2  UNL     1      19.025  13.014  44.421  1.00  0.00     0.190 HD
BRANCH  15  18
HETATM   18  C4  UNL     1      17.322  12.641  46.531  1.00  0.00     0.160 C
HETATM   19  C5  UNL     1      17.360  13.964  46.516  1.00  0.00     0.177 C
HETATM   20  O2  UNL     1      17.131  14.730  47.677  1.00  0.00    -0.358 OA
HETATM   21  C6  UNL     1      16.366  14.112  48.696  1.00  0.00     0.201 C
HETATM   22  C7  UNL     1      17.068  12.779  48.985  1.00  0.00     0.202 C
HETATM   23  O3  UNL     1      17.042  12.063  47.766  1.00  0.00    -0.342 OA
ENDBRANCH  15  18
ENDBRANCH  12  14
ENDBRANCH   1  10
TORSDOF 3
ENDMDL