MODEL 4
REMARK VINA RESULT: -4.890773946      3.291      4.509
REMARK  3 active torsions:
REMARK  status: ('A' for Active; 'I' for Inactive)
REMARK    1  A    between atoms: N1_2  and  C3_4
REMARK    2  A    between atoms: C4_5  and  C5_6
REMARK    3  A    between atoms: C7_14  and  C8_15
ROOT
HETATM    1  C5  UNL     1      19.696  12.458  48.048  1.00  0.00     0.019 C
HETATM    2  C6  UNL     1      18.444  12.737  48.062  1.00  0.00     0.024 C
HETATM    3  S1  UNL     1      17.623  13.488  49.552  1.00  0.00     0.022 SA
HETATM    4  S2  UNL     1      15.823  12.396  49.182  1.00  0.00     0.289 S
HETATM    5  O1  UNL     1      14.697  13.317  48.927  1.00  0.00    -0.194 OA
HETATM    6  O2  UNL     1      15.596  11.390  50.238  1.00  0.00    -0.194 OA
HETATM    7  N2  UNL     1      16.398  11.650  47.690  1.00  0.00    -0.296 N
ATOM      8  H2  UNL     1      16.164  10.739  47.295  1.00  0.00     0.174 HD
HETATM    9  C7  UNL     1      17.271  12.649  47.183  1.00  0.00     0.177 C
ENDROOT
BRANCH   1  10
HETATM   10  C4  UNL     1      20.406  11.870  46.946  1.00  0.00     0.018 C
HETATM   11  C3  UNL     1      21.646  12.269  46.604  1.00  0.00     0.084 C
BRANCH  11  12
HETATM   12  N1  UNL     1      22.352  11.693  45.515  1.00  0.00    -0.398 N
HETATM   13  C1  UNL     1      23.607  11.010  45.743  1.00  0.00     0.148 C
HETATM   14  C2  UNL     1      21.783  11.812  44.190  1.00  0.00     0.148 C
ENDBRANCH  11  12
ENDBRANCH   1  10
BRANCH   9  15
HETATM   15  C8  UNL     1      17.504  12.672  45.730  1.00  0.00     0.049 A
HETATM   16  S3  UNL     1      17.737  11.338  44.688  1.00  0.00    -0.101 SA
HETATM   17  C9  UNL     1      18.023  12.175  43.224  1.00  0.00     0.053 A
HETATM   18  C10 UNL     1      17.925  13.488  43.607  1.00  0.00     0.050 A
HETATM   19  C11 UNL     1      17.659  13.738  44.891  1.00  0.00     0.132 A
HETATM   20  F1  UNL     1      17.536  15.024  45.394  1.00  0.00    -0.205 F
ENDBRANCH   9  15
TORSDOF 3
ENDMDL