MODEL 4
REMARK VINA RESULT: -7.301709163      3.560      4.850
REMARK  4 active torsions:
REMARK  status: ('A' for Active; 'I' for Inactive)
REMARK    1  A    between atoms: O1_2  and  C2_3
REMARK    2  A    between atoms: C2_3  and  C3_5
REMARK    3  A    between atoms: C4_6  and  N1_7
REMARK       I    between atoms: N1_7  and  C5_9
REMARK    4  A    between atoms: C5_9  and  C6_11
ROOT
HETATM    1  C3  UNL     1      18.926  10.731  41.486  1.00  0.00     0.080 A
HETATM    2  C4  UNL     1      18.918  11.427  42.659  1.00  0.00     0.094 A
HETATM    3  S1  UNL     1      18.050  12.854  42.261  1.00  0.00    -0.075 SA
HETATM    4  C9  UNL     1      17.722  12.534  40.627  1.00  0.00    -0.008 A
HETATM    5  C10 UNL     1      18.299  11.317  40.428  1.00  0.00    -0.026 A
HETATM    6  C11 UNL     1      18.015  10.998  38.967  1.00  0.00     0.041 C
HETATM    7  C12 UNL     1      18.034  12.386  38.365  1.00  0.00     0.010 C
HETATM    8  C13 UNL     1      17.070  13.054  39.359  1.00  0.00     0.047 C
ENDROOT
BRANCH   2   9
HETATM    9  N1  UNL     1      19.450  11.160  43.953  1.00  0.00    -0.315 N
HETATM   10  C5  UNL     1      20.685  11.782  44.337  1.00  0.00     0.275 C
HETATM   11  O3  UNL     1      21.292  12.548  43.552  1.00  0.00    -0.266 OA
ATOM     12  H1  UNL     1      18.962  10.537  44.595  1.00  0.00     0.170 HD
BRANCH  10  13
HETATM   13  C6  UNL     1      21.219  11.508  45.650  1.00  0.00     0.126 A
HETATM   14  C7  UNL     1      22.472  11.902  46.118  1.00  0.00     0.089 A
HETATM   15  C8  UNL     1      22.594  11.446  47.409  1.00  0.00     0.170 A
HETATM   16 CL1  UNL     1      23.981  11.680  48.439  1.00  0.00    -0.054 Cl
HETATM   17  O4  UNL     1      21.490  10.821  47.695  1.00  0.00    -0.225 OA
HETATM   18  N2  UNL     1      20.670  10.844  46.680  1.00  0.00    -0.254 N
ATOM     19  H2  UNL     1      19.743  10.418  46.671  1.00  0.00     0.195 HD
ENDBRANCH  10  13
ENDBRANCH   2   9
BRANCH   1  20
HETATM   20  C2  UNL     1      19.593   9.406  41.396  1.00  0.00     0.296 C
HETATM   21  O2  UNL     1      19.337   8.542  42.253  1.00  0.00    -0.259 OA
BRANCH  20  22
HETATM   22  O1  UNL     1      20.482   9.146  40.374  1.00  0.00    -0.322 OA
HETATM   23  C1  UNL     1      21.621   8.349  40.684  1.00  0.00     0.213 C
ENDBRANCH  20  22
ENDBRANCH   1  20
TORSDOF 4
ENDMDL