MODEL 1
REMARK VINA RESULT: -6.761614315      0.000      0.000
REMARK  3 active torsions:
REMARK  status: ('A' for Active; 'I' for Inactive)
REMARK    1  A    between atoms: S1_2  and  C2_3
REMARK    2  A    between atoms: C4_8  and  C5_9
REMARK       I    between atoms: C5_9  and  N2_11
REMARK    3  A    between atoms: N2_11  and  C6_13
ROOT
HETATM    1  C2  UNL     1      16.656  13.704  47.280  1.00  0.00     0.111 A
HETATM    2  N1  UNL     1      16.591  14.397  46.135  1.00  0.00    -0.328 N
ATOM      3  H1  UNL     1      16.172  15.318  46.012  1.00  0.00     0.168 HD
HETATM    4  C3  UNL     1      17.190  13.642  45.160  1.00  0.00     0.158 A
HETATM    5  S2  UNL     1      17.621  13.567  43.511  1.00  0.00    -0.046 SA
HETATM    6  C4  UNL     1      18.366  12.034  43.513  1.00  0.00     0.092 A
HETATM    7  C11 UNL     1      18.237  11.657  44.825  1.00  0.00     0.125 A
HETATM    8  N3  UNL     1      17.637  12.489  45.644  1.00  0.00    -0.289 N
HETATM    9  C12 UNL     1      17.302  12.525  46.974  1.00  0.00     0.145 A
HETATM   10 CL1  UNL     1      17.612  11.288  48.198  1.00  0.00    -0.061 Cl
ENDROOT
BRANCH   6  11
HETATM   11  C5  UNL     1      18.997  11.281  42.407  1.00  0.00     0.260 C
HETATM   12  O1  UNL     1      20.120  10.760  42.631  1.00  0.00    -0.267 OA
HETATM   13  N2  UNL     1      18.351  11.170  41.172  1.00  0.00    -0.352 N
ATOM     14  H2  UNL     1      17.441  11.608  41.029  1.00  0.00     0.163 HD
BRANCH  13  15
HETATM   15  C6  UNL     1      18.980  10.429  40.096  1.00  0.00     0.088 C
HETATM   16  C7  UNL     1      18.294  10.861  38.805  1.00  0.00     0.051 C
HETATM   17  C8  UNL     1      18.441   9.811  37.726  1.00  0.00     0.169 C
HETATM   18  O2  UNL     1      19.480   8.968  38.089  1.00  0.00    -0.391 OA
HETATM   19  C9  UNL     1      18.983   8.130  39.107  1.00  0.00     0.169 C
HETATM   20  C10 UNL     1      18.658   8.956  40.334  1.00  0.00     0.051 C
ENDBRANCH  13  15
ENDBRANCH   6  11
BRANCH   1  21
HETATM   21  S1  UNL     1      16.028  14.202  48.897  1.00  0.00    -0.114 SA
HETATM   22  C1  UNL     1      14.535  13.214  49.263  1.00  0.00     0.097 C
ENDBRANCH   1  21
TORSDOF 3
ENDMDL