MODEL 2
REMARK VINA RESULT: -6.041414043      8.185     10.277
REMARK  3 active torsions:
REMARK  status: ('A' for Active; 'I' for Inactive)
REMARK    1  A    between atoms: C4_5  and  N1_6
REMARK    2  A    between atoms: N1_6  and  C5_9
REMARK    3  A    between atoms: C5_9  and  C6_10
ROOT
HETATM    1  C1  UNL     1      22.559  11.641  45.281  1.00  0.00     0.040 C
HETATM    2  C2  UNL     1      23.463  10.962  46.276  1.00  0.00     0.121 C
HETATM    3  O1  UNL     1      24.148  11.910  46.983  1.00  0.00    -0.383 OA
HETATM    4  C3  UNL     1      24.980  11.374  47.973  1.00  0.00     0.207 C
HETATM    5  C4  UNL     1      26.086  10.709  47.203  1.00  0.00     0.153 C
HETATM    6  C9  UNL     1      27.099  10.005  48.031  1.00  0.00     0.081 C
HETATM    7  C10 UNL     1      27.233   8.580  47.466  1.00  0.00     0.140 C
HETATM    8  C11 UNL     1      28.594   8.154  47.321  1.00  0.00     0.084 C
HETATM    9  N3  UNL     1      29.677   7.807  47.196  1.00  0.00    -0.195 NA
HETATM   10  C12 UNL     1      26.460   7.673  48.297  1.00  0.00     0.084 C
HETATM   11  N4  UNL     1      25.830   6.929  48.951  1.00  0.00    -0.195 NA
HETATM   12  C13 UNL     1      26.501   8.688  46.114  1.00  0.00     0.047 C
HETATM   13  C14 UNL     1      25.371   9.529  46.552  1.00  0.00     0.033 C
HETATM   14  C15 UNL     1      24.302   9.880  45.635  1.00  0.00     0.017 C
HETATM   15  C16 UNL     1      24.691  10.171  44.210  1.00  0.00     0.013 C
ENDROOT
BRANCH   5  16
HETATM   16  N1  UNL     1      26.635  11.625  46.270  1.00  0.00    -0.059 N
ATOM     17  H12 UNL     1      26.882  11.172  45.390  1.00  0.00     0.278 HD
ATOM     18  H11 UNL     1      25.932  12.272  45.912  1.00  0.00     0.278 HD
BRANCH  16  19
HETATM   19  C5  UNL     1      27.750  12.310  46.852  1.00  0.00     0.281 C
BRANCH  19  20
HETATM   20  C6  UNL     1      27.601  13.806  46.735  1.00  0.00     0.029 A
HETATM   21  C7  UNL     1      26.442  14.530  46.835  1.00  0.00     0.079 A
HETATM   22  C8  UNL     1      26.546  15.856  46.696  1.00  0.00     0.195 A
HETATM   23  F1  UNL     1      25.458  16.711  46.774  1.00  0.00    -0.186 F
HETATM   24  N2  UNL     1      27.757  16.367  46.473  1.00  0.00    -0.303 N
HETATM   25  S1  UNL     1      28.761  15.018  46.454  1.00  0.00    -0.015 SA
ATOM     26  H2  UNL     1      28.014  17.346  46.343  1.00  0.00     0.176 HD
ENDBRANCH  19  20
ENDBRANCH  16  19
ENDBRANCH   5  16
TORSDOF 3
ENDMDL