MODEL 1
REMARK VINA RESULT: -7.759405438      0.000      0.000
REMARK  3 active torsions:
REMARK  status: ('A' for Active; 'I' for Inactive)
REMARK    1  A    between atoms: C5_7  and  S1_8
REMARK    2  A    between atoms: S1_8  and  C6_9
REMARK    3  A    between atoms: C7_14  and  C8_15
ROOT
HETATM    1  C6  UNL     1      18.484  12.221  42.287  1.00  0.00     0.109 A
HETATM    2  N1  UNL     1      17.784  13.053  41.524  1.00  0.00    -0.292 N
ATOM      3  H1  UNL     1      17.440  13.971  41.806  1.00  0.00     0.187 HD
HETATM    4  N2  UNL     1      17.606  12.495  40.338  1.00  0.00    -0.302 N
ATOM      5  H2  UNL     1      17.101  12.926  39.564  1.00  0.00     0.186 HD
HETATM    6  C7  UNL     1      18.181  11.289  40.293  1.00  0.00     0.054 A
HETATM    7  C11 UNL     1      18.756  11.082  41.534  1.00  0.00     0.093 A
HETATM    8 CL1  UNL     1      19.650   9.658  42.045  1.00  0.00    -0.079 Cl
ENDROOT
BRANCH   1   9
HETATM    9  S1  UNL     1      19.044  12.397  43.980  1.00  0.00    -0.084 SA
BRANCH   9  10
HETATM   10  C5  UNL     1      17.560  12.599  45.013  1.00  0.00     0.253 C
HETATM   11  C4  UNL     1      17.759  13.662  46.030  1.00  0.00     0.285 C
HETATM   12  O1  UNL     1      18.038  13.336  47.348  1.00  0.00    -0.282 OA
HETATM   13  O2  UNL     1      17.677  14.875  45.706  1.00  0.00    -0.263 OA
HETATM   14  C2  UNL     1      18.734  12.138  47.626  1.00  0.00     0.175 C
HETATM   15  C1  UNL     1      20.204  12.411  47.425  1.00  0.00     0.079 C
HETATM   16  C3  UNL     1      18.529  11.700  49.061  1.00  0.00     0.079 C
HETATM   17  O4  UNL     1      18.256  11.089  46.807  1.00  0.00    -0.282 OA
HETATM   18  C12 UNL     1      17.380  11.313  45.752  1.00  0.00     0.285 C
HETATM   19  O3  UNL     1      16.481  10.475  45.435  1.00  0.00    -0.263 OA
ENDBRANCH   9  10
ENDBRANCH   1   9
BRANCH   6  20
HETATM   20  C8  UNL     1      18.242  10.305  39.189  1.00  0.00     0.039 A
HETATM   21  C9  UNL     1      19.313  10.332  38.186  1.00  0.00     0.011 A
HETATM   22  C10 UNL     1      17.927  10.875  37.822  1.00  0.00     0.011 A
ENDBRANCH   6  20
TORSDOF 3
ENDMDL