MODEL 4
REMARK VINA RESULT: -9.572320501      4.883      8.021
REMARK  7 active torsions:
REMARK  status: ('A' for Active; 'I' for Inactive)
REMARK    1  A    between atoms: C2_2  and  O1_3
REMARK    2  A    between atoms: C2_2  and  C3_5
REMARK    3  A    between atoms: C3_5  and  N1_6
REMARK    4  A    between atoms: C3_5  and  C15_20
REMARK       I    between atoms: N1_6  and  C4_8
REMARK    5  A    between atoms: C4_8  and  C5_10
REMARK       I    between atoms: C15_20  and  N2_22
REMARK    6  A    between atoms: C16_23  and  N3_24
REMARK       I    between atoms: N3_24  and  C17_26
REMARK    7  A    between atoms: C17_26  and  C18_28
ROOT
HETATM    1  C15 UNL     1      41.800  15.785  13.894  1.00  0.00     0.247 C
HETATM    2  O3  UNL     1      40.688  15.774  13.254  1.00  0.00    -0.271 OA
HETATM    3  N2  UNL     1      42.554  16.973  13.882  1.00  0.00    -0.324 N
HETATM    4  C16 UNL     1      43.825  17.166  14.475  1.00  0.00     0.190 C
HETATM    5  C30 UNL     1      44.820  17.581  13.397  1.00  0.00     0.047 C
HETATM    6  C31 UNL     1      44.329  18.574  12.429  1.00  0.00     0.010 C
HETATM    7  C32 UNL     1      42.929  19.021  12.568  1.00  0.00     0.011 A
HETATM    8  C33 UNL     1      41.921  18.198  11.739  1.00  0.00     0.032 A
HETATM    9  C34 UNL     1      41.978  18.126  13.199  1.00  0.00     0.094 A
ENDROOT
BRANCH   1  10
HETATM   10  C3  UNL     1      42.153  14.521  14.574  1.00  0.00     0.205 C
BRANCH  10  11
HETATM   11  C2  UNL     1      42.714  13.513  13.572  1.00  0.00     0.146 C
HETATM   12  C1  UNL     1      44.133  13.839  13.237  1.00  0.00     0.042 C
BRANCH  11  13
HETATM   13  O1  UNL     1      41.888  13.496  12.446  1.00  0.00    -0.393 OA
ATOM     14  H1  UNL     1      42.254  13.986  11.718  1.00  0.00     0.210 HD
ENDBRANCH  11  13
ENDBRANCH  10  11
BRANCH  10  15
HETATM   15  N1  UNL     1      43.203  14.778  15.570  1.00  0.00    -0.345 N
HETATM   16  C4  UNL     1      43.148  14.151  16.847  1.00  0.00     0.227 C
HETATM   17  O2  UNL     1      42.187  13.382  17.094  1.00  0.00    -0.273 OA
ATOM     18  H1  UNL     1      43.973  15.409  15.346  1.00  0.00     0.163 HD
BRANCH  16  19
HETATM   19  C5  UNL     1      44.169  14.371  17.876  1.00  0.00     0.042 C
HETATM   20  C6  UNL     1      45.281  15.272  17.378  1.00  0.00     0.024 C
HETATM   21  C7  UNL     1      46.275  15.473  18.482  1.00  0.00    -0.013 C
HETATM   22  C8  UNL     1      46.902  14.172  18.873  1.00  0.00     0.009 C
HETATM   23  C12 UNL     1      45.572  16.125  19.651  1.00  0.00     0.009 C
HETATM   24  C9  UNL     1      45.829  13.213  19.344  1.00  0.00    -0.013 C
HETATM   25  C10 UNL     1      45.149  13.821  20.555  1.00  0.00     0.009 C
HETATM   26  C14 UNL     1      44.833  13.033  18.224  1.00  0.00     0.024 C
HETATM   27  C11 UNL     1      44.558  15.160  20.188  1.00  0.00    -0.013 C
HETATM   28  C13 UNL     1      43.528  14.931  19.109  1.00  0.00     0.024 C
ENDBRANCH  16  19
ENDBRANCH  10  15
ENDBRANCH   1  10
BRANCH   4  29
HETATM   29  N3  UNL     1      43.899  18.149  15.527  1.00  0.00    -0.339 N
HETATM   30  C17 UNL     1      43.140  18.193  16.695  1.00  0.00     0.223 C
HETATM   31  O4  UNL     1      42.284  17.313  16.916  1.00  0.00    -0.273 OA
ATOM     32  H3  UNL     1      44.583  18.895  15.402  1.00  0.00     0.164 HD
BRANCH  30  33
HETATM   33  C18 UNL     1      43.325  19.267  17.688  1.00  0.00     0.078 C
HETATM   34  C19 UNL     1      42.982  18.753  19.044  1.00  0.00     0.014 C
HETATM   35  C20 UNL     1      43.885  19.234  20.137  1.00  0.00     0.006 C
HETATM   36  C21 UNL     1      44.263  20.669  19.884  1.00  0.00    -0.007 C
HETATM   37  C22 UNL     1      45.047  21.284  21.000  1.00  0.00    -0.014 C
HETATM   38  C28 UNL     1      45.136  20.737  18.637  1.00  0.00    -0.009 C
HETATM   39  C23 UNL     1      44.798  20.575  22.327  1.00  0.00     0.010 C
HETATM   40  C24 UNL     1      44.716  22.729  21.165  1.00  0.00     0.005 C
HETATM   41  C25 UNL     1      45.326  23.641  20.171  1.00  0.00     0.000 C
HETATM   42  C26 UNL     1      46.041  22.956  19.041  1.00  0.00     0.000 C
HETATM   43  C27 UNL     1      45.103  22.161  18.153  1.00  0.00     0.005 C
HETATM   44  C29 UNL     1      44.764  19.734  17.605  1.00  0.00     0.019 C
ENDBRANCH  30  33
ENDBRANCH   4  29
TORSDOF 7
ENDMDL