MODEL 2
REMARK VINA RESULT: -9.202465583      0.855      1.056
REMARK  7 active torsions:
REMARK  status: ('A' for Active; 'I' for Inactive)
REMARK    1  A    between atoms: C2_3  and  C3_5
REMARK    2  A    between atoms: C6_8  and  C7_9
REMARK    3  A    between atoms: C15_20  and  C16_21
REMARK       I    between atoms: C16_21  and  N2_23
REMARK    4  A    between atoms: N2_23  and  C17_25
REMARK    5  A    between atoms: C17_25  and  C18_26
REMARK    6  A    between atoms: C18_26  and  C19_27
REMARK    7  A    between atoms: C19_27  and  N3_28
ROOT
HETATM    1  C1  UNL     1      41.905  17.624  13.077  1.00  0.00     0.263 C
HETATM    2  N1  UNL     1      42.953  18.405  13.589  1.00  0.00    -0.420 NA
HETATM    3  C2  UNL     1      43.933  19.134  14.067  1.00  0.00     0.291 C
HETATM    4  O1  UNL     1      44.492  20.138  13.621  1.00  0.00    -0.257 OA
ENDROOT
BRANCH   3   5
HETATM    5  C3  UNL     1      44.521  18.678  15.416  1.00  0.00     0.102 C
HETATM    6  C4  UNL     1      45.946  19.105  15.586  1.00  0.00     0.017 C
HETATM    7  C5  UNL     1      46.094  18.899  17.104  1.00  0.00     0.022 C
HETATM    8  C6  UNL     1      44.832  19.596  17.641  1.00  0.00     0.060 C
HETATM    9  C8  UNL     1      45.224  20.972  18.000  1.00  0.00     0.011 C
HETATM   10  C30 UNL     1      43.811  19.390  16.567  1.00  0.00    -0.013 C
HETATM   11  C9  UNL     1      45.714  21.086  19.429  1.00  0.00     0.011 C
HETATM   12  C27 UNL     1      44.210  22.023  17.732  1.00  0.00     0.001 C
HETATM   13  C10 UNL     1      44.948  22.030  20.276  1.00  0.00    -0.004 C
HETATM   14  C11 UNL     1      45.886  22.738  21.264  1.00  0.00     0.018 C
HETATM   15  C32 UNL     1      44.551  23.332  19.668  1.00  0.00    -0.021 C
HETATM   16  C12 UNL     1      45.541  24.001  20.504  1.00  0.00     0.065 C
HETATM   17  C13 UNL     1      46.729  24.542  19.834  1.00  0.00     0.132 C
HETATM   18  O4  UNL     1      47.820  24.546  20.342  1.00  0.00    -0.298 OA
HETATM   19  C14 UNL     1      46.477  25.084  18.490  1.00  0.00     0.093 C
HETATM   20  C15 UNL     1      45.967  23.849  17.678  1.00  0.00     0.094 C
HETATM   21  C25 UNL     1      44.664  23.408  18.162  1.00  0.00    -0.019 C
HETATM   22  C26 UNL     1      43.580  24.364  17.715  1.00  0.00     0.017 C
HETATM   23  C33 UNL     1      43.151  23.690  20.161  1.00  0.00     0.017 C
HETATM   24  C28 UNL     1      43.775  21.905  16.335  1.00  0.00     0.007 C
HETATM   25  C29 UNL     1      43.046  20.585  16.175  1.00  0.00     0.012 C
HETATM   26  C31 UNL     1      42.768  18.378  17.068  1.00  0.00     0.017 C
BRANCH   8  27
HETATM   27  C7  UNL     1      44.434  18.800  18.871  1.00  0.00     0.183 C
HETATM   28  O2  UNL     1      45.122  17.814  19.240  1.00  0.00    -0.647 OA
HETATM   29  O3  UNL     1      43.316  19.113  19.624  1.00  0.00    -0.647 OA
ENDBRANCH   8  27
BRANCH  20  30
HETATM   30  C16 UNL     1      46.220  24.277  16.307  1.00  0.00     0.223 C
HETATM   31  O5  UNL     1      46.552  23.364  15.496  1.00  0.00    -0.273 OA
HETATM   32  N2  UNL     1      46.154  25.573  15.777  1.00  0.00    -0.361 N
ATOM     33  H2  UNL     1      45.847  26.338  16.379  1.00  0.00     0.162 HD
BRANCH  32  34
HETATM   34  C17 UNL     1      46.517  25.868  14.369  1.00  0.00     0.124 C
BRANCH  34  35
HETATM   35  C18 UNL     1      47.096  27.278  14.332  1.00  0.00     0.050 C
BRANCH  35  36
HETATM   36  C19 UNL     1      47.086  27.836  12.945  1.00  0.00     0.274 C
BRANCH  36  37
HETATM   37  N3  UNL     1      46.661  29.188  12.920  1.00  0.00     0.088 N
HETATM   38  C20 UNL     1      46.627  29.852  11.663  1.00  0.00     0.272 C
HETATM   39  C21 UNL     1      45.357  29.620  10.865  1.00  0.00     0.030 C
HETATM   40  C22 UNL     1      44.224  30.224  11.696  1.00  0.00     0.003 C
HETATM   41  C23 UNL     1      44.190  29.406  12.964  1.00  0.00     0.030 C
HETATM   42  C24 UNL     1      45.479  29.433  13.726  1.00  0.00     0.272 C
ENDBRANCH  36  37
ENDBRANCH  35  36
ENDBRANCH  34  35
ENDBRANCH  32  34
ENDBRANCH  20  30
ENDBRANCH   3   5
TORSDOF 6
ENDMDL