MODEL 1
REMARK VINA RESULT: -9.345129425      0.000      0.000
REMARK  7 active torsions:
REMARK  status: ('A' for Active; 'I' for Inactive)
REMARK    1  A    between atoms: C4_4  and  C5_5
REMARK    2  A    between atoms: C5_5  and  C7_7
REMARK    3  A    between atoms: N1_12  and  C12_13
REMARK    4  A    between atoms: C12_13  and  C13_14
REMARK       I    between atoms: C13_14  and  N2_16
REMARK    5  A    between atoms: N2_16  and  C14_18
REMARK    6  A    between atoms: C14_18  and  C15_19
REMARK    7  A    between atoms: C15_19  and  N3_20
ROOT
HETATM    1  C5  UNL     1      45.368  22.322  18.316  1.00  0.00    -0.001 C
HETATM    2  C6  UNL     1      46.342  22.959  19.352  1.00  0.00     0.011 C
ENDROOT
BRANCH   1   3
HETATM    3  C4  UNL     1      44.647  21.206  18.862  1.00  0.00     0.004 C
HETATM    4  C3  UNL     1      43.943  21.504  20.168  1.00  0.00     0.039 C
HETATM    5  C2  UNL     1      44.640  20.790  21.239  1.00  0.00    -0.084 C
HETATM    6  C1  UNL     1      44.559  20.988  22.539  1.00  0.00     0.015 C
HETATM    7  C33 UNL     1      45.469  19.774  20.585  1.00  0.00     0.023 C
HETATM    8  C20 UNL     1      45.142  19.844  19.099  1.00  0.00    -0.024 C
HETATM    9  C32 UNL     1      44.969  18.449  21.109  1.00  0.00     0.010 C
HETATM   10  C21 UNL     1      46.144  19.159  18.287  1.00  0.00     0.022 C
HETATM   11  C30 UNL     1      43.900  18.920  19.032  1.00  0.00     0.000 C
HETATM   12  C22 UNL     1      45.514  18.046  17.461  1.00  0.00    -0.019 C
HETATM   13  C23 UNL     1      45.980  16.739  18.080  1.00  0.00     0.018 C
HETATM   14  C24 UNL     1      45.945  18.004  16.020  1.00  0.00     0.089 C
HETATM   15  C29 UNL     1      44.076  18.335  17.668  1.00  0.00     0.008 C
HETATM   16  C25 UNL     1      47.283  18.576  15.715  1.00  0.00     0.033 C
HETATM   17  N4  UNL     1      44.986  18.527  15.072  1.00  0.00    -0.349 N
HETATM   18  C26 UNL     1      43.652  18.096  14.846  1.00  0.00     0.287 C
ATOM     19  H4  UNL     1      45.308  19.303  14.493  1.00  0.00     0.163 HD
HETATM   20  O3  UNL     1      43.106  18.334  13.713  1.00  0.00    -0.264 OA
HETATM   21  C27 UNL     1      42.828  17.384  15.832  1.00  0.00     0.216 C
HETATM   22  O4  UNL     1      41.815  16.788  15.397  1.00  0.00    -0.287 OA
HETATM   23  C28 UNL     1      43.081  17.299  17.324  1.00  0.00     0.095 C
HETATM   24  C31 UNL     1      43.915  17.989  20.151  1.00  0.00     0.006 C
ENDBRANCH   1   3
BRANCH   1  25
HETATM   25  C7  UNL     1      44.796  23.419  17.486  1.00  0.00     0.082 C
HETATM   26  C8  UNL     1      45.975  24.422  17.168  1.00  0.00     0.014 C
HETATM   27  C9  UNL     1      45.749  25.152  15.889  1.00  0.00     0.002 C
HETATM   28  C10 UNL     1      46.710  24.664  14.789  1.00  0.00     0.020 C
HETATM   29  C11 UNL     1      46.588  23.149  14.744  1.00  0.00     0.126 C
HETATM   30  N1  UNL     1      45.203  22.709  14.976  1.00  0.00    -0.343 N
HETATM   31  C19 UNL     1      44.379  23.112  16.098  1.00  0.00     0.224 C
HETATM   32  O2  UNL     1      43.163  23.190  15.759  1.00  0.00    -0.273 OA
BRANCH  30  33
HETATM   33  C12 UNL     1      44.638  21.822  14.011  1.00  0.00     0.228 C
BRANCH  33  34
HETATM   34  C13 UNL     1      44.476  22.469  12.678  1.00  0.00     0.235 C
HETATM   35  O1  UNL     1      45.151  22.027  11.723  1.00  0.00    -0.272 OA
HETATM   36  N2  UNL     1      43.591  23.552  12.474  1.00  0.00    -0.357 N
ATOM     37  H2  UNL     1      43.090  23.874  13.302  1.00  0.00     0.162 HD
BRANCH  36  38
HETATM   38  C14 UNL     1      43.307  24.249  11.279  1.00  0.00     0.161 C
BRANCH  38  39
HETATM   39  C15 UNL     1      43.317  25.709  11.252  1.00  0.00     0.139 C
HETATM   40  C16 UNL     1      43.727  26.307   9.868  1.00  0.00     0.040 C
HETATM   41  C17 UNL     1      43.968  27.596  10.692  1.00  0.00     0.005 C
HETATM   42  C18 UNL     1      44.381  26.569  11.814  1.00  0.00     0.040 C
BRANCH  39  43
HETATM   43  N3  UNL     1      41.967  26.262  11.480  1.00  0.00    -0.069 N
ATOM     44  H33 UNL     1      41.598  26.705  10.639  1.00  0.00     0.275 HD
ATOM     45  H32 UNL     1      41.273  25.522  11.585  1.00  0.00     0.275 HD
ATOM     46  H31 UNL     1      41.955  26.901  12.275  1.00  0.00     0.275 HD
ENDBRANCH  39  43
ENDBRANCH  38  39
ENDBRANCH  36  38
ENDBRANCH  33  34
ENDBRANCH  30  33
ENDBRANCH   1  25
TORSDOF 7
ENDMDL