MODEL 4
REMARK VINA RESULT: -7.337717327      0.895      1.083
REMARK  8 active torsions:
REMARK  status: ('A' for Active; 'I' for Inactive)
REMARK    1  A    between atoms: C2_2  and  C3_3
REMARK    2  A    between atoms: C3_3  and  C4_4
REMARK    3  A    between atoms: C5_5  and  C6_6
REMARK    4  A    between atoms: N1_16  and  C16_17
REMARK    5  A    between atoms: C16_17  and  C17_18
REMARK    6  A    between atoms: C17_18  and  C18_19
REMARK    7  A    between atoms: C25_35  and  C26_36
REMARK    8  A    between atoms: C26_36  and  C28_38
ROOT
HETATM    1  C6  UNL     1      44.253  20.268  17.380  1.00  0.00     0.085 C
HETATM    2  C7  UNL     1      43.267  20.260  16.498  1.00  0.00     0.026 C
HETATM    3  C8  UNL     1      42.930  19.168  15.596  1.00  0.00    -0.002 C
HETATM    4  C9  UNL     1      43.638  18.742  14.579  1.00  0.00    -0.027 C
HETATM    5  C10 UNL     1      44.918  19.239  14.086  1.00  0.00     0.027 C
HETATM    6  C11 UNL     1      45.020  19.025  12.599  1.00  0.00     0.007 C
HETATM    7  C12 UNL     1      43.699  19.212  11.909  1.00  0.00     0.027 C
HETATM    8  C13 UNL     1      43.629  18.430  10.638  1.00  0.00    -0.029 C
HETATM    9  C14 UNL     1      42.863  17.403  10.382  1.00  0.00    -0.010 C
HETATM   10  C15 UNL     1      41.874  16.760  11.284  1.00  0.00     0.163 C
HETATM   11  N1  UNL     1      42.171  15.366  11.358  1.00  0.00    -0.290 N
HETATM   12  S1  UNL     1      42.844  14.803  12.809  1.00  0.00     0.323 S
HETATM   13  O1  UNL     1      43.010  13.291  12.648  1.00  0.00    -0.182 OA
HETATM   14  O2  UNL     1      44.207  15.424  12.955  1.00  0.00    -0.182 OA
HETATM   15  N2  UNL     1      41.871  15.021  14.195  1.00  0.00    -0.235 N
ATOM     16  H2  UNL     1      40.863  14.982  14.042  1.00  0.00     0.183 HD
HETATM   17  C21 UNL     1      42.277  15.247  15.509  1.00  0.00     0.254 C
HETATM   18  O3  UNL     1      41.443  15.861  16.266  1.00  0.00    -0.270 OA
HETATM   19  C22 UNL     1      43.551  14.867  16.147  1.00  0.00     0.173 C
HETATM   20  C23 UNL     1      43.975  13.453  15.728  1.00  0.00     0.042 C
HETATM   21  N3  UNL     1      43.447  14.830  17.581  1.00  0.00    -0.346 N
ATOM     22  H3  UNL     1      42.885  14.070  17.965  1.00  0.00     0.163 HD
HETATM   23  C24 UNL     1      44.017  15.701  18.521  1.00  0.00     0.241 C
HETATM   24  O4  UNL     1      44.744  15.225  19.473  1.00  0.00    -0.271 OA
HETATM   25  C25 UNL     1      43.877  17.180  18.553  1.00  0.00     0.180 C
HETATM   26  N4  UNL     1      44.880  17.805  17.721  1.00  0.00    -0.343 N
ATOM     27  H4  UNL     1      45.436  17.176  17.143  1.00  0.00     0.163 HD
HETATM   28  C30 UNL     1      45.181  19.164  17.612  1.00  0.00     0.260 C
HETATM   29  O5  UNL     1      46.418  19.511  17.727  1.00  0.00    -0.267 OA
ENDROOT
BRANCH   1  30
HETATM   30  C5  UNL     1      44.444  21.461  18.202  1.00  0.00    -0.061 C
HETATM   31  C4  UNL     1      44.590  22.455  18.910  1.00  0.00    -0.097 C
BRANCH  31  32
HETATM   32  C3  UNL     1      44.756  23.634  19.757  1.00  0.00     0.120 C
BRANCH  32  33
HETATM   33  C2  UNL     1      45.854  24.473  19.179  1.00  0.00    -0.025 C
HETATM   34  C1  UNL     1      47.118  24.296  19.512  1.00  0.00     0.008 C
ENDBRANCH  32  33
ENDBRANCH  31  32
ENDBRANCH   1  30
BRANCH  25  35
HETATM   35  C26 UNL     1      43.942  17.725  19.967  1.00  0.00     0.013 C
HETATM   36  C27 UNL     1      42.916  18.776  20.258  1.00  0.00     0.012 C
BRANCH  35  37
HETATM   37  C28 UNL     1      45.294  18.247  20.320  1.00  0.00     0.002 C
HETATM   38  C29 UNL     1      45.262  19.426  21.258  1.00  0.00     0.005 C
ENDBRANCH  35  37
ENDBRANCH  25  35
BRANCH  11  39
HETATM   39  C16 UNL     1      41.262  14.492  10.701  1.00  0.00     0.137 C
BRANCH  39  40
HETATM   40  C17 UNL     1      41.742  14.133   9.335  1.00  0.00     0.024 C
BRANCH  40  41
HETATM   41  C18 UNL     1      40.771  14.559   8.251  1.00  0.00    -0.021 C
HETATM   42  C19 UNL     1      40.425  13.369   7.417  1.00  0.00     0.009 C
HETATM   43  C20 UNL     1      41.395  15.617   7.368  1.00  0.00     0.009 C
ENDBRANCH  40  41
ENDBRANCH  39  40
ENDBRANCH  11  39
TORSDOF 8
ENDMDL