MODEL 3
REMARK VINA RESULT: -8.075958143      4.918      7.718
REMARK  7 active torsions:
REMARK  status: ('A' for Active; 'I' for Inactive)
REMARK    1  A    between atoms: C3_3  and  N1_4
REMARK       I    between atoms: N1_4  and  C4_6
REMARK    2  A    between atoms: C4_6  and  C5_8
REMARK    3  A    between atoms: C6_11  and  C7_12
REMARK    4  A    between atoms: C7_12  and  C8_13
REMARK    5  A    between atoms: C12_20  and  C13_21
REMARK    6  A    between atoms: C13_21  and  C14_22
REMARK    7  A    between atoms: C17_25  and  O3_26
ROOT
HETATM    1  C5  UNL     1      44.576  22.502  13.816  1.00  0.00     0.213 C
HETATM    2  N2  UNL     1      45.348  21.563  13.128  1.00  0.00    -0.393 N
ATOM      3  H2  UNL     1      46.357  21.700  13.064  1.00  0.00     0.155 HD
HETATM    4  C6  UNL     1      44.764  20.420  12.516  1.00  0.00     0.170 C
HETATM    5  C11 UNL     1      43.399  20.129  12.986  1.00  0.00     0.240 C
HETATM    6  O2  UNL     1      42.479  20.915  12.520  1.00  0.00    -0.271 OA
HETATM    7  N3  UNL     1      42.962  19.129  13.859  1.00  0.00    -0.347 N
ATOM      8  H3  UNL     1      42.140  18.620  13.533  1.00  0.00     0.163 HD
HETATM    9  C12 UNL     1      43.457  18.690  15.124  1.00  0.00     0.159 C
HETATM   10  C17 UNL     1      44.856  18.955  15.446  1.00  0.00     0.137 C
HETATM   11  N4  UNL     1      45.488  20.012  16.114  1.00  0.00    -0.354 N
HETATM   12  C18 UNL     1      46.454  19.648  17.216  1.00  0.00     0.125 C
HETATM   13  C19 UNL     1      45.782  19.856  18.554  1.00  0.00     0.020 C
HETATM   14  C20 UNL     1      44.824  21.033  18.375  1.00  0.00     0.004 C
HETATM   15  C21 UNL     1      45.531  21.979  17.411  1.00  0.00     0.031 C
HETATM   16  C22 UNL     1      45.433  21.427  15.961  1.00  0.00     0.129 C
HETATM   17  C23 UNL     1      44.373  22.066  15.232  1.00  0.00     0.041 C
HETATM   18  S1  UNL     1      43.114  22.340  15.837  1.00  0.00    -0.085 SA
ENDROOT
BRANCH   1  19
HETATM   19  C4  UNL     1      45.332  23.842  13.908  1.00  0.00     0.249 C
HETATM   20  N1  UNL     1      44.880  24.936  13.166  1.00  0.00    -0.329 N
ATOM     21  H1  UNL     1      44.052  24.797  12.587  1.00  0.00     0.168 HD
HETATM   22  O1  UNL     1      46.316  23.835  14.665  1.00  0.00    -0.270 OA
BRANCH  20  23
HETATM   23  C3  UNL     1      45.472  26.215  13.150  1.00  0.00     0.015 C
HETATM   24  C2  UNL     1      44.959  27.087  12.267  1.00  0.00    -0.057 C
HETATM   25  C1  UNL     1      43.826  26.562  11.423  1.00  0.00     0.046 C
HETATM   26  C31 UNL     1      45.285  28.490  11.967  1.00  0.00     0.020 C
HETATM   27  C29 UNL     1      46.720  28.808  11.761  1.00  0.00    -0.005 C
HETATM   28  C32 UNL     1      44.723  29.424  13.020  1.00  0.00     0.014 C
HETATM   29  C28 UNL     1      46.849  30.181  12.444  1.00  0.00     0.010 C
HETATM   30  C30 UNL     1      47.674  27.924  12.530  1.00  0.00     0.010 C
HETATM   31  C27 UNL     1      46.009  29.925  13.684  1.00  0.00    -0.013 C
HETATM   32  C26 UNL     1      46.578  28.894  14.599  1.00  0.00     0.009 C
HETATM   33  C25 UNL     1      47.271  27.764  13.964  1.00  0.00    -0.008 C
HETATM   34  C24 UNL     1      46.582  26.415  14.099  1.00  0.00     0.062 C
ENDBRANCH  20  23
ENDBRANCH   1  19
BRANCH   4  35
HETATM   35  C7  UNL     1      44.911  20.612  11.029  1.00  0.00     0.038 C
BRANCH  35  36
HETATM   36  C8  UNL     1      45.500  21.853  10.525  1.00  0.00    -0.020 C
HETATM   37  C9  UNL     1      44.306  22.729  10.038  1.00  0.00     0.009 C
HETATM   38  C10 UNL     1      46.418  21.812   9.353  1.00  0.00     0.009 C
ENDBRANCH  35  36
ENDBRANCH   4  35
BRANCH  10  39
HETATM   39  O3  UNL     1      45.692  18.040  15.043  1.00  0.00    -0.348 OA
ATOM     40  H3  UNL     1      45.553  17.738  14.153  1.00  0.00     0.219 HD
ENDBRANCH  10  39
BRANCH   9  41
HETATM   41  C13 UNL     1      43.080  17.238  15.420  1.00  0.00     0.037 C
BRANCH  41  42
HETATM   42  C14 UNL     1      42.682  16.870  16.776  1.00  0.00    -0.020 C
HETATM   43  C15 UNL     1      43.836  15.956  17.307  1.00  0.00     0.009 C
HETATM   44  C16 UNL     1      42.656  18.006  17.771  1.00  0.00     0.009 C
ENDBRANCH  41  42
ENDBRANCH   9  41
TORSDOF 7
ENDMDL