MODEL 4
REMARK VINA RESULT: -8.588435843      1.914      2.453
REMARK  6 active torsions:
REMARK  status: ('A' for Active; 'I' for Inactive)
REMARK    1  A    between atoms: C2_2  and  C4_4
REMARK    2  A    between atoms: C4_4  and  N1_5
REMARK       I    between atoms: N1_5  and  C5_7
REMARK       I    between atoms: C5_7  and  N2_9
REMARK    3  A    between atoms: N3_12  and  C8_13
REMARK    4  A    between atoms: C8_13  and  C9_14
REMARK       I    between atoms: C9_14  and  N4_16
REMARK    5  A    between atoms: N4_16  and  C10_18
REMARK    6  A    between atoms: C22_30  and  N5_31
REMARK       I    between atoms: N5_31  and  C23_33
REMARK       I    between atoms: C23_33  and  N6_35
ROOT
HETATM    1  C8  UNL     1      43.899  20.760  15.834  1.00  0.00     0.110 C
HETATM    2  C20 UNL     1      42.608  19.922  15.751  1.00  0.00     0.043 C
HETATM    3  C21 UNL     1      42.749  18.710  16.636  1.00  0.00     0.028 C
HETATM    4  C22 UNL     1      43.652  17.731  15.851  1.00  0.00     0.086 C
HETATM    5  C29 UNL     1      44.750  18.527  15.256  1.00  0.00     0.028 C
HETATM    6  C30 UNL     1      45.042  19.821  15.974  1.00  0.00     0.043 C
ENDROOT
BRANCH   1   7
HETATM    7  N3  UNL     1      43.958  21.488  14.597  1.00  0.00    -0.393 N
HETATM    8  C7  UNL     1      42.840  21.461  13.744  1.00  0.00     0.138 C
HETATM    9  C6  UNL     1      42.960  22.596  12.712  1.00  0.00     0.147 C
HETATM   10  N2  UNL     1      44.214  22.470  12.018  1.00  0.00    -0.331 N
HETATM   11  C5  UNL     1      44.503  23.375  10.938  1.00  0.00     0.322 C
HETATM   12  C32 UNL     1      45.115  21.431  12.439  1.00  0.00     0.147 C
HETATM   13  N1  UNL     1      43.578  24.315  10.538  1.00  0.00    -0.322 N
HETATM   14  O1  UNL     1      45.632  23.222  10.431  1.00  0.00    -0.247 OA
ATOM     15  H1  UNL     1      42.708  24.298  11.070  1.00  0.00     0.169 HD
HETATM   16  C31 UNL     1      45.245  21.445  13.970  1.00  0.00     0.138 C
BRANCH  13  17
HETATM   17  C4  UNL     1      43.618  25.289   9.533  1.00  0.00     0.069 C
BRANCH  17  18
HETATM   18  C2  UNL     1      43.327  26.704   9.839  1.00  0.00     0.016 C
HETATM   19  C1  UNL     1      43.731  27.768   8.880  1.00  0.00     0.015 C
HETATM   20  C3  UNL     1      43.962  27.064  11.197  1.00  0.00     0.015 C
ENDBRANCH  17  18
ENDBRANCH  13  17
ENDBRANCH   1   7
BRANCH   1  21
HETATM   21  C9  UNL     1      43.727  21.653  17.011  1.00  0.00     0.246 C
HETATM   22  O2  UNL     1      42.801  22.501  16.959  1.00  0.00    -0.271 OA
HETATM   23  N4  UNL     1      44.502  21.639  18.178  1.00  0.00    -0.354 N
ATOM     24  H4  UNL     1      45.251  20.951  18.252  1.00  0.00     0.163 HD
BRANCH  23  25
HETATM   25  C10 UNL     1      44.296  22.550  19.285  1.00  0.00     0.092 C
HETATM   26  C11 UNL     1      44.930  23.878  19.078  1.00  0.00     0.009 C
HETATM   27  C12 UNL     1      46.423  23.903  19.311  1.00  0.00     0.011 C
HETATM   28  C16 UNL     1      44.350  24.831  20.129  1.00  0.00     0.011 C
HETATM   29  C13 UNL     1      46.809  23.356  20.674  1.00  0.00    -0.013 C
HETATM   30  C14 UNL     1      46.218  24.260  21.708  1.00  0.00     0.009 C
HETATM   31  C19 UNL     1      46.276  21.935  20.717  1.00  0.00     0.011 C
HETATM   32  C15 UNL     1      44.710  24.290  21.490  1.00  0.00    -0.013 C
HETATM   33  C17 UNL     1      44.252  22.857  21.702  1.00  0.00     0.011 C
HETATM   34  C18 UNL     1      44.791  21.968  20.587  1.00  0.00     0.009 C
ENDBRANCH  23  25
ENDBRANCH   1  21
BRANCH   4  35
HETATM   35  N5  UNL     1      42.784  17.128  14.833  1.00  0.00    -0.338 N
HETATM   36  C23 UNL     1      42.975  15.764  14.530  1.00  0.00     0.318 C
HETATM   37  O3  UNL     1      43.855  15.061  15.132  1.00  0.00    -0.247 OA
HETATM   38  N6  UNL     1      42.194  15.129  13.551  1.00  0.00    -0.334 N
HETATM   39  C24 UNL     1      42.358  13.681  13.320  1.00  0.00     0.127 C
HETATM   40  C28 UNL     1      41.247  15.851  12.751  1.00  0.00     0.127 C
HETATM   41  C25 UNL     1      42.931  13.511  11.938  1.00  0.00     0.020 C
HETATM   42  C26 UNL     1      42.502  14.580  10.979  1.00  0.00     0.003 C
HETATM   43  C27 UNL     1      41.223  15.275  11.335  1.00  0.00     0.020 C
ATOM     44  H5  UNL     1      42.067  17.678  14.360  1.00  0.00     0.164 HD
ENDBRANCH   4  35
TORSDOF 6
ENDMDL