MODEL 4
REMARK VINA RESULT: -8.175059897      4.287     10.953
REMARK  10 active torsions:
REMARK  status: ('A' for Active; 'I' for Inactive)
REMARK       I    between atoms: N1_2  and  C2_4
REMARK    1  A    between atoms: C2_4  and  C3_6
REMARK    2  A    between atoms: C3_6  and  N2_7
REMARK    3  A    between atoms: C3_6  and  C27_41
REMARK       I    between atoms: N2_7  and  C4_9
REMARK    4  A    between atoms: C4_9  and  C5_11
REMARK    5  A    between atoms: C5_11  and  C6_12
REMARK    6  A    between atoms: C5_11  and  N3_20
REMARK    7  A    between atoms: C6_12  and  C7_13
REMARK       I    between atoms: N3_20  and  C14_22
REMARK       I    between atoms: C14_22  and  N4_24
REMARK    8  A    between atoms: N5_27  and  C17_28
REMARK    9  A    between atoms: C17_28  and  O4_29
REMARK   10  A    between atoms: C17_28  and  N6_31
ROOT
HETATM    1  C5  UNL     1      43.906  23.075  16.523  1.00  0.00     0.178 C
ENDROOT
BRANCH   1   2
HETATM    2  C4  UNL     1      44.732  23.298  15.318  1.00  0.00     0.241 C
HETATM    3  N2  UNL     1      44.227  23.665  14.073  1.00  0.00    -0.345 N
ATOM      4  H2  UNL     1      43.223  23.801  13.958  1.00  0.00     0.163 HD
HETATM    5  O2  UNL     1      45.995  23.145  15.424  1.00  0.00    -0.271 OA
BRANCH   3   6
HETATM    6  C3  UNL     1      45.121  23.861  12.923  1.00  0.00     0.184 C
BRANCH   6   7
HETATM    7  C2  UNL     1      45.243  25.327  12.650  1.00  0.00     0.240 C
HETATM    8  N1  UNL     1      44.190  26.188  12.310  1.00  0.00    -0.364 N
HETATM    9  C1  UNL     1      44.443  27.613  12.067  1.00  0.00     0.149 C
ATOM     10  H1  UNL     1      43.241  25.821  12.231  1.00  0.00     0.161 HD
HETATM   11  O1  UNL     1      46.413  25.854  12.726  1.00  0.00    -0.271 OA
ENDBRANCH   6   7
BRANCH   6  12
HETATM   12  C27 UNL     1      44.565  23.080  11.765  1.00  0.00    -0.022 C
HETATM   13  C28 UNL     1      43.041  23.032  11.826  1.00  0.00     0.017 C
HETATM   14  C29 UNL     1      45.019  23.558  10.429  1.00  0.00     0.017 C
HETATM   15  C30 UNL     1      44.987  21.596  11.901  1.00  0.00     0.017 C
ENDBRANCH   6  12
ENDBRANCH   3   6
ENDBRANCH   1   2
BRANCH   1  16
HETATM   16  C6  UNL     1      44.194  24.066  17.629  1.00  0.00     0.039 C
BRANCH  16  17
HETATM   17  C7  UNL     1      44.569  23.443  18.926  1.00  0.00    -0.012 C
HETATM   18  C8  UNL     1      44.361  24.378  20.104  1.00  0.00     0.005 C
HETATM   19  C9  UNL     1      45.021  23.733  21.301  1.00  0.00     0.000 C
HETATM   20  C10 UNL     1      46.292  24.420  21.688  1.00  0.00     0.000 C
HETATM   21  C11 UNL     1      47.391  24.244  20.683  1.00  0.00     0.000 C
HETATM   22  C12 UNL     1      46.910  24.321  19.255  1.00  0.00     0.000 C
HETATM   23  C13 UNL     1      46.062  23.145  18.870  1.00  0.00     0.005 C
ENDBRANCH  16  17
ENDBRANCH   1  16
BRANCH   1  24
HETATM   24  N3  UNL     1      43.950  21.704  16.891  1.00  0.00    -0.330 N
HETATM   25  C14 UNL     1      43.447  20.619  16.144  1.00  0.00     0.319 C
HETATM   26  O3  UNL     1      42.872  20.803  15.018  1.00  0.00    -0.247 OA
HETATM   27  N4  UNL     1      43.526  19.270  16.552  1.00  0.00    -0.327 N
HETATM   28  C15 UNL     1      43.012  18.184  15.724  1.00  0.00     0.148 C
HETATM   29  C25 UNL     1      44.113  18.901  17.803  1.00  0.00     0.102 C
HETATM   30  C16 UNL     1      43.730  16.892  16.061  1.00  0.00     0.146 C
HETATM   31  N5  UNL     1      43.511  16.564  17.489  1.00  0.00    -0.344 N
HETATM   32  C24 UNL     1      43.445  17.645  18.416  1.00  0.00     0.151 C
HETATM   33  C26 UNL     1      45.595  18.622  17.721  1.00  0.00     0.034 C
ATOM     34  H3  UNL     1      44.390  21.482  17.785  1.00  0.00     0.165 HD
BRANCH  31  35
HETATM   35  C17 UNL     1      43.401  15.187  17.776  1.00  0.00     0.217 C
BRANCH  35  36
HETATM   36  O4  UNL     1      42.308  14.594  17.367  1.00  0.00    -0.332 OA
ATOM     37  H4  UNL     1      42.060  13.801  17.829  1.00  0.00     0.220 HD
ENDBRANCH  35  36
BRANCH  35  38
HETATM   38  N6  UNL     1      44.291  14.354  18.436  1.00  0.00    -0.343 N
HETATM   39  C18 UNL     1      45.198  13.416  17.786  1.00  0.00     0.127 C
HETATM   40  C19 UNL     1      46.380  13.106  18.688  1.00  0.00     0.020 C
HETATM   41  C20 UNL     1      46.813  14.241  19.527  1.00  0.00     0.004 C
HETATM   42  C21 UNL     1      45.723  15.067  20.153  1.00  0.00     0.025 C
HETATM   43  C22 UNL     1      44.415  14.340  19.898  1.00  0.00     0.083 C
HETATM   44  C23 UNL     1      43.261  14.801  20.674  1.00  0.00     0.032 C
ENDBRANCH  35  38
ENDBRANCH  31  35
ENDBRANCH   1  24
TORSDOF 10
ENDMDL