MODEL 3
REMARK VINA RESULT: -8.557638846      2.097      4.959
REMARK  9 active torsions:
REMARK  status: ('A' for Active; 'I' for Inactive)
REMARK    1  A    between atoms: C2_2  and  N1_5
REMARK       I    between atoms: N1_5  and  C5_7
REMARK       I    between atoms: C5_7  and  N2_9
REMARK    2  A    between atoms: N2_9  and  C6_11
REMARK    3  A    between atoms: C6_11  and  C7_12
REMARK    4  A    between atoms: C6_11  and  C26_39
REMARK    5  A    between atoms: C7_12  and  O2_13
REMARK    6  A    between atoms: C7_12  and  N3_15
REMARK    7  A    between atoms: C12_20  and  C13_21
REMARK       I    between atoms: C13_21  and  N4_23
REMARK    8  A    between atoms: N4_23  and  C14_25
REMARK    9  A    between atoms: C14_25  and  C15_26
REMARK       I    between atoms: C15_26  and  N5_28
ROOT
HETATM    1  N3  UNL     1      45.298  24.640  18.880  1.00  0.00    -0.350 N
HETATM    2  C8  UNL     1      44.446  25.099  19.938  1.00  0.00     0.125 C
HETATM    3  C9  UNL     1      44.256  24.081  21.028  1.00  0.00     0.020 C
HETATM    4  C10 UNL     1      45.538  23.538  21.592  1.00  0.00     0.004 C
HETATM    5  C11 UNL     1      46.595  23.433  20.515  1.00  0.00     0.035 C
HETATM    6  C12 UNL     1      46.047  23.388  19.146  1.00  0.00     0.178 C
ENDROOT
BRANCH   1   7
HETATM    7  C7  UNL     1      45.511  25.287  17.638  1.00  0.00     0.138 C
BRANCH   7   8
HETATM    8  C6  UNL     1      46.087  24.818  16.386  1.00  0.00     0.165 C
BRANCH   8   9
HETATM    9  N2  UNL     1      45.022  24.428  15.446  1.00  0.00    -0.331 N
HETATM   10  C5  UNL     1      44.901  23.171  14.845  1.00  0.00     0.317 C
HETATM   11  N1  UNL     1      43.819  22.930  13.950  1.00  0.00    -0.335 N
HETATM   12  O1  UNL     1      45.737  22.262  15.092  1.00  0.00    -0.247 OA
ATOM     13  H1  UNL     1      43.169  23.693  13.758  1.00  0.00     0.165 HD
ATOM     14  H2  UNL     1      44.318  25.129  15.216  1.00  0.00     0.165 HD
BRANCH  11  15
HETATM   15  C2  UNL     1      43.602  21.676  13.312  1.00  0.00     0.023 C
HETATM   16  C1  UNL     1      44.938  21.090  12.888  1.00  0.00     0.037 C
HETATM   17  C3  UNL     1      42.851  20.741  14.245  1.00  0.00     0.037 C
HETATM   18  C4  UNL     1      42.756  21.851  12.058  1.00  0.00     0.037 C
ENDBRANCH  11  15
ENDBRANCH   8   9
BRANCH   8  19
HETATM   19  C26 UNL     1      47.170  25.555  15.726  1.00  0.00     0.016 C
HETATM   20  C27 UNL     1      48.321  24.562  15.355  1.00  0.00     0.007 C
HETATM   21  C28 UNL     1      49.477  25.356  14.840  1.00  0.00     0.000 C
HETATM   22  C29 UNL     1      49.129  26.228  13.653  1.00  0.00     0.000 C
HETATM   23  C30 UNL     1      47.976  27.115  14.046  1.00  0.00     0.000 C
HETATM   24  C31 UNL     1      46.813  26.188  14.413  1.00  0.00     0.007 C
ENDBRANCH   8  19
ENDBRANCH   7   8
BRANCH   7  25
HETATM   25  O2  UNL     1      45.097  26.537  17.669  1.00  0.00    -0.348 OA
ATOM     26  H2  UNL     1      45.558  27.126  18.254  1.00  0.00     0.219 HD
ENDBRANCH   7  25
ENDBRANCH   1   7
BRANCH   6  27
HETATM   27  C13 UNL     1      45.280  22.198  18.747  1.00  0.00     0.241 C
HETATM   28  O3  UNL     1      44.252  22.362  18.036  1.00  0.00    -0.271 OA
HETATM   29  N4  UNL     1      45.669  20.922  19.132  1.00  0.00    -0.341 N
ATOM     30  H4  UNL     1      46.502  20.862  19.716  1.00  0.00     0.163 HD
BRANCH  29  31
HETATM   31  C14 UNL     1      45.024  19.657  18.799  1.00  0.00     0.114 C
HETATM   32  C21 UNL     1      45.609  18.614  19.710  1.00  0.00     0.041 C
HETATM   33  C22 UNL     1      44.905  18.307  20.964  1.00  0.00     0.003 C
HETATM   34  C23 UNL     1      43.920  19.398  21.301  1.00  0.00     0.000 C
HETATM   35  C24 UNL     1      42.907  19.339  20.142  1.00  0.00     0.003 C
HETATM   36  C25 UNL     1      43.545  19.845  18.891  1.00  0.00     0.041 C
BRANCH  31  37
HETATM   37  C15 UNL     1      45.428  19.317  17.403  1.00  0.00     0.248 C
HETATM   38  O4  UNL     1      46.370  20.011  16.891  1.00  0.00    -0.271 OA
HETATM   39  N5  UNL     1      44.883  18.315  16.593  1.00  0.00    -0.350 N
HETATM   40  C16 UNL     1      43.842  17.387  16.925  1.00  0.00     0.126 C
HETATM   41  C20 UNL     1      45.414  18.170  15.222  1.00  0.00     0.126 C
HETATM   42  C17 UNL     1      42.822  17.475  15.782  1.00  0.00     0.020 C
HETATM   43  C18 UNL     1      43.449  16.750  14.606  1.00  0.00     0.003 C
HETATM   44  C19 UNL     1      44.956  16.865  14.624  1.00  0.00     0.020 C
ENDBRANCH  31  37
ENDBRANCH  29  31
ENDBRANCH   6  27
TORSDOF 9
ENDMDL