MODEL 5
REMARK VINA RESULT: -5.500435666      0.896      2.133
REMARK  4 active torsions:
REMARK  status: ('A' for Active; 'I' for Inactive)
REMARK    1  A    between atoms: C2_2  and  C5_5
REMARK    2  A    between atoms: C5_5  and  N1_6
REMARK    3  A    between atoms: N1_6  and  C6_8
REMARK    4  A    between atoms: C9_14  and  N3_15
ROOT
HETATM    1  C6  UNL     1      17.449  43.653  -0.041  1.00  0.00     0.310 C
HETATM    2  N2  UNL     1      16.432  42.982   0.791  1.00  0.00    -0.052 N
ATOM      3  H21 UNL     1      16.072  42.112   0.398  1.00  0.00     0.279 HD
ATOM      4  H22 UNL     1      15.533  43.462   0.828  1.00  0.00     0.279 HD
HETATM    5  C7  UNL     1      17.099  42.833   2.093  1.00  0.00     0.237 C
HETATM    6  C8  UNL     1      18.426  42.267   1.638  1.00  0.00     0.064 C
HETATM    7  C9  UNL     1      18.666  42.853   0.243  1.00  0.00     0.234 C
ENDROOT
BRANCH   1   8
HETATM    8  N1  UNL     1      16.964  43.624  -1.382  1.00  0.00    -0.393 N
ATOM      9  H1  UNL     1      16.060  44.026  -1.635  1.00  0.00     0.155 HD
BRANCH   8  10
HETATM   10  C5  UNL     1      17.808  43.006  -2.349  1.00  0.00     0.124 C
BRANCH  10  11
HETATM   11  C2  UNL     1      18.143  44.006  -3.437  1.00  0.00    -0.036 C
HETATM   12  C1  UNL     1      19.157  45.026  -2.949  1.00  0.00     0.016 C
HETATM   13  C3  UNL     1      18.801  43.312  -4.624  1.00  0.00     0.016 C
HETATM   14  C4  UNL     1      16.918  44.720  -3.969  1.00  0.00     0.016 C
ENDBRANCH  10  11
ENDBRANCH   8  10
ENDBRANCH   1   8
BRANCH   7  15
HETATM   15  N3  UNL     1      19.901  43.563   0.303  1.00  0.00    -0.071 N
ATOM     16  H33 UNL     1      20.178  43.685   1.278  1.00  0.00     0.274 HD
ATOM     17  H32 UNL     1      20.657  42.965  -0.032  1.00  0.00     0.274 HD
ATOM     18  H31 UNL     1      19.937  44.461  -0.178  1.00  0.00     0.274 HD
ENDBRANCH   7  15
TORSDOF 4
ENDMDL