MODEL 5
REMARK VINA RESULT: -5.174651622      0.823      1.036
REMARK  4 active torsions:
REMARK  status: ('A' for Active; 'I' for Inactive)
REMARK    1  A    between atoms: C2_2  and  N1_4
REMARK    2  A    between atoms: N1_4  and  C4_6
REMARK    3  A    between atoms: C7_9  and  N2_10
REMARK    4  A    between atoms: C8_14  and  O1_15
ROOT
HETATM    1  C4  UNL     1      17.654  43.655  -1.013  1.00  0.00     0.079 C
HETATM    2  C5  UNL     1      19.064  43.856  -0.576  1.00  0.00     0.027 C
HETATM    3  C6  UNL     1      19.366  43.631   0.850  1.00  0.00     0.037 C
HETATM    4  C7  UNL     1      18.224  43.429   1.762  1.00  0.00     0.212 C
HETATM    5  C8  UNL     1      16.997  42.835   1.189  1.00  0.00     0.150 C
HETATM    6  C9  UNL     1      17.028  42.492  -0.251  1.00  0.00     0.058 C
ENDROOT
BRANCH   1   7
HETATM    7  N1  UNL     1      17.539  43.274  -2.402  1.00  0.00    -0.414 N
ATOM      8  H1  UNL     1      17.147  42.377  -2.686  1.00  0.00     0.153 HD
BRANCH   7   9
HETATM    9  C2  UNL     1      18.006  44.226  -3.349  1.00  0.00     0.068 C
HETATM   10  C1  UNL     1      16.909  44.967  -4.084  1.00  0.00     0.031 C
HETATM   11  C3  UNL     1      18.741  43.410  -4.427  1.00  0.00     0.031 C
ENDBRANCH   7   9
ENDBRANCH   1   7
BRANCH   5  12
HETATM   12  O1  UNL     1      15.888  43.695   1.388  1.00  0.00    -0.393 OA
ATOM     13  H1  UNL     1      15.083  43.271   1.114  1.00  0.00     0.210 HD
ENDBRANCH   5  12
BRANCH   4  14
HETATM   14  N2  UNL     1      18.662  42.565   2.873  1.00  0.00    -0.073 N
ATOM     15  H23 UNL     1      19.461  42.950   3.377  1.00  0.00     0.274 HD
ATOM     16  H22 UNL     1      17.999  42.556   3.648  1.00  0.00     0.274 HD
ATOM     17  H21 UNL     1      18.844  41.632   2.502  1.00  0.00     0.274 HD
ENDBRANCH   4  14
TORSDOF 4
ENDMDL