MODEL 5
REMARK VINA RESULT: -4.701869045      2.441      4.033
REMARK  3 active torsions:
REMARK  status: ('A' for Active; 'I' for Inactive)
REMARK    1  A    between atoms: C2_2  and  N1_4
REMARK    2  A    between atoms: N1_4  and  C4_6
REMARK    3  A    between atoms: C6_10  and  O1_11
ROOT
HETATM    1  C4  UNL     1      18.289  42.874  -1.146  1.00  0.00     0.133 C
HETATM    2  C5  UNL     1      18.846  44.115  -0.485  1.00  0.00     0.121 C
HETATM    3  S1  UNL     1      19.095  43.418   1.206  1.00  0.00    -0.061 SA
HETATM    4  N2  UNL     1      18.038  41.982   1.003  1.00  0.00    -0.145 NA
HETATM    5  C6  UNL     1      17.215  42.482  -0.116  1.00  0.00     0.243 C
ENDROOT
BRANCH   1   6
HETATM    6  N1  UNL     1      17.672  43.037  -2.383  1.00  0.00    -0.409 N
ATOM      7  H1  UNL     1      16.811  42.527  -2.579  1.00  0.00     0.154 HD
BRANCH   6   8
HETATM    8  C2  UNL     1      18.204  43.880  -3.366  1.00  0.00     0.069 C
HETATM    9  C1  UNL     1      18.778  43.228  -4.581  1.00  0.00     0.031 C
HETATM   10  C3  UNL     1      17.047  44.756  -3.874  1.00  0.00     0.031 C
ENDBRANCH   6   8
ENDBRANCH   1   6
BRANCH   5  11
HETATM   11  O1  UNL     1      16.494  43.606   0.294  1.00  0.00    -0.377 OA
ATOM     12  H1  UNL     1      15.585  43.535   0.029  1.00  0.00     0.211 HD
ENDBRANCH   5  11
TORSDOF 3
ENDMDL