MODEL 4
REMARK VINA RESULT: -5.283526475      1.481      1.771
REMARK  3 active torsions:
REMARK  status: ('A' for Active; 'I' for Inactive)
REMARK    1  A    between atoms: C3_3  and  S1_5
REMARK    2  A    between atoms: S1_5  and  C5_6
REMARK    3  A    between atoms: C6_9  and  N2_10
ROOT
HETATM    1  C1  UNL     1      18.328  40.948  -4.125  1.00  0.00     0.013 C
HETATM    2  C2  UNL     1      18.179  42.153  -4.099  1.00  0.00    -0.102 C
HETATM    3  C3  UNL     1      18.000  43.610  -4.050  1.00  0.00     0.129 C
HETATM    4  C4  UNL     1      19.313  44.254  -3.677  1.00  0.00     0.035 C
ENDROOT
BRANCH   3   5
HETATM    5  S1  UNL     1      16.855  43.929  -2.658  1.00  0.00    -0.075 SA
BRANCH   5   6
HETATM    6  C5  UNL     1      17.569  43.282  -1.150  1.00  0.00     0.175 A
HETATM    7  N1  UNL     1      18.509  43.826  -0.364  1.00  0.00    -0.168 N
HETATM    8  C6  UNL     1      18.784  43.026   0.687  1.00  0.00     0.692 A
ATOM      9  H1  UNL     1      18.957  44.725  -0.537  1.00  0.00     0.186 HD
HETATM   10  N3  UNL     1      17.985  41.954   0.540  1.00  0.00    -0.130 N
HETATM   11  N4  UNL     1      17.252  42.111  -0.570  1.00  0.00    -0.265 N
ATOM     12  H3  UNL     1      17.945  41.153   1.170  1.00  0.00     0.205 HD
ATOM     13  H4  UNL     1      16.561  41.448  -0.919  1.00  0.00     0.189 HD
BRANCH   8  14
HETATM   14  N2  UNL     1      19.648  43.247   1.648  1.00  0.00    -0.233 N
ATOM     15  H22 UNL     1      20.111  42.553   2.235  1.00  0.00     0.174 HD
ATOM     16  H21 UNL     1      20.000  44.150   1.967  1.00  0.00     0.174 HD
ENDBRANCH   8  14
ENDBRANCH   5   6
ENDBRANCH   3   5
TORSDOF 3
ENDMDL