MODEL 3
REMARK VINA RESULT: -5.692669923      1.775      4.900
REMARK  3 active torsions:
REMARK  status: ('A' for Active; 'I' for Inactive)
REMARK    1  A    between atoms: C2_2  and  N2_6
REMARK    2  A    between atoms: N3_8  and  N4_10
REMARK    3  A    between atoms: N4_10  and  C3_12
ROOT
HETATM    1  N4  UNL     1      17.401  42.816  -1.231  1.00  0.00    -0.317 N
ATOM      2  H4  UNL     1      17.693  41.864  -1.456  1.00  0.00     0.182 HD
ENDROOT
BRANCH   1   3
HETATM    3  N3  UNL     1      16.573  43.561  -2.076  1.00  0.00    -0.245 N
HETATM    4  N2  UNL     1      16.954  44.203  -3.072  1.00  0.00    -0.276 N
ATOM      5  H2  UNL     1      16.256  44.711  -3.615  1.00  0.00     0.189 HD
ATOM      6  H3  UNL     1      15.576  43.579  -1.859  1.00  0.00     0.208 HD
BRANCH   4   7
HETATM    7  C2  UNL     1      18.307  44.265  -3.490  1.00  0.00     0.086 C
HETATM    8  C1  UNL     1      18.795  43.364  -4.571  1.00  0.00     0.090 C
HETATM    9  N1  UNL     1      19.095  45.105  -2.924  1.00  0.00    -0.388 N
ATOM     10  H12 UNL     1      20.069  45.149  -3.225  1.00  0.00     0.157 HD
ATOM     11  H11 UNL     1      18.760  45.722  -2.184  1.00  0.00     0.157 HD
ENDBRANCH   4   7
ENDBRANCH   1   3
BRANCH   1  12
HETATM   12  C3  UNL     1      17.823  43.492   0.003  1.00  0.00     0.104 C
HETATM   13  C4  UNL     1      16.882  43.234   1.134  1.00  0.00     0.054 C
HETATM   14  C5  UNL     1      17.476  42.138   2.006  1.00  0.00     0.234 C
HETATM   15  N5  UNL     1      18.641  42.679   2.640  1.00  0.00    -0.075 N
HETATM   16  C6  UNL     1      19.591  43.257   1.739  1.00  0.00     0.234 C
ATOM     17  H52 UNL     1      18.374  43.355   3.357  1.00  0.00     0.277 HD
ATOM     18  H51 UNL     1      19.088  41.973   3.224  1.00  0.00     0.277 HD
HETATM   19  C7  UNL     1      19.218  42.965   0.307  1.00  0.00     0.054 C
ENDBRANCH   1  12
TORSDOF 3
ENDMDL