MODEL 3
REMARK VINA RESULT: -6.096065987      1.028      1.602
REMARK  4 active torsions:
REMARK  status: ('A' for Active; 'I' for Inactive)
REMARK    1  A    between atoms: O1_2  and  C2_3
REMARK    2  A    between atoms: C2_3  and  N2_7
REMARK    3  A    between atoms: N2_7  and  N3_9
REMARK    4  A    between atoms: N3_9  and  C3_10
ROOT
HETATM    1  N2  UNL     1      16.898  43.406  -0.295  1.00  0.00    -0.269 N
ATOM      2  H2  UNL     1      15.932  43.081  -0.269  1.00  0.00     0.186 HD
ENDROOT
BRANCH   1   3
HETATM    3  C2  UNL     1      17.878  42.889   0.617  1.00  0.00     0.228 C
HETATM    4  N1  UNL     1      18.762  42.027   0.271  1.00  0.00    -0.364 N
ATOM      5  H12 UNL     1      19.458  41.659   0.919  1.00  0.00     0.159 HD
ATOM      6  H11 UNL     1      18.759  41.698  -0.695  1.00  0.00     0.159 HD
BRANCH   3   7
HETATM    7  O1  UNL     1      17.881  43.337   1.933  1.00  0.00    -0.327 OA
HETATM    8  C1  UNL     1      19.017  43.934   2.482  1.00  0.00     0.213 C
ENDBRANCH   3   7
ENDBRANCH   1   3
BRANCH   1   9
HETATM    9  N3  UNL     1      17.304  44.352  -1.205  1.00  0.00    -0.133 NA
BRANCH   9  10
HETATM   10  C3  UNL     1      17.366  43.861  -2.572  1.00  0.00     0.099 C
HETATM   11  C4  UNL     1      18.750  44.027  -3.161  1.00  0.00     0.023 C
HETATM   12  C5  UNL     1      18.612  43.533  -4.608  1.00  0.00     0.002 C
HETATM   13  C6  UNL     1      18.549  42.044  -4.511  1.00  0.00     0.000 C
HETATM   14  C7  UNL     1      17.671  41.514  -3.444  1.00  0.00     0.002 C
HETATM   15  C8  UNL     1      16.814  42.489  -2.738  1.00  0.00     0.023 C
ENDBRANCH   9  10
ENDBRANCH   1   9
TORSDOF 4
ENDMDL