MODEL 1
REMARK VINA RESULT: -5.713245083      0.000      0.000
REMARK  3 active torsions:
REMARK  status: ('A' for Active; 'I' for Inactive)
REMARK    1  A    between atoms: C2_2  and  C3_3
REMARK    2  A    between atoms: C3_3  and  N1_4
REMARK    3  A    between atoms: N1_4  and  C4_7
ROOT
HETATM    1  C4  UNL     1      16.729  43.080  -2.099  1.00  0.00     0.232 C
HETATM    2  C5  UNL     1      17.624  41.872  -2.332  1.00  0.00     0.154 C
HETATM    3  N2  UNL     1      17.847  41.808  -3.723  1.00  0.00    -0.400 N
ATOM      4  H2  UNL     1      17.499  41.022  -4.272  1.00  0.00     0.158 HD
HETATM    5  C6  UNL     1      18.555  42.844  -4.333  1.00  0.00     0.065 C
HETATM    6  C7  UNL     1      18.090  44.182  -3.922  1.00  0.00     0.079 A
HETATM    7  C8  UNL     1      19.012  45.030  -3.098  1.00  0.00     0.180 A
HETATM    8  O1  UNL     1      18.064  45.037  -2.069  1.00  0.00    -0.382 OA
HETATM    9  C9  UNL     1      17.145  44.294  -2.808  1.00  0.00     0.164 A
ENDROOT
BRANCH   1  10
HETATM   10  N1  UNL     1      16.496  43.357  -0.718  1.00  0.00    -0.067 N
ATOM     11  H12 UNL     1      15.497  43.361  -0.516  1.00  0.00     0.277 HD
ATOM     12  H11 UNL     1      16.719  44.328  -0.504  1.00  0.00     0.277 HD
BRANCH  10  13
HETATM   13  C3  UNL     1      17.190  42.469   0.177  1.00  0.00     0.232 C
BRANCH  13  14
HETATM   14  C2  UNL     1      18.037  43.263   1.130  1.00  0.00     0.023 C
HETATM   15  C1  UNL     1      19.464  43.413   0.727  1.00  0.00     0.007 C
ENDBRANCH  13  14
ENDBRANCH  10  13
ENDBRANCH   1  10
TORSDOF 3
ENDMDL