MODEL 2
REMARK VINA RESULT: -4.955126769      1.367      2.480
REMARK  3 active torsions:
REMARK  status: ('A' for Active; 'I' for Inactive)
REMARK    1  A    between atoms: C2_2  and  N1_3
REMARK    2  A    between atoms: N1_3  and  C3_5
REMARK    3  A    between atoms: C5_7  and  N2_8
ROOT
HETATM    1  C3  UNL     1      17.904  43.966  -0.740  1.00  0.00     0.281 C
HETATM    2  C4  UNL     1      18.095  42.580  -1.242  1.00  0.00     0.087 C
HETATM    3  C5  UNL     1      17.807  42.430  -2.720  1.00  0.00     0.196 C
HETATM    4  C6  UNL     1      18.186  43.643  -3.529  1.00  0.00     0.004 C
HETATM    5  C7  UNL     1      17.028  44.587  -3.739  1.00  0.00     0.018 C
HETATM    6  C8  UNL     1      18.761  43.291  -4.887  1.00  0.00     0.018 C
HETATM    7  C9  UNL     1      19.229  44.421  -2.712  1.00  0.00     0.245 C
HETATM    8  N3  UNL     1      18.519  44.957  -1.594  1.00  0.00    -0.054 N
ATOM      9  H31 UNL     1      19.127  45.567  -1.048  1.00  0.00     0.279 HD
ATOM     10  H32 UNL     1      17.824  45.635  -1.907  1.00  0.00     0.279 HD
ENDROOT
BRANCH   1  11
HETATM   11  N1  UNL     1      18.464  44.104   0.563  1.00  0.00    -0.396 N
ATOM     12  H1  UNL     1      18.024  44.690   1.273  1.00  0.00     0.155 HD
BRANCH  11  13
HETATM   13  C2  UNL     1      19.664  43.387   0.830  1.00  0.00     0.111 C
HETATM   14  C1  UNL     1      19.512  42.774   2.234  1.00  0.00     0.026 C
ENDBRANCH  11  13
ENDBRANCH   1  11
BRANCH   3  15
HETATM   15  N2  UNL     1      16.394  42.076  -2.935  1.00  0.00    -0.074 N
ATOM     16  H23 UNL     1      15.763  42.756  -2.511  1.00  0.00     0.274 HD
ATOM     17  H22 UNL     1      16.116  42.199  -3.909  1.00  0.00     0.274 HD
ATOM     18  H21 UNL     1      16.210  41.129  -2.605  1.00  0.00     0.274 HD
ENDBRANCH   3  15
TORSDOF 3
ENDMDL