MODEL 4
REMARK VINA RESULT: -4.850987550      1.452      4.709
REMARK  2 active torsions:
REMARK  status: ('A' for Active; 'I' for Inactive)
REMARK    1  A    between atoms: C2_4  and  N2_6
REMARK       I    between atoms: C4_8  and  N4_10
REMARK    2  A    between atoms: N4_10  and  N5_12
ROOT
HETATM    1  N2  UNL     1      18.072  41.997   0.147  1.00  0.00    -0.320 N
ATOM      2  H2  UNL     1      18.331  41.025   0.320  1.00  0.00     0.169 HD
HETATM    3  C4  UNL     1      17.162  42.307  -0.743  1.00  0.00     0.208 C
HETATM    4  N3  UNL     1      16.581  41.216  -1.431  1.00  0.00    -0.062 NA
HETATM    5  N4  UNL     1      16.796  43.655  -0.992  1.00  0.00    -0.274 N
ATOM      6  H4  UNL     1      16.753  44.304  -0.206  1.00  0.00     0.189 HD
ENDROOT
BRANCH   1   7
HETATM    7  C2  UNL     1      18.681  43.048   0.858  1.00  0.00     0.074 C
HETATM    8  N1  UNL     1      18.448  43.188   2.107  1.00  0.00    -0.384 N
HETATM    9  C1  UNL     1      17.575  42.296   2.817  1.00  0.00     0.147 C
ATOM     10  H1  UNL     1      18.893  43.954   2.613  1.00  0.00     0.160 HD
HETATM   11  C3  UNL     1      19.586  43.993   0.181  1.00  0.00     0.089 C
ENDBRANCH   1   7
BRANCH   5  12
HETATM   12  N5  UNL     1      16.497  44.120  -2.251  1.00  0.00    -0.307 N
HETATM   13  C5  UNL     1      17.310  44.551  -3.124  1.00  0.00    -0.004 C
HETATM   14  C6  UNL     1      16.746  45.006  -4.425  1.00  0.00     0.064 C
HETATM   15  C7  UNL     1      18.778  44.646  -2.969  1.00  0.00     0.064 C
ATOM     16  H5  UNL     1      15.510  44.119  -2.512  1.00  0.00     0.186 HD
ENDBRANCH   5  12
TORSDOF 2
ENDMDL