MODEL 3
REMARK VINA RESULT: -8.738010108      1.594      1.762
REMARK  9 active torsions:
REMARK  status: ('A' for Active; 'I' for Inactive)
REMARK    1  A    between atoms: C3_3  and  C4_4
REMARK    2  A    between atoms: C5_5  and  N1_6
REMARK    3  A    between atoms: N1_6  and  N2_8
REMARK    4  A    between atoms: N2_8  and  N3_9
REMARK    5  A    between atoms: C6_12  and  C7_13
REMARK       I    between atoms: C7_13  and  N4_15
REMARK    6  A    between atoms: C8_17  and  C9_18
REMARK    7  A    between atoms: C9_18  and  C10_19
REMARK    8  A    between atoms: C10_19  and  C11_20
REMARK    9  A    between atoms: C11_20  and  N5_21
REMARK       I    between atoms: N5_21  and  C12_23
ROOT
HETATM    1  C1  UNL     1      24.993  18.858  14.917  1.00  0.00     0.012 C
HETATM    2  C2  UNL     1      26.070  19.388  14.867  1.00  0.00    -0.116 C
HETATM    3  C3  UNL     1      27.378  20.047  14.788  1.00  0.00     0.115 C
ENDROOT
BRANCH   3   4
HETATM    4  C4  UNL     1      27.412  20.998  13.632  1.00  0.00     0.153 C
HETATM    5  C5  UNL     1      28.791  21.544  13.361  1.00  0.00     0.173 C
HETATM    6  C6  UNL     1      28.965  21.812  11.928  1.00  0.00     0.047 C
HETATM    7  C13 UNL     1      28.217  21.080  11.116  1.00  0.00     0.124 C
HETATM    8  S1  UNL     1      27.254  20.018  12.115  1.00  0.00     0.173 S
HETATM    9  O3  UNL     1      27.877  18.674  12.292  1.00  0.00    -0.223 OA
HETATM   10  O4  UNL     1      25.837  19.972  11.684  1.00  0.00    -0.223 OA
BRANCH   5  11
HETATM   11  N1  UNL     1      29.819  20.682  13.903  1.00  0.00    -0.242 N
ATOM     12  H1  UNL     1      29.746  19.669  13.806  1.00  0.00     0.197 HD
BRANCH  11  13
HETATM   13  N2  UNL     1      30.773  21.177  14.477  1.00  0.00    -0.248 NA
BRANCH  13  14
HETATM   14  N3  UNL     1      31.519  21.962  15.044  1.00  0.00    -0.261 N
ATOM     15  H32 UNL     1      30.774  22.411  15.578  1.00  0.00     0.193 HD
ATOM     16  H31 UNL     1      32.345  22.475  15.353  1.00  0.00     0.193 HD
ENDBRANCH  13  14
ENDBRANCH  11  13
ENDBRANCH   5  11
BRANCH   6  17
HETATM   17  C7  UNL     1      29.917  22.841  11.417  1.00  0.00     0.254 C
HETATM   18  O1  UNL     1      30.074  23.865  12.095  1.00  0.00    -0.268 OA
HETATM   19  N4  UNL     1      30.630  22.688  10.209  1.00  0.00    -0.337 N
HETATM   20  C8  UNL     1      31.477  21.761   9.972  1.00  0.00     0.064 C
ATOM     21  H4  UNL     1      30.456  23.368   9.469  1.00  0.00     0.168 HD
BRANCH  20  22
HETATM   22  C9  UNL     1      32.160  21.706   8.669  1.00  0.00     0.046 C
BRANCH  22  23
HETATM   23  C10 UNL     1      31.213  21.945   7.511  1.00  0.00     0.025 C
BRANCH  23  24
HETATM   24  C11 UNL     1      31.864  21.473   6.257  1.00  0.00     0.124 C
BRANCH  24  25
HETATM   25  N5  UNL     1      33.141  22.067   5.964  1.00  0.00    -0.345 N
HETATM   26  C12 UNL     1      34.260  21.224   5.822  1.00  0.00     0.328 C
HETATM   27  N6  UNL     1      35.520  21.794   5.533  1.00  0.00    -0.040 NA
HETATM   28  O2  UNL     1      34.167  19.988   5.943  1.00  0.00    -0.251 OA
ATOM     29  H5  UNL     1      33.234  23.078   5.862  1.00  0.00     0.163 HD
ENDBRANCH  24  25
ENDBRANCH  23  24
ENDBRANCH  22  23
ENDBRANCH  20  22
ENDBRANCH   6  17
ENDBRANCH   3   4
TORSDOF 9
ENDMDL