MODEL 2
REMARK VINA RESULT: -9.493685205      3.124      6.851
REMARK  7 active torsions:
REMARK  status: ('A' for Active; 'I' for Inactive)
REMARK    1  A    between atoms: C5_5  and  S1_6
REMARK    2  A    between atoms: S1_6  and  N1_9
REMARK    3  A    between atoms: N1_9  and  C6_11
REMARK    4  A    between atoms: C6_11  and  C7_12
REMARK    5  A    between atoms: C7_12  and  N2_13
REMARK    6  A    between atoms: N2_13  and  S2_15
REMARK    7  A    between atoms: S2_15  and  C8_18
ROOT
HETATM    1  C6  UNL     1      30.849  23.339  13.608  1.00  0.00     0.152 C
ENDROOT
BRANCH   1   2
HETATM    2  N1  UNL     1      29.985  23.086  14.740  1.00  0.00    -0.314 N
ATOM      3  H1  UNL     1      29.344  23.777  15.130  1.00  0.00     0.172 HD
BRANCH   2   4
HETATM    4  S1  UNL     1      30.159  21.484  15.358  1.00  0.00     0.258 S
HETATM    5  O1  UNL     1      30.568  21.471  16.786  1.00  0.00    -0.201 OA
HETATM    6  O2  UNL     1      31.155  20.780  14.476  1.00  0.00    -0.201 OA
BRANCH   4   7
HETATM    7  C5  UNL     1      28.614  20.688  15.206  1.00  0.00     0.079 A
HETATM    8  C4  UNL     1      27.623  21.320  14.492  1.00  0.00     0.026 A
HETATM    9  C3  UNL     1      26.390  20.731  14.348  1.00  0.00     0.008 A
HETATM   10  C2  UNL     1      26.194  19.499  14.942  1.00  0.00    -0.062 A
HETATM   11  C1  UNL     1      24.866  18.850  14.794  1.00  0.00     0.048 C
HETATM   12  C14 UNL     1      27.195  18.872  15.659  1.00  0.00     0.008 A
HETATM   13  C13 UNL     1      28.439  19.467  15.803  1.00  0.00     0.026 A
ENDBRANCH   4   7
ENDBRANCH   2   4
ENDBRANCH   1   2
BRANCH   1  14
HETATM   14  C7  UNL     1      29.991  23.234  12.365  1.00  0.00     0.152 C
BRANCH  14  15
HETATM   15  N2  UNL     1      30.809  23.144  11.168  1.00  0.00    -0.314 N
ATOM     16  H2  UNL     1      31.616  23.741  10.986  1.00  0.00     0.172 HD
BRANCH  15  17
HETATM   17  S2  UNL     1      30.267  21.926  10.103  1.00  0.00     0.260 S
HETATM   18  O3  UNL     1      29.097  22.372   9.265  1.00  0.00    -0.200 OA
HETATM   19  O4  UNL     1      31.407  21.598   9.167  1.00  0.00    -0.200 OA
BRANCH  17  20
HETATM   20  C8  UNL     1      29.871  20.473  10.972  1.00  0.00     0.094 A
HETATM   21  C9  UNL     1      28.571  20.097  11.265  1.00  0.00     0.028 A
HETATM   22  C10 UNL     1      28.338  18.919  11.964  1.00  0.00     0.019 A
HETATM   23  C11 UNL     1      29.381  18.113  12.375  1.00  0.00     0.087 A
HETATM   24  N3  UNL     1      30.633  18.503  12.077  1.00  0.00    -0.374 N
HETATM   25  C12 UNL     1      30.897  19.645  11.396  1.00  0.00     0.112 A
ATOM     26  H3  UNL     1      31.413  17.917  12.374  1.00  0.00     0.164 HD
ENDBRANCH  17  20
ENDBRANCH  15  17
ENDBRANCH  14  15
ENDBRANCH   1  14
TORSDOF 7
ENDMDL