MODEL 2
REMARK VINA RESULT: -9.082798831      3.004      6.859
REMARK  10 active torsions:
REMARK  status: ('A' for Active; 'I' for Inactive)
REMARK    1  A    between atoms: O1_1  and  N1_3
REMARK    2  A    between atoms: C2_7  and  N3_8
REMARK    3  A    between atoms: N3_8  and  C3_10
REMARK    4  A    between atoms: C3_10  and  C4_11
REMARK    5  A    between atoms: C4_11  and  C5_12
REMARK    6  A    between atoms: C5_12  and  N4_13
REMARK    7  A    between atoms: C9_21  and  N7_22
REMARK    8  A    between atoms: N7_22  and  C10_24
REMARK    9  A    between atoms: C10_24  and  C11_25
REMARK   10  A    between atoms: C11_25  and  C12_26
ROOT
HETATM    1  N1  UNL     1      29.951  22.657  13.340  1.00  0.00    -0.047 N
HETATM    2  C1  UNL     1      28.930  22.963  14.158  1.00  0.00     0.249 A
HETATM    3  N2  UNL     1      27.785  22.229  14.140  1.00  0.00    -0.184 N
ATOM      4  H2  UNL     1      27.022  22.481  14.770  1.00  0.00     0.185 HD
HETATM    5  C2  UNL     1      27.632  21.183  13.318  1.00  0.00     0.693 A
HETATM    6  N6  UNL     1      28.668  20.867  12.486  1.00  0.00    -0.020 N
ATOM      7  H6  UNL     1      28.591  20.078  11.845  1.00  0.00     0.203 HD
HETATM    8  C9  UNL     1      29.776  21.599  12.520  1.00  0.00     0.720 A
ENDROOT
BRANCH   5   9
HETATM    9  N3  UNL     1      26.585  20.469  13.266  1.00  0.00    -0.225 N
ATOM     10  H3  UNL     1      25.748  20.881  12.852  1.00  0.00     0.177 HD
BRANCH   9  11
HETATM   11  C3  UNL     1      26.499  19.115  13.751  1.00  0.00     0.139 C
BRANCH  11  12
HETATM   12  C4  UNL     1      26.353  19.140  15.254  1.00  0.00     0.042 C
BRANCH  12  13
HETATM   13  C5  UNL     1      27.209  18.085  15.921  1.00  0.00     0.150 C
BRANCH  13  14
HETATM   14  N4  UNL     1      28.024  18.793  16.918  1.00  0.00    -0.304 N
HETATM   15  C6  UNL     1      28.840  19.821  16.633  1.00  0.00     0.111 A
HETATM   16  C7  UNL     1      29.419  20.200  17.847  1.00  0.00     0.037 A
HETATM   17  C8  UNL     1      28.925  19.375  18.828  1.00  0.00     0.108 A
HETATM   18  N5  UNL     1      28.077  18.529  18.224  1.00  0.00    -0.310 N
ATOM     19  H5  UNL     1      27.549  17.794  18.694  1.00  0.00     0.186 HD
ENDBRANCH  13  14
ENDBRANCH  12  13
ENDBRANCH  11  12
ENDBRANCH   9  11
ENDBRANCH   5   9
BRANCH   8  20
HETATM   20  N7  UNL     1      30.753  21.291  11.726  1.00  0.00    -0.223 N
ATOM     21  H7  UNL     1      31.709  21.346  12.076  1.00  0.00     0.177 HD
BRANCH  20  22
HETATM   22  C10 UNL     1      30.533  20.871  10.357  1.00  0.00     0.142 C
BRANCH  22  23
HETATM   23  C11 UNL     1      30.379  22.100   9.476  1.00  0.00     0.058 C
BRANCH  23  24
HETATM   24  C12 UNL     1      31.573  22.213   8.599  1.00  0.00    -0.057 A
HETATM   25  C13 UNL     1      32.734  22.817   9.010  1.00  0.00     0.007 A
HETATM   26  C14 UNL     1      33.847  22.918   8.180  1.00  0.00     0.001 A
HETATM   27  C15 UNL     1      33.779  22.390   6.898  1.00  0.00     0.000 A
HETATM   28  C16 UNL     1      32.636  21.780   6.460  1.00  0.00     0.001 A
HETATM   29  C17 UNL     1      31.545  21.693   7.305  1.00  0.00     0.007 A
ENDBRANCH  23  24
ENDBRANCH  22  23
ENDBRANCH  20  22
ENDBRANCH   8  20
BRANCH   1  30
HETATM   30  O1  UNL     1      31.130  23.379  13.330  1.00  0.00    -0.269 OA
ATOM     31  H1  UNL     1      31.960  22.990  13.085  1.00  0.00     0.246 HD
ENDBRANCH   1  30
TORSDOF 10
ENDMDL