MODEL 4
REMARK VINA RESULT: -8.678287016      3.152      5.909
REMARK  7 active torsions:
REMARK  status: ('A' for Active; 'I' for Inactive)
REMARK    1  A    between atoms: C2_2  and  C3_3
REMARK    2  A    between atoms: C3_3  and  C4_4
REMARK    3  A    between atoms: C4_4  and  C5_5
REMARK    4  A    between atoms: C5_5  and  C6_6
REMARK    5  A    between atoms: C6_6  and  S1_7
REMARK    6  A    between atoms: S1_7  and  N1_10
REMARK    7  A    between atoms: C14_20  and  C15_21
ROOT
HETATM    1  N1  UNL     1      30.109  21.814  14.864  1.00  0.00    -0.295 N
HETATM    2  C7  UNL     1      30.650  20.786  14.074  1.00  0.00     0.141 C
HETATM    3  C8  UNL     1      29.538  19.917  13.471  1.00  0.00     0.020 C
HETATM    4  C9  UNL     1      30.125  18.891  12.526  1.00  0.00     0.117 C
HETATM    5  C10 UNL     1      29.003  18.142  11.936  1.00  0.00     0.259 C
HETATM    6  O3  UNL     1      29.139  16.946  11.607  1.00  0.00    -0.265 OA
HETATM    7  O4  UNL     1      27.782  18.755  11.741  1.00  0.00    -0.321 OA
HETATM    8  C11 UNL     1      27.657  20.144  11.807  1.00  0.00     0.183 C
HETATM    9  C12 UNL     1      28.625  20.839  12.689  1.00  0.00     0.018 C
HETATM   10  C13 UNL     1      27.956  21.723  13.728  1.00  0.00     0.044 C
HETATM   11  C14 UNL     1      29.046  22.592  14.370  1.00  0.00     0.197 C
ENDROOT
BRANCH   1  12
HETATM   12  S1  UNL     1      31.102  22.505  16.052  1.00  0.00     0.229 S
HETATM   13  O1  UNL     1      30.752  23.945  16.296  1.00  0.00    -0.206 OA
HETATM   14  O2  UNL     1      32.515  22.517  15.480  1.00  0.00    -0.206 OA
BRANCH  12  15
HETATM   15  C6  UNL     1      31.087  21.662  17.583  1.00  0.00     0.163 C
BRANCH  15  16
HETATM   16  C5  UNL     1      30.349  20.379  17.484  1.00  0.00     0.017 C
BRANCH  16  17
HETATM   17  C4  UNL     1      29.322  20.106  18.522  1.00  0.00     0.005 C
BRANCH  17  18
HETATM   18  C3  UNL     1      28.310  19.051  18.099  1.00  0.00     0.026 C
BRANCH  18  19
HETATM   19  C2  UNL     1      28.142  19.174  16.631  1.00  0.00    -0.037 C
HETATM   20  C1  UNL     1      27.274  18.407  16.000  1.00  0.00     0.007 C
ENDBRANCH  18  19
ENDBRANCH  17  18
ENDBRANCH  16  17
ENDBRANCH  15  16
ENDBRANCH  12  15
ENDBRANCH   1  12
BRANCH  11  21
HETATM   21  C15 UNL     1      29.501  23.515  13.313  1.00  0.00     0.197 C
HETATM   22  O5  UNL     1      28.803  24.490  12.968  1.00  0.00    -0.646 OA
HETATM   23  O6  UNL     1      30.713  23.300  12.700  1.00  0.00    -0.646 OA
ENDBRANCH  11  21
TORSDOF 7
ENDMDL