MODEL 5
REMARK VINA RESULT: -9.088432779      1.554      2.069
REMARK  8 active torsions:
REMARK  status: ('A' for Active; 'I' for Inactive)
REMARK    1  A    between atoms: S1_2  and  C1_4
REMARK    2  A    between atoms: S1_2  and  N1_10
REMARK    3  A    between atoms: C8_12  and  O3_13
REMARK    4  A    between atoms: C8_12  and  C9_15
REMARK    5  A    between atoms: C9_15  and  N2_16
REMARK    6  A    between atoms: N2_16  and  C10_18
REMARK    7  A    between atoms: C10_18  and  C11_19
REMARK    8  A    between atoms: C11_19  and  C12_20
ROOT
HETATM    1  N1  UNL     1      29.073  22.243  12.013  1.00  0.00    -0.201 NA
HETATM    2  C7  UNL     1      30.195  22.846  11.322  1.00  0.00     0.148 C
HETATM    3  C8  UNL     1      29.956  21.784  10.233  1.00  0.00     0.099 C
HETATM    4  C17 UNL     1      29.423  20.991  11.403  1.00  0.00     0.148 C
ENDROOT
BRANCH   3   5
HETATM    5  O3  UNL     1      29.007  22.249   9.329  1.00  0.00    -0.386 OA
ATOM      6  H3  UNL     1      29.282  22.042   8.443  1.00  0.00     0.210 HD
ENDBRANCH   3   5
BRANCH   3   7
HETATM    7  C9  UNL     1      31.258  21.355   9.649  1.00  0.00     0.154 C
BRANCH   7   8
HETATM    8  N2  UNL     1      31.430  21.717   8.280  1.00  0.00    -0.418 N
ATOM      9  H2  UNL     1      30.691  21.573   7.592  1.00  0.00     0.153 HD
BRANCH   8  10
HETATM   10  C10 UNL     1      32.682  22.287   7.922  1.00  0.00     0.120 C
BRANCH  10  11
HETATM   11  C11 UNL     1      33.226  23.006   9.141  1.00  0.00     0.076 C
BRANCH  11  12
HETATM   12  C12 UNL     1      34.474  23.723   8.856  1.00  0.00     0.010 A
HETATM   13  C13 UNL     1      35.095  23.554   7.618  1.00  0.00     0.025 A
HETATM   14  C14 UNL     1      36.259  24.200   7.299  1.00  0.00     0.003 A
HETATM   15  C15 UNL     1      36.819  25.035   8.235  1.00  0.00     0.017 A
HETATM   16  C16 UNL     1      36.196  25.184   9.436  1.00  0.00     0.088 A
HETATM   17  N3  UNL     1      35.053  24.551   9.750  1.00  0.00    -0.369 N
ATOM     18  H3  UNL     1      34.624  24.696  10.664  1.00  0.00     0.165 HD
ENDBRANCH  11  12
ENDBRANCH  10  11
ENDBRANCH   8  10
ENDBRANCH   7   8
ENDBRANCH   3   7
BRANCH   1  19
HETATM   19  S1  UNL     1      29.072  22.347  13.709  1.00  0.00     0.243 S
HETATM   20  O1  UNL     1      30.438  22.025  14.244  1.00  0.00    -0.206 OA
HETATM   21  O2  UNL     1      28.625  23.724  14.184  1.00  0.00    -0.206 OA
BRANCH  19  22
HETATM   22  C1  UNL     1      27.980  21.120  14.311  1.00  0.00     0.074 A
HETATM   23  C2  UNL     1      26.647  21.067  13.990  1.00  0.00     0.025 A
HETATM   24  C3  UNL     1      25.868  20.063  14.510  1.00  0.00     0.002 A
HETATM   25  C4  UNL     1      26.382  19.086  15.359  1.00  0.00     0.000 A
HETATM   26  C5  UNL     1      27.716  19.163  15.663  1.00  0.00     0.002 A
HETATM   27  C6  UNL     1      28.494  20.157  15.151  1.00  0.00     0.025 A
ENDBRANCH  19  22
ENDBRANCH   1  19
TORSDOF 8
ENDMDL