MODEL 5
REMARK VINA RESULT: -8.285287588      2.330      7.697
REMARK  9 active torsions:
REMARK  status: ('A' for Active; 'I' for Inactive)
REMARK    1  A    between atoms: N1_4  and  C3_5
REMARK    2  A    between atoms: C3_5  and  C4_6
REMARK    3  A    between atoms: C11_13  and  C12_14
REMARK    4  A    between atoms: C12_14  and  C13_15
REMARK    5  A    between atoms: C13_15  and  O2_16
REMARK    6  A    between atoms: N2_18  and  C14_19
REMARK    7  A    between atoms: N3_22  and  C17_23
REMARK    8  A    between atoms: C17_23  and  C18_24
REMARK    9  A    between atoms: C18_24  and  O3_25
ROOT
HETATM    1  O1  UNL     1      31.314  18.781  11.734  1.00  0.00    -0.267 OA
HETATM    2  C1  UNL     1      30.367  19.518  11.422  1.00  0.00     0.259 C
HETATM    3  C2  UNL     1      28.998  19.124  11.844  1.00  0.00     0.160 C
HETATM    4  N1  UNL     1      27.973  20.045  11.560  1.00  0.00    -0.379 N
HETATM    5  C10 UNL     1      28.280  21.177  10.754  1.00  0.00     0.148 C
HETATM    6  C11 UNL     1      29.643  21.788  11.034  1.00  0.00     0.108 C
HETATM    7  N2  UNL     1      30.592  20.716  10.673  1.00  0.00    -0.335 N
ENDROOT
BRANCH   7   8
HETATM    8  C14 UNL     1      31.589  20.858   9.674  1.00  0.00     0.107 C
HETATM    9  C15 UNL     1      32.541  22.005   9.942  1.00  0.00     0.046 C
HETATM   10  C16 UNL     1      32.755  22.682   8.610  1.00  0.00     0.119 C
HETATM   11  N3  UNL     1      32.010  21.973   7.634  1.00  0.00    -0.408 N
HETATM   12  C19 UNL     1      31.172  21.011   8.262  1.00  0.00     0.142 C
BRANCH  11  13
HETATM   13  C17 UNL     1      32.674  21.598   6.445  1.00  0.00     0.143 C
BRANCH  13  14
HETATM   14  C18 UNL     1      34.000  20.941   6.578  1.00  0.00     0.183 C
BRANCH  14  15
HETATM   15  O3  UNL     1      34.067  19.614   6.248  1.00  0.00    -0.399 OA
ATOM     16  H3  UNL     1      33.707  18.998   6.876  1.00  0.00     0.209 HD
ENDBRANCH  14  15
ENDBRANCH  13  14
ENDBRANCH  11  13
ENDBRANCH   7   8
BRANCH   6  17
HETATM   17  C12 UNL     1      29.779  22.236  12.443  1.00  0.00     0.053 C
BRANCH  17  18
HETATM   18  C13 UNL     1      30.168  23.687  12.567  1.00  0.00     0.166 C
BRANCH  18  19
HETATM   19  O2  UNL     1      29.072  24.469  12.962  1.00  0.00    -0.401 OA
ATOM     20  H2  UNL     1      28.254  24.037  12.750  1.00  0.00     0.209 HD
ENDBRANCH  18  19
ENDBRANCH  17  18
ENDBRANCH   6  17
BRANCH   4  21
HETATM   21  C3  UNL     1      26.971  20.254  12.544  1.00  0.00     0.160 C
BRANCH  21  22
HETATM   22  C4  UNL     1      27.283  19.804  13.905  1.00  0.00    -0.040 A
HETATM   23  C5  UNL     1      26.757  18.558  14.282  1.00  0.00     0.009 A
HETATM   24  C6  UNL     1      26.999  18.049  15.537  1.00  0.00     0.001 A
HETATM   25  C7  UNL     1      27.771  18.811  16.394  1.00  0.00     0.000 A
HETATM   26  C8  UNL     1      28.286  20.025  16.035  1.00  0.00     0.001 A
HETATM   27  C9  UNL     1      28.044  20.536  14.774  1.00  0.00     0.009 A
ENDBRANCH  21  22
ENDBRANCH   4  21
TORSDOF 9
ENDMDL