MODEL 1
REMARK VINA RESULT: -9.264920014      0.000      0.000
REMARK  7 active torsions:
REMARK  status: ('A' for Active; 'I' for Inactive)
REMARK    1  A    between atoms: C1_2  and  N1_3
REMARK    2  A    between atoms: N1_3  and  S1_5
REMARK    3  A    between atoms: S1_5  and  C2_8
REMARK    4  A    between atoms: C5_11  and  S2_12
REMARK    5  A    between atoms: S2_12  and  N2_15
REMARK    6  A    between atoms: N2_15  and  C6_17
REMARK    7  A    between atoms: C6_17  and  C7_18
ROOT
HETATM    1  C2  UNL     1      27.589  19.814  15.142  1.00  0.00     0.080 A
HETATM    2  C3  UNL     1      28.802  20.032  15.756  1.00  0.00     0.027 A
HETATM    3  C4  UNL     1      29.474  21.243  15.564  1.00  0.00     0.027 A
HETATM    4  C5  UNL     1      28.955  22.238  14.769  1.00  0.00     0.079 A
HETATM    5  C12 UNL     1      27.744  21.997  14.167  1.00  0.00     0.027 A
HETATM    6  C13 UNL     1      27.068  20.813  14.344  1.00  0.00     0.027 A
ENDROOT
BRANCH   4   7
HETATM    7  S2  UNL     1      29.768  23.767  14.507  1.00  0.00     0.259 S
HETATM    8  O4  UNL     1      28.777  24.895  14.428  1.00  0.00    -0.201 OA
HETATM    9  O5  UNL     1      30.705  24.018  15.637  1.00  0.00    -0.201 OA
BRANCH   7  10
HETATM   10  N2  UNL     1      30.625  23.688  13.059  1.00  0.00    -0.311 N
ATOM     11  H2  UNL     1      31.630  23.855  13.011  1.00  0.00     0.172 HD
BRANCH  10  12
HETATM   12  C6  UNL     1      29.850  23.371  11.905  1.00  0.00     0.172 C
BRANCH  12  13
HETATM   13  C7  UNL     1      30.529  22.518  10.926  1.00  0.00    -0.025 A
HETATM   14  C8  UNL     1      31.383  22.972   9.952  1.00  0.00     0.011 A
HETATM   15  C9  UNL     1      31.975  22.092   9.075  1.00  0.00     0.018 A
HETATM   16  C10 UNL     1      31.712  20.730   9.166  1.00  0.00     0.087 A
HETATM   17  N3  UNL     1      30.875  20.290  10.121  1.00  0.00    -0.375 N
HETATM   18  C11 UNL     1      30.294  21.159  10.984  1.00  0.00     0.096 A
ATOM     19  H3  UNL     1      30.675  19.293  10.197  1.00  0.00     0.164 HD
ENDBRANCH  12  13
ENDBRANCH  10  12
ENDBRANCH   7  10
ENDBRANCH   4   7
BRANCH   1  20
HETATM   20  S1  UNL     1      26.713  18.299  15.361  1.00  0.00     0.264 S
HETATM   21  O2  UNL     1      27.096  17.720  16.713  1.00  0.00    -0.200 OA
HETATM   22  O3  UNL     1      25.233  18.552  15.354  1.00  0.00    -0.200 OA
BRANCH  20  23
HETATM   23  N1  UNL     1      27.174  17.145  14.177  1.00  0.00    -0.258 N
ATOM     24  H1  UNL     1      26.851  16.181  14.256  1.00  0.00     0.181 HD
BRANCH  23  25
HETATM   25  C1  UNL     1      27.999  17.523  13.094  1.00  0.00     0.363 C
HETATM   26  O1  UNL     1      29.142  17.030  12.997  1.00  0.00    -0.283 OA
ENDBRANCH  23  25
ENDBRANCH  20  23
ENDBRANCH   1  20
TORSDOF 7
ENDMDL