MODEL 5
REMARK VINA RESULT: -8.864392878      1.027      1.568
REMARK  8 active torsions:
REMARK  status: ('A' for Active; 'I' for Inactive)
REMARK    1  A    between atoms: C1_2  and  O1_3
REMARK    2  A    between atoms: N2_5  and  C2_7
REMARK    3  A    between atoms: C2_7  and  C3_8
REMARK    4  A    between atoms: C3_8  and  C4_9
REMARK    5  A    between atoms: C3_8  and  N4_16
REMARK    6  A    between atoms: N5_19  and  C11_20
REMARK    7  A    between atoms: C11_20  and  C12_21
REMARK    8  A    between atoms: C12_21  and  N6_22
ROOT
HETATM    1  C3  UNL     1      28.882  21.306  14.295  1.00  0.00     0.136 C
ENDROOT
BRANCH   1   2
HETATM    2  C2  UNL     1      30.010  21.086  15.295  1.00  0.00     0.152 C
BRANCH   2   3
HETATM    3  N2  UNL     1      31.154  21.889  14.918  1.00  0.00    -0.357 N
HETATM    4  C1  UNL     1      31.704  22.691  15.753  1.00  0.00     0.225 C
HETATM    5  N1  UNL     1      32.818  23.458  15.348  1.00  0.00    -0.057 NA
ATOM      6  H2  UNL     1      31.527  21.816  13.972  1.00  0.00     0.162 HD
BRANCH   4   7
HETATM    7  O1  UNL     1      31.191  22.783  17.032  1.00  0.00    -0.335 OA
ATOM      8  H1  UNL     1      31.734  23.046  17.766  1.00  0.00     0.220 HD
ENDBRANCH   4   7
ENDBRANCH   2   3
ENDBRANCH   1   2
BRANCH   1   9
HETATM    9  C4  UNL     1      27.741  20.427  14.632  1.00  0.00    -0.018 A
HETATM   10  C5  UNL     1      26.482  20.643  14.127  1.00  0.00     0.012 A
HETATM   11  C6  UNL     1      25.457  19.778  14.495  1.00  0.00     0.018 A
HETATM   12  C7  UNL     1      25.675  18.718  15.346  1.00  0.00     0.087 A
HETATM   13  N3  UNL     1      26.917  18.509  15.840  1.00  0.00    -0.375 N
HETATM   14  C8  UNL     1      27.918  19.329  15.499  1.00  0.00     0.096 A
ATOM     15  H3  UNL     1      27.090  17.727  16.471  1.00  0.00     0.164 HD
ENDBRANCH   1   9
BRANCH   1  16
HETATM   16  N4  UNL     1      29.283  21.357  12.966  1.00  0.00    -0.377 N
HETATM   17  C9  UNL     1      29.784  20.289  12.249  1.00  0.00     0.103 C
HETATM   18  C10 UNL     1      30.744  20.634  11.131  1.00  0.00     0.102 C
HETATM   19  N5  UNL     1      30.587  21.884  10.523  1.00  0.00    -0.382 N
HETATM   20  C17 UNL     1      30.399  22.934  11.460  1.00  0.00     0.142 C
HETATM   21  C18 UNL     1      29.204  22.626  12.312  1.00  0.00     0.143 C
BRANCH  19  22
HETATM   22  C11 UNL     1      29.858  21.958   9.295  1.00  0.00     0.167 C
BRANCH  22  23
HETATM   23  C12 UNL     1      30.731  22.327   8.120  1.00  0.00     0.082 C
BRANCH  23  24
HETATM   24  N6  UNL     1      31.993  21.781   8.058  1.00  0.00    -0.372 N
HETATM   25  C13 UNL     1      33.167  22.532   8.165  1.00  0.00     0.063 C
HETATM   26  C14 UNL     1      34.074  22.025   7.063  1.00  0.00     0.046 C
HETATM   27  C15 UNL     1      33.720  20.535   7.039  1.00  0.00     0.025 C
HETATM   28  C16 UNL     1      32.246  20.529   7.467  1.00  0.00     0.127 C
ENDBRANCH  23  24
ENDBRANCH  22  23
ENDBRANCH  19  22
ENDBRANCH   1  16
TORSDOF 8
ENDMDL