MODEL 4
REMARK VINA RESULT: -7.923238547      2.056      4.689
REMARK  9 active torsions:
REMARK  status: ('A' for Active; 'I' for Inactive)
REMARK    1  A    between atoms: C3_3  and  N1_4
REMARK    2  A    between atoms: N1_4  and  C4_6
REMARK    3  A    between atoms: C4_6  and  C5_7
REMARK    4  A    between atoms: C5_7  and  N2_8
REMARK    5  A    between atoms: C11_16  and  N4_17
REMARK    6  A    between atoms: N4_17  and  C12_18
REMARK    7  A    between atoms: C12_18  and  C13_19
REMARK    8  A    between atoms: C13_19  and  C14_20
REMARK    9  A    between atoms: C14_20  and  N5_21
ROOT
HETATM    1  C1  UNL     1      26.068  20.495  13.560  1.00  0.00     0.096 A
HETATM    2  C2  UNL     1      26.798  20.032  12.478  1.00  0.00     0.065 A
HETATM    3  C3  UNL     1      27.968  19.382  12.695  1.00  0.00     0.105 A
HETATM    4  N3  UNL     1      28.403  19.197  13.975  1.00  0.00    -0.302 N
ATOM      5  H3  UNL     1      29.283  18.707  14.134  1.00  0.00     0.171 HD
HETATM    6  C11 UNL     1      27.689  19.652  15.051  1.00  0.00     0.259 A
HETATM    7  N6  UNL     1      26.521  20.298  14.805  1.00  0.00    -0.326 N
ATOM      8  H6  UNL     1      25.971  20.643  15.592  1.00  0.00     0.169 HD
ENDROOT
BRANCH   3   9
HETATM    9  N1  UNL     1      28.668  18.942  11.727  1.00  0.00    -0.375 N
ATOM     10  H1  UNL     1      28.210  18.722  10.843  1.00  0.00     0.161 HD
BRANCH   9  11
HETATM   11  C4  UNL     1      30.082  18.747  11.848  1.00  0.00     0.140 C
BRANCH  11  12
HETATM   12  C5  UNL     1      30.721  20.103  11.580  1.00  0.00     0.136 C
BRANCH  12  13
HETATM   13  N2  UNL     1      30.365  20.639  10.317  1.00  0.00    -0.411 N
HETATM   14  C6  UNL     1      29.742  21.921  10.304  1.00  0.00     0.117 C
HETATM   15  C7  UNL     1      30.773  22.968  10.652  1.00  0.00     0.019 C
HETATM   16  C8  UNL     1      31.951  22.924   9.724  1.00  0.00     0.003 C
HETATM   17  C9  UNL     1      32.445  21.534   9.447  1.00  0.00     0.019 C
HETATM   18  C10 UNL     1      31.328  20.539   9.277  1.00  0.00     0.117 C
ENDBRANCH  12  13
ENDBRANCH  11  12
ENDBRANCH   9  11
ENDBRANCH   3   9
BRANCH   6  19
HETATM   19  N4  UNL     1      28.096  19.485  16.147  1.00  0.00    -0.388 NA
BRANCH  19  20
HETATM   20  C12 UNL     1      28.682  19.335  17.344  1.00  0.00     0.161 C
BRANCH  20  21
HETATM   21  C13 UNL     1      29.677  20.302  17.872  1.00  0.00     0.089 C
BRANCH  21  22
HETATM   22  C14 UNL     1      30.650  20.929  16.972  1.00  0.00     0.279 C
BRANCH  22  23
HETATM   23  N5  UNL     1      30.297  22.124  16.290  1.00  0.00     0.092 N
HETATM   24  C15 UNL     1      31.271  23.154  16.720  1.00  0.00     0.298 C
HETATM   25  C16 UNL     1      32.461  23.082  15.808  1.00  0.00     0.198 C
HETATM   26  O1  UNL     1      32.196  23.699  14.565  1.00  0.00    -0.388 OA
HETATM   27  C17 UNL     1      30.840  23.504  14.342  1.00  0.00     0.198 C
HETATM   28  C18 UNL     1      30.419  22.103  14.850  1.00  0.00     0.298 C
ENDBRANCH  22  23
ENDBRANCH  21  22
ENDBRANCH  20  21
ENDBRANCH  19  20
ENDBRANCH   6  19
TORSDOF 9
ENDMDL