MODEL 5
REMARK VINA RESULT: -10.064956206      1.410      1.800
REMARK  9 active torsions:
REMARK  status: ('A' for Active; 'I' for Inactive)
REMARK    1  A    between atoms: C1_2  and  N1_3
REMARK    2  A    between atoms: N1_3  and  O2_4
REMARK    3  A    between atoms: N1_3  and  C2_6
REMARK    4  A    between atoms: C2_6  and  C3_7
REMARK    5  A    between atoms: C3_7  and  C4_8
REMARK    6  A    between atoms: C7_11  and  N2_12
REMARK    7  A    between atoms: N2_12  and  C8_14
REMARK    8  A    between atoms: C8_14  and  C9_15
REMARK    9  A    between atoms: C9_15  and  N3_16
ROOT
HETATM    1  N2  UNL     1      30.879  21.246  11.059  1.00  0.00    -0.375 N
ATOM      2  H2  UNL     1      31.598  21.748  11.580  1.00  0.00     0.161 HD
ENDROOT
BRANCH   1   3
HETATM    3  C7  UNL     1      29.750  21.103  11.645  1.00  0.00     0.100 A
HETATM    4  C6  UNL     1      28.562  20.837  11.002  1.00  0.00     0.049 A
HETATM    5  C5  UNL     1      27.383  20.696  11.697  1.00  0.00     0.012 A
HETATM    6  C4  UNL     1      27.434  20.833  13.060  1.00  0.00    -0.041 A
HETATM    7  C18 UNL     1      28.626  21.100  13.701  1.00  0.00     0.096 A
HETATM    8  N4  UNL     1      29.747  21.228  12.983  1.00  0.00    -0.352 N
ATOM      9  H4  UNL     1      30.623  21.427  13.464  1.00  0.00     0.166 HD
BRANCH   6  10
HETATM   10  C3  UNL     1      26.219  20.700  13.901  1.00  0.00     0.062 C
BRANCH  10  11
HETATM   11  C2  UNL     1      26.431  19.732  15.044  1.00  0.00     0.163 C
BRANCH  11  12
HETATM   12  N1  UNL     1      26.244  18.391  14.528  1.00  0.00    -0.236 N
BRANCH  12  13
HETATM   13  C1  UNL     1      27.319  17.461  14.578  1.00  0.00     0.376 C
HETATM   14  O1  UNL     1      28.168  17.427  13.661  1.00  0.00    -0.281 OA
ENDBRANCH  12  13
BRANCH  12  15
HETATM   15  O2  UNL     1      25.044  18.054  14.011  1.00  0.00    -0.285 OA
ATOM     16  H2  UNL     1      24.377  17.629  14.538  1.00  0.00     0.245 HD
ENDBRANCH  12  15
ENDBRANCH  11  12
ENDBRANCH  10  11
ENDBRANCH   6  10
ENDBRANCH   1   3
BRANCH   1  17
HETATM   17  C8  UNL     1      31.247  20.785   9.762  1.00  0.00     0.141 C
BRANCH  17  18
HETATM   18  C9  UNL     1      31.231  21.946   8.785  1.00  0.00     0.155 C
BRANCH  18  19
HETATM   19  N3  UNL     1      32.492  22.643   8.726  1.00  0.00    -0.278 N
HETATM   20  C10 UNL     1      33.056  23.459   9.747  1.00  0.00     0.261 A
HETATM   21  O3  UNL     1      32.597  23.743  10.880  1.00  0.00    -0.267 OA
HETATM   22  C11 UNL     1      34.350  23.982   9.288  1.00  0.00     0.048 A
HETATM   23  C12 UNL     1      35.297  24.802   9.858  1.00  0.00     0.018 A
HETATM   24  C16 UNL     1      34.582  23.503   8.019  1.00  0.00     0.048 A
HETATM   25  C13 UNL     1      36.450  25.137   9.178  1.00  0.00     0.001 A
HETATM   26  C14 UNL     1      36.685  24.658   7.905  1.00  0.00     0.001 A
HETATM   27  C15 UNL     1      35.731  23.842   7.350  1.00  0.00     0.018 A
HETATM   28  C17 UNL     1      33.447  22.674   7.652  1.00  0.00     0.261 A
HETATM   29  O4  UNL     1      33.279  22.060   6.581  1.00  0.00    -0.267 OA
ENDBRANCH  18  19
ENDBRANCH  17  18
ENDBRANCH   1  17
TORSDOF 9
ENDMDL