MODEL 1
REMARK VINA RESULT: -9.566624023      0.000      0.000
REMARK  8 active torsions:
REMARK  status: ('A' for Active; 'I' for Inactive)
REMARK    1  A    between atoms: N1_1  and  S1_4
REMARK    2  A    between atoms: S1_4  and  C1_7
REMARK       I    between atoms: N4_13  and  C3_15
REMARK    3  A    between atoms: C3_15  and  C4_17
REMARK    4  A    between atoms: C4_17  and  C5_18
REMARK    5  A    between atoms: C5_18  and  C6_19
REMARK    6  A    between atoms: C6_19  and  C7_20
REMARK    7  A    between atoms: C7_20  and  C8_21
REMARK    8  A    between atoms: C8_21  and  N5_22
ROOT
HETATM    1  C1  UNL     1      30.399  21.549  16.848  1.00  0.00     0.208 A
HETATM    2  N2  UNL     1      30.278  20.853  17.968  1.00  0.00    -0.281 N
ATOM      3  H2  UNL     1      30.839  21.099  18.784  1.00  0.00     0.188 HD
HETATM    4  N3  UNL     1      29.466  19.880  18.028  1.00  0.00    -0.278 N
ATOM      5  H3  UNL     1      29.367  19.339  18.887  1.00  0.00     0.189 HD
HETATM    6  C2  UNL     1      28.742  19.577  16.946  1.00  0.00     0.168 A
HETATM    7  N4  UNL     1      27.858  18.611  16.827  1.00  0.00    -0.306 N
ATOM      8  H4  UNL     1      27.647  17.981  17.602  1.00  0.00     0.171 HD
HETATM    9  C3  UNL     1      27.211  18.484  15.568  1.00  0.00     0.223 C
HETATM   10  O3  UNL     1      27.464  17.494  14.842  1.00  0.00    -0.273 OA
HETATM   11  S2  UNL     1      29.281  20.757  15.829  1.00  0.00    -0.020 SA
ENDROOT
BRANCH   9  12
HETATM   12  C4  UNL     1      26.242  19.492  15.087  1.00  0.00     0.103 C
BRANCH  12  13
HETATM   13  C5  UNL     1      26.022  19.310  13.602  1.00  0.00     0.009 C
BRANCH  13  14
HETATM   14  C6  UNL     1      26.418  20.580  12.926  1.00  0.00     0.002 C
BRANCH  14  15
HETATM   15  C7  UNL     1      26.863  20.404  11.492  1.00  0.00     0.020 C
BRANCH  15  16
HETATM   16  C8  UNL     1      27.525  21.671  11.001  1.00  0.00     0.128 C
BRANCH  16  17
HETATM   17  N5  UNL     1      28.884  21.410  10.544  1.00  0.00    -0.366 N
HETATM   18  C9  UNL     1      29.576  20.401  11.077  1.00  0.00     0.090 A
HETATM   19  C10 UNL     1      30.866  20.096  10.694  1.00  0.00     0.017 A
HETATM   20  C11 UNL     1      31.498  20.841   9.722  1.00  0.00     0.003 A
HETATM   21  C12 UNL     1      30.790  21.886   9.166  1.00  0.00     0.017 A
HETATM   22  C13 UNL     1      29.487  22.150   9.594  1.00  0.00     0.090 A
ENDBRANCH  16  17
ENDBRANCH  15  16
ENDBRANCH  14  15
ENDBRANCH  13  14
ENDBRANCH  12  13
ENDBRANCH   9  12
BRANCH   1  23
HETATM   23  S1  UNL     1      31.450  22.935  16.516  1.00  0.00     0.280 S
HETATM   24  O1  UNL     1      32.347  22.538  15.391  1.00  0.00    -0.199 OA
HETATM   25  O2  UNL     1      30.548  24.052  16.085  1.00  0.00    -0.199 OA
BRANCH  23  26
HETATM   26  N1  UNL     1      32.345  23.383  17.897  1.00  0.00    -0.323 N
ATOM     27  H12 UNL     1      33.319  23.118  18.047  1.00  0.00     0.169 HD
ATOM     28  H11 UNL     1      31.783  23.942  18.539  1.00  0.00     0.169 HD
ENDBRANCH  23  26
ENDBRANCH   1  23
TORSDOF 8
ENDMDL