MODEL 2
REMARK VINA RESULT: -8.949279441      0.823      1.074
REMARK  9 active torsions:
REMARK  status: ('A' for Active; 'I' for Inactive)
REMARK    1  A    between atoms: O1_1  and  C1_3
REMARK    2  A    between atoms: C1_3  and  C2_4
REMARK    3  A    between atoms: C2_4  and  C3_5
REMARK    4  A    between atoms: C4_6  and  O2_7
REMARK    5  A    between atoms: N1_10  and  C6_11
REMARK    6  A    between atoms: C6_11  and  C7_12
REMARK    7  A    between atoms: C7_12  and  C8_13
REMARK    8  A    between atoms: C15_20  and  C16_21
REMARK    9  A    between atoms: C16_21  and  N2_22
ROOT
HETATM    1  C3  UNL     1      28.905  23.178  12.540  1.00  0.00     0.026 C
HETATM    2  C4  UNL     1      30.316  23.620  12.236  1.00  0.00     0.151 C
HETATM    3  C5  UNL     1      30.896  22.748  11.147  1.00  0.00     0.304 C
HETATM    4  N1  UNL     1      29.910  22.427  10.179  1.00  0.00     0.091 N
HETATM    5  C14 UNL     1      28.863  21.564  10.740  1.00  0.00     0.279 C
HETATM    6  C15 UNL     1      28.784  21.676  12.219  1.00  0.00     0.049 C
ENDROOT
BRANCH   4   7
HETATM    7  C6  UNL     1      30.388  21.930   8.930  1.00  0.00     0.277 C
BRANCH   7   8
HETATM    8  C7  UNL     1      31.664  21.146   9.145  1.00  0.00     0.068 C
BRANCH   8   9
HETATM    9  C8  UNL     1      32.667  21.485   8.081  1.00  0.00    -0.057 A
HETATM   10  C9  UNL     1      32.907  20.629   7.043  1.00  0.00     0.007 A
HETATM   11  C10 UNL     1      33.837  21.009   6.093  1.00  0.00     0.001 A
HETATM   12  C11 UNL     1      34.502  22.209   6.185  1.00  0.00     0.000 A
HETATM   13  C12 UNL     1      34.241  23.059   7.246  1.00  0.00     0.001 A
HETATM   14  C13 UNL     1      33.326  22.688   8.184  1.00  0.00     0.007 A
ENDBRANCH   8   9
ENDBRANCH   7   8
ENDBRANCH   4   7
BRANCH   2  15
HETATM   15  O2  UNL     1      31.172  23.582  13.315  1.00  0.00    -0.393 OA
ATOM     16  H2  UNL     1      31.236  24.399  13.796  1.00  0.00     0.210 HD
ENDBRANCH   2  15
BRANCH   6  17
HETATM   17  C16 UNL     1      27.541  21.135  12.811  1.00  0.00     0.279 C
BRANCH  17  18
HETATM   18  N2  UNL     1      27.631  20.037  13.723  1.00  0.00     0.093 N
HETATM   19  C17 UNL     1      26.524  20.230  14.696  1.00  0.00     0.298 C
HETATM   20  C18 UNL     1      25.267  19.691  14.095  1.00  0.00     0.198 C
HETATM   21  O3  UNL     1      25.295  18.297  14.297  1.00  0.00    -0.388 OA
HETATM   22  C19 UNL     1      26.589  17.846  14.137  1.00  0.00     0.198 C
HETATM   23  C20 UNL     1      27.389  18.730  13.155  1.00  0.00     0.298 C
ENDBRANCH  17  18
ENDBRANCH   6  17
BRANCH   1  24
HETATM   24  C2  UNL     1      28.502  23.396  13.948  1.00  0.00     0.034 C
BRANCH  24  25
HETATM   25  C1  UNL     1      28.308  24.860  14.300  1.00  0.00     0.164 C
BRANCH  25  26
HETATM   26  O1  UNL     1      29.305  25.160  15.260  1.00  0.00    -0.401 OA
ATOM     27  H1  UNL     1      28.869  25.128  16.104  1.00  0.00     0.209 HD
ENDBRANCH  25  26
ENDBRANCH  24  25
ENDBRANCH   1  24
TORSDOF 9
ENDMDL