MODEL 2
REMARK VINA RESULT: -10.219249028      2.661      8.194
REMARK  7 active torsions:
REMARK  status: ('A' for Active; 'I' for Inactive)
REMARK    1  A    between atoms: C1_2  and  C2_3
REMARK       I    between atoms: C1_2  and  N1_14
REMARK    2  A    between atoms: C2_3  and  C3_4
REMARK    3  A    between atoms: C3_4  and  S1_5
REMARK    4  A    between atoms: S1_5  and  C4_8
REMARK    5  A    between atoms: N1_14  and  N2_16
REMARK    6  A    between atoms: N2_16  and  S2_18
REMARK    7  A    between atoms: S2_18  and  C10_21
ROOT
HETATM    1  O1  UNL     1      32.928  23.945  14.078  1.00  0.00    -0.272 OA
HETATM    2  C1  UNL     1      31.803  23.557  14.459  1.00  0.00     0.237 C
HETATM    3  N1  UNL     1      30.808  23.405  13.421  1.00  0.00    -0.260 N
ATOM      4  H1  UNL     1      29.863  23.101  13.658  1.00  0.00     0.190 HD
ENDROOT
BRANCH   2   5
HETATM    5  C2  UNL     1      31.480  23.264  15.861  1.00  0.00     0.120 C
BRANCH   5   6
HETATM    6  C3  UNL     1      30.118  22.698  16.015  1.00  0.00     0.155 C
BRANCH   6   7
HETATM    7  S1  UNL     1      29.991  20.947  15.860  1.00  0.00     0.176 S
HETATM    8  O2  UNL     1      30.227  20.176  17.103  1.00  0.00    -0.223 OA
HETATM    9  O3  UNL     1      31.001  20.495  14.801  1.00  0.00    -0.223 OA
BRANCH   7  10
HETATM   10  C4  UNL     1      28.388  20.592  15.267  1.00  0.00     0.059 A
HETATM   11  C5  UNL     1      27.736  19.452  15.660  1.00  0.00     0.023 A
HETATM   12  C6  UNL     1      26.433  19.175  15.211  1.00  0.00     0.002 A
HETATM   13  C7  UNL     1      25.835  20.081  14.367  1.00  0.00     0.000 A
HETATM   14  C8  UNL     1      26.465  21.224  13.965  1.00  0.00     0.002 A
HETATM   15  C9  UNL     1      27.765  21.474  14.428  1.00  0.00     0.023 A
ENDBRANCH   7  10
ENDBRANCH   6   7
ENDBRANCH   5   6
ENDBRANCH   2   5
BRANCH   3  16
HETATM   16  N2  UNL     1      31.142  23.675  12.103  1.00  0.00    -0.220 N
ATOM     17  H2  UNL     1      31.722  24.460  11.804  1.00  0.00     0.200 HD
BRANCH  16  18
HETATM   18  S2  UNL     1      30.457  22.526  11.049  1.00  0.00     0.276 S
HETATM   19  O4  UNL     1      30.430  21.170  11.747  1.00  0.00    -0.199 OA
HETATM   20  O5  UNL     1      29.038  22.825  10.688  1.00  0.00    -0.199 OA
BRANCH  18  21
HETATM   21  C10 UNL     1      31.413  22.345   9.588  1.00  0.00     0.081 A
HETATM   22  C11 UNL     1      32.724  22.834   9.548  1.00  0.00     0.025 A
HETATM   23  C12 UNL     1      33.511  22.720   8.419  1.00  0.00     0.002 A
HETATM   24  C13 UNL     1      33.024  22.116   7.280  1.00  0.00     0.000 A
HETATM   25  C14 UNL     1      31.739  21.631   7.306  1.00  0.00     0.002 A
HETATM   26  C15 UNL     1      30.940  21.744   8.448  1.00  0.00     0.025 A
ENDBRANCH  18  21
ENDBRANCH  16  18
ENDBRANCH   3  16
TORSDOF 7
ENDMDL