MODEL 1
REMARK VINA RESULT: -8.574905613      0.000      0.000
REMARK  9 active torsions:
REMARK  status: ('A' for Active; 'I' for Inactive)
REMARK    1  A    between atoms: N1_3  and  C2_4
REMARK    2  A    between atoms: C2_4  and  C3_5
REMARK    3  A    between atoms: C3_5  and  N2_6
REMARK    4  A    between atoms: C8_12  and  C9_13
REMARK    5  A    between atoms: C9_13  and  C10_14
REMARK    6  A    between atoms: C10_14  and  C11_15
REMARK    7  A    between atoms: C11_15  and  O3_16
REMARK    8  A    between atoms: C13_19  and  O4_20
REMARK    9  A    between atoms: C13_19  and  C14_22
ROOT
HETATM    1  O1  UNL     1      26.785  22.422  13.911  1.00  0.00    -0.270 OA
HETATM    2  C1  UNL     1      27.829  22.360  13.232  1.00  0.00     0.259 C
HETATM    3  N1  UNL     1      28.227  21.269  12.364  1.00  0.00    -0.343 N
HETATM    4  C8  UNL     1      28.902  21.877  11.284  1.00  0.00     0.091 C
HETATM    5  C12 UNL     1      29.522  23.167  11.853  1.00  0.00     0.078 C
HETATM    6  C13 UNL     1      28.888  23.409  13.173  1.00  0.00     0.167 C
ENDROOT
BRANCH   3   7
HETATM    7  C2  UNL     1      27.915  19.916  12.672  1.00  0.00     0.156 C
BRANCH   7   8
HETATM    8  C3  UNL     1      28.684  19.343  13.845  1.00  0.00     0.292 C
BRANCH   8   9
HETATM    9  N2  UNL     1      27.789  19.235  14.977  1.00  0.00     0.094 N
HETATM   10  C4  UNL     1      27.333  17.915  15.258  1.00  0.00     0.298 C
HETATM   11  C5  UNL     1      26.655  17.766  16.577  1.00  0.00     0.198 C
HETATM   12  O2  UNL     1      27.289  18.333  17.648  1.00  0.00    -0.388 OA
HETATM   13  C6  UNL     1      28.421  19.043  17.351  1.00  0.00     0.198 C
HETATM   14  C7  UNL     1      28.261  19.928  16.133  1.00  0.00     0.298 C
ENDBRANCH   8   9
ENDBRANCH   7   8
ENDBRANCH   3   7
BRANCH   4  15
HETATM   15  C9  UNL     1      29.967  21.174  10.565  1.00  0.00     0.027 C
BRANCH  15  16
HETATM   16  C10 UNL     1      30.788  21.851   9.562  1.00  0.00     0.028 C
BRANCH  16  17
HETATM   17  C11 UNL     1      32.183  21.316   9.391  1.00  0.00     0.164 C
BRANCH  17  18
HETATM   18  O3  UNL     1      33.141  22.219   9.889  1.00  0.00    -0.401 OA
ATOM     19  H3  UNL     1      33.603  22.656   9.183  1.00  0.00     0.209 HD
ENDBRANCH  17  18
ENDBRANCH  16  17
ENDBRANCH  15  16
ENDBRANCH   4  15
BRANCH   6  20
HETATM   20  O4  UNL     1      28.256  24.669  13.199  1.00  0.00    -0.375 OA
ATOM     21  H4  UNL     1      28.517  25.144  12.419  1.00  0.00     0.211 HD
ENDBRANCH   6  20
BRANCH   6  22
HETATM   22  C14 UNL     1      29.769  23.317  14.348  1.00  0.00    -0.015 A
HETATM   23  C15 UNL     1      29.830  24.338  15.273  1.00  0.00     0.011 A
HETATM   24  C16 UNL     1      30.652  24.296  16.390  1.00  0.00     0.001 A
HETATM   25  C17 UNL     1      31.444  23.216  16.610  1.00  0.00     0.000 A
HETATM   26  C18 UNL     1      31.407  22.182  15.708  1.00  0.00     0.001 A
HETATM   27  C19 UNL     1      30.573  22.230  14.580  1.00  0.00     0.011 A
ENDBRANCH   6  22
TORSDOF 9
ENDMDL