MODEL 3
REMARK VINA RESULT: -8.652384627      1.570      2.336
REMARK  7 active torsions:
REMARK  status: ('A' for Active; 'I' for Inactive)
REMARK    1  A    between atoms: N1_5  and  C4_6
REMARK    2  A    between atoms: C4_6  and  C5_7
REMARK    3  A    between atoms: C5_7  and  C6_8
REMARK    4  A    between atoms: C6_8  and  C7_9
REMARK    5  A    between atoms: C7_9  and  N2_10
REMARK    6  A    between atoms: N3_14  and  C11_15
REMARK    7  A    between atoms: C11_15  and  C12_16
ROOT
HETATM    1  N2  UNL     1      28.697  22.493  10.663  1.00  0.00     0.090 N
HETATM    2  C8  UNL     1      27.490  21.723  10.664  1.00  0.00     0.274 C
HETATM    3  C9  UNL     1      27.638  20.354  11.250  1.00  0.00     0.050 C
HETATM    4  C10 UNL     1      28.328  20.344  12.588  1.00  0.00     0.119 C
HETATM    5  N3  UNL     1      27.939  21.408  13.444  1.00  0.00    -0.405 N
HETATM    6  C15 UNL     1      28.248  22.724  13.029  1.00  0.00     0.147 C
HETATM    7  C16 UNL     1      29.233  22.842  11.927  1.00  0.00     0.291 C
ENDROOT
BRANCH   1   8
HETATM    8  C7  UNL     1      29.686  22.000   9.729  1.00  0.00     0.272 C
BRANCH   8   9
HETATM    9  C6  UNL     1      31.073  22.446  10.055  1.00  0.00     0.032 C
BRANCH   9  10
HETATM   10  C5  UNL     1      32.133  21.571   9.424  1.00  0.00     0.032 C
BRANCH  10  11
HETATM   11  C4  UNL     1      33.213  22.535   8.937  1.00  0.00     0.272 C
BRANCH  11  12
HETATM   12  N1  UNL     1      33.727  22.170   7.654  1.00  0.00     0.090 N
HETATM   13  C3  UNL     1      34.140  23.307   6.868  1.00  0.00     0.281 C
HETATM   14  C2  UNL     1      34.617  22.941   5.499  1.00  0.00     0.133 C
HETATM   15  C1  UNL     1      35.233  21.589   5.451  1.00  0.00     0.219 C
HETATM   16  O1  UNL     1      36.458  21.506   5.174  1.00  0.00    -0.274 OA
HETATM   17  N6  UNL     1      34.610  20.334   5.682  1.00  0.00    -0.359 N
HETATM   18  C18 UNL     1      33.444  20.038   6.470  1.00  0.00     0.152 C
ATOM     19  H6  UNL     1      35.050  19.533   5.228  1.00  0.00     0.162 HD
HETATM   20  C17 UNL     1      32.787  21.320   6.961  1.00  0.00     0.292 C
ENDBRANCH  11  12
ENDBRANCH  10  11
ENDBRANCH   9  10
ENDBRANCH   8   9
ENDBRANCH   1   8
BRANCH   5  21
HETATM   21  C11 UNL     1      26.734  21.214  14.167  1.00  0.00     0.175 C
BRANCH  21  22
HETATM   22  C12 UNL     1      26.657  19.902  14.871  1.00  0.00     0.043 A
HETATM   23  C13 UNL     1      25.586  19.049  14.740  1.00  0.00     0.115 A
HETATM   24  N4  UNL     1      25.822  17.966  15.502  1.00  0.00    -0.360 N
HETATM   25  C14 UNL     1      27.017  18.152  16.090  1.00  0.00     0.180 A
ATOM     26  H4  UNL     1      25.210  17.157  15.613  1.00  0.00     0.166 HD
HETATM   27  N5  UNL     1      27.516  19.332  15.699  1.00  0.00    -0.353 N
ATOM     28  H5  UNL     1      28.411  19.725  15.992  1.00  0.00     0.166 HD
ENDBRANCH  21  22
ENDBRANCH   5  21
TORSDOF 7
ENDMDL