MODEL 4
REMARK VINA RESULT: -9.411127935      1.931      2.582
REMARK  8 active torsions:
REMARK  status: ('A' for Active; 'I' for Inactive)
REMARK    1  A    between atoms: C3_3  and  C4_4
REMARK    2  A    between atoms: C4_4  and  C5_5
REMARK    3  A    between atoms: C5_5  and  C6_6
REMARK    4  A    between atoms: C6_6  and  C7_7
REMARK    5  A    between atoms: C11_13  and  N2_14
REMARK    6  A    between atoms: N2_14  and  C12_16
REMARK    7  A    between atoms: C12_16  and  C13_17
REMARK    8  A    between atoms: C13_17  and  S1_18
ROOT
HETATM    1  C1  UNL     1      34.658  26.767  10.168  1.00  0.00     0.012 C
HETATM    2  C2  UNL     1      35.187  25.875   9.548  1.00  0.00    -0.117 C
HETATM    3  C3  UNL     1      35.825  24.791   8.772  1.00  0.00     0.093 C
ENDROOT
BRANCH   3   4
HETATM    4  C4  UNL     1      34.750  23.932   8.093  1.00  0.00     0.012 C
BRANCH   4   5
HETATM    5  C5  UNL     1      33.855  23.371   9.147  1.00  0.00     0.007 C
BRANCH   5   6
HETATM    6  C6  UNL     1      32.963  22.261   8.745  1.00  0.00     0.057 C
BRANCH   6   7
HETATM    7  C7  UNL     1      31.846  21.990   9.671  1.00  0.00     0.011 A
HETATM    8  C8  UNL     1      31.362  20.690   9.781  1.00  0.00     0.027 A
HETATM    9  C9  UNL     1      30.344  20.323  10.612  1.00  0.00     0.035 A
HETATM   10  C10 UNL     1      29.757  21.311  11.395  1.00  0.00     0.078 A
HETATM   11  N1  UNL     1      28.747  21.011  12.233  1.00  0.00    -0.335 N
HETATM   12  C16 UNL     1      30.223  22.591  11.296  1.00  0.00     0.135 A
HETATM   13  C11 UNL     1      28.157  21.938  13.004  1.00  0.00     0.171 A
ATOM     14  H1  UNL     1      28.420  20.046  12.285  1.00  0.00     0.168 HD
HETATM   15  C15 UNL     1      28.638  23.231  12.895  1.00  0.00     0.290 A
HETATM   16  O3  UNL     1      28.110  24.140  13.604  1.00  0.00    -0.264 OA
HETATM   17  N3  UNL     1      29.644  23.557  12.065  1.00  0.00    -0.304 N
ATOM     18  H3  UNL     1      29.973  24.521  12.011  1.00  0.00     0.171 HD
HETATM   19  N4  UNL     1      31.234  22.888  10.454  1.00  0.00    -0.344 N
ATOM     20  H4  UNL     1      31.553  23.856  10.411  1.00  0.00     0.167 HD
BRANCH  13  21
HETATM   21  N2  UNL     1      27.184  21.644  13.812  1.00  0.00    -0.371 N
ATOM     22  H2  UNL     1      27.162  22.119  14.714  1.00  0.00     0.161 HD
BRANCH  21  23
HETATM   23  C12 UNL     1      26.141  20.706  13.535  1.00  0.00     0.136 C
BRANCH  23  24
HETATM   24  C13 UNL     1      25.763  19.876  14.744  1.00  0.00     0.159 C
BRANCH  24  25
HETATM   25  S1  UNL     1      27.269  19.112  15.340  1.00  0.00     0.142 S
HETATM   26  C14 UNL     1      26.879  17.744  16.415  1.00  0.00     0.161 C
HETATM   27  O1  UNL     1      28.096  20.138  16.029  1.00  0.00    -0.228 OA
HETATM   28  O2  UNL     1      28.020  18.581  14.167  1.00  0.00    -0.228 OA
ENDBRANCH  24  25
ENDBRANCH  23  24
ENDBRANCH  21  23
ENDBRANCH  13  21
ENDBRANCH   6   7
ENDBRANCH   5   6
ENDBRANCH   4   5
ENDBRANCH   3   4
TORSDOF 8
ENDMDL