MODEL 1
REMARK VINA RESULT: -9.685982731      0.000      0.000
REMARK  7 active torsions:
REMARK  status: ('A' for Active; 'I' for Inactive)
REMARK    1  A    between atoms: C7_8  and  S1_9
REMARK    2  A    between atoms: S1_9  and  N2_12
REMARK    3  A    between atoms: N2_12  and  C8_14
REMARK    4  A    between atoms: C8_14  and  C9_15
REMARK    5  A    between atoms: C9_15  and  N3_16
REMARK    6  A    between atoms: N3_16  and  S2_18
REMARK    7  A    between atoms: S2_18  and  C10_21
ROOT
HETATM    1  N1  UNL     1      33.235  24.059  11.355  1.00  0.00    -0.191 NA
HETATM    2  C1  UNL     1      33.640  23.870  10.268  1.00  0.00     0.101 C
HETATM    3  C2  UNL     1      34.151  23.658   8.949  1.00  0.00     0.068 A
HETATM    4  C3  UNL     1      35.178  24.390   8.394  1.00  0.00     0.024 A
HETATM    5  C4  UNL     1      35.624  24.135   7.114  1.00  0.00     0.002 A
HETATM    6  C5  UNL     1      35.061  23.143   6.350  1.00  0.00     0.002 A
HETATM    7  C6  UNL     1      34.031  22.403   6.895  1.00  0.00     0.027 A
HETATM    8  C7  UNL     1      33.576  22.649   8.170  1.00  0.00     0.100 A
ENDROOT
BRANCH   8   9
HETATM    9  S1  UNL     1      32.328  21.710   8.866  1.00  0.00     0.260 S
HETATM   10  O1  UNL     1      31.739  20.857   7.741  1.00  0.00    -0.200 OA
HETATM   11  O2  UNL     1      32.795  20.759   9.925  1.00  0.00    -0.200 OA
BRANCH   9  12
HETATM   12  N2  UNL     1      31.011  22.593   9.502  1.00  0.00    -0.314 N
ATOM     13  H2  UNL     1      30.755  23.514   9.144  1.00  0.00     0.172 HD
BRANCH  12  14
HETATM   14  C8  UNL     1      30.291  21.969  10.558  1.00  0.00     0.152 C
BRANCH  14  15
HETATM   15  C9  UNL     1      29.625  22.978  11.469  1.00  0.00     0.152 C
BRANCH  15  16
HETATM   16  N3  UNL     1      30.357  23.207  12.685  1.00  0.00    -0.314 N
ATOM     17  H3  UNL     1      31.370  23.194  12.800  1.00  0.00     0.172 HD
BRANCH  16  18
HETATM   18  S2  UNL     1      29.167  23.511  13.925  1.00  0.00     0.258 S
HETATM   19  O3  UNL     1      29.947  23.966  15.150  1.00  0.00    -0.201 OA
HETATM   20  O4  UNL     1      28.230  24.607  13.513  1.00  0.00    -0.201 OA
BRANCH  18  21
HETATM   21  C10 UNL     1      28.333  22.046  14.355  1.00  0.00     0.079 A
HETATM   22  C11 UNL     1      27.061  21.752  13.876  1.00  0.00     0.025 A
HETATM   23  C12 UNL     1      26.393  20.596  14.209  1.00  0.00     0.002 A
HETATM   24  C13 UNL     1      27.005  19.693  15.051  1.00  0.00     0.000 A
HETATM   25  C14 UNL     1      28.259  19.941  15.549  1.00  0.00     0.002 A
HETATM   26  C15 UNL     1      28.910  21.116  15.195  1.00  0.00     0.025 A
ENDBRANCH  18  21
ENDBRANCH  16  18
ENDBRANCH  15  16
ENDBRANCH  14  15
ENDBRANCH  12  14
ENDBRANCH   9  12
ENDBRANCH   8   9
TORSDOF 7
ENDMDL