MODEL 3
REMARK VINA RESULT: -8.094014603      2.418      4.384
REMARK  10 active torsions:
REMARK  status: ('A' for Active; 'I' for Inactive)
REMARK    1  A    between atoms: O1_1  and  C1_3
REMARK    2  A    between atoms: C1_3  and  C2_4
REMARK    3  A    between atoms: C2_4  and  N1_5
REMARK    4  A    between atoms: N2_8  and  C5_9
REMARK    5  A    between atoms: C5_9  and  C6_10
REMARK    6  A    between atoms: C6_10  and  C7_11
REMARK    7  A    between atoms: C7_11  and  N3_12
REMARK    8  A    between atoms: N3_12  and  C8_14
REMARK    9  A    between atoms: C8_14  and  N4_16
REMARK   10  A    between atoms: C11_19  and  C12_20
ROOT
HETATM    1  N3  UNL     1      29.055  23.858  12.666  1.00  0.00    -0.365 N
ATOM      2  H3  UNL     1      29.339  24.814  12.449  1.00  0.00     0.161 HD
ENDROOT
BRANCH   1   3
HETATM    3  C7  UNL     1      28.673  23.478  14.022  1.00  0.00     0.127 C
BRANCH   3   4
HETATM    4  C6  UNL     1      29.830  23.534  14.971  1.00  0.00     0.064 C
BRANCH   4   5
HETATM    5  C5  UNL     1      30.661  22.280  15.023  1.00  0.00     0.065 C
BRANCH   5   6
HETATM    6  N2  UNL     1      30.024  21.049  14.978  1.00  0.00    -0.370 N
HETATM    7  C4  UNL     1      29.290  20.552  16.064  1.00  0.00     0.157 C
HETATM    8  C3  UNL     1      27.947  20.025  15.530  1.00  0.00     0.293 C
HETATM    9  N1  UNL     1      28.208  18.969  14.551  1.00  0.00     0.096 N
HETATM   10  C16 UNL     1      29.041  19.477  13.472  1.00  0.00     0.317 C
HETATM   11  C15 UNL     1      30.337  20.079  14.014  1.00  0.00     0.093 C
BRANCH   9  12
HETATM   12  C2  UNL     1      26.922  18.628  13.972  1.00  0.00     0.298 C
BRANCH  12  13
HETATM   13  C1  UNL     1      25.756  19.132  14.781  1.00  0.00     0.194 C
BRANCH  13  14
HETATM   14  O1  UNL     1      24.840  18.075  14.945  1.00  0.00    -0.399 OA
ATOM     15  H1  UNL     1      25.282  17.361  15.388  1.00  0.00     0.209 HD
ENDBRANCH  13  14
ENDBRANCH  12  13
ENDBRANCH   9  12
ENDBRANCH   5   6
ENDBRANCH   4   5
ENDBRANCH   3   4
ENDBRANCH   1   3
BRANCH   1  16
HETATM   16  C8  UNL     1      29.022  22.866  11.665  1.00  0.00     0.195 C
HETATM   17  S1  UNL     1      27.773  21.832  11.572  1.00  0.00    -0.039 SA
BRANCH  16  18
HETATM   18  N4  UNL     1      30.076  22.774  10.683  1.00  0.00    -0.207 N
HETATM   19  C9  UNL     1      29.770  22.207   9.389  1.00  0.00     0.167 C
HETATM   20  C10 UNL     1      30.928  21.510   8.757  1.00  0.00     0.077 C
HETATM   21  C11 UNL     1      32.256  22.030   9.129  1.00  0.00     0.018 C
HETATM   22  N5  UNL     1      32.403  22.805  10.137  1.00  0.00    -0.249 N
HETATM   23  O2  UNL     1      31.357  23.185  10.911  1.00  0.00    -0.152 OA
ATOM     24  H5  UNL     1      33.337  23.148  10.365  1.00  0.00     0.196 HD
BRANCH  21  25
HETATM   25  C12 UNL     1      33.448  21.621   8.287  1.00  0.00     0.033 A
HETATM   26  C13 UNL     1      33.191  21.066   6.933  1.00  0.00     0.011 A
HETATM   27  C14 UNL     1      33.825  22.458   7.127  1.00  0.00     0.011 A
ENDBRANCH  21  25
ENDBRANCH  16  18
ENDBRANCH   1  16
TORSDOF 10
ENDMDL