MODEL 3
REMARK VINA RESULT: -8.403387911      1.475      2.097
REMARK  8 active torsions:
REMARK  status: ('A' for Active; 'I' for Inactive)
REMARK    1  A    between atoms: C3_3  and  O1_4
REMARK    2  A    between atoms: O1_4  and  C4_5
REMARK    3  A    between atoms: C4_5  and  C5_6
REMARK    4  A    between atoms: C5_6  and  O2_7
REMARK    5  A    between atoms: C5_6  and  C6_9
REMARK    6  A    between atoms: C6_9  and  N1_10
REMARK    7  A    between atoms: N2_13  and  C9_14
REMARK    8  A    between atoms: C18_23  and  C19_24
ROOT
HETATM    1  C1  UNL     1      29.393  20.146  17.581  1.00  0.00     0.014 C
HETATM    2  C2  UNL     1      28.544  19.344  17.281  1.00  0.00    -0.091 C
HETATM    3  C3  UNL     1      27.494  18.387  16.927  1.00  0.00     0.260 C
ENDROOT
BRANCH   3   4
HETATM    4  O1  UNL     1      27.496  18.063  15.609  1.00  0.00    -0.377 OA
BRANCH   4   5
HETATM    5  C4  UNL     1      26.863  18.857  14.718  1.00  0.00     0.202 C
BRANCH   5   6
HETATM    6  C5  UNL     1      27.666  19.366  13.556  1.00  0.00     0.170 C
BRANCH   6   7
HETATM    7  O2  UNL     1      28.731  18.499  13.325  1.00  0.00    -0.392 OA
ATOM      8  H2  UNL     1      28.461  17.835  12.700  1.00  0.00     0.210 HD
ENDBRANCH   6   7
BRANCH   6   9
HETATM    9  C6  UNL     1      28.213  20.748  13.727  1.00  0.00     0.307 C
BRANCH   9  10
HETATM   10  N1  UNL     1      27.576  21.747  12.889  1.00  0.00     0.109 N
HETATM   11  C7  UNL     1      26.987  21.130  11.712  1.00  0.00     0.293 C
HETATM   12  C8  UNL     1      27.875  21.376  10.527  1.00  0.00     0.147 C
HETATM   13  N2  UNL     1      29.243  21.279  10.878  1.00  0.00    -0.404 N
HETATM   14  C17 UNL     1      29.682  22.269  11.813  1.00  0.00     0.164 C
HETATM   15  C18 UNL     1      28.459  22.814  12.531  1.00  0.00     0.340 C
BRANCH  13  16
HETATM   16  C9  UNL     1      30.134  21.028   9.788  1.00  0.00     0.080 C
HETATM   17  C10 UNL     1      30.294  22.163   8.840  1.00  0.00     0.029 C
HETATM   18  C11 UNL     1      31.504  22.023   7.972  1.00  0.00    -0.012 C
HETATM   19  C12 UNL     1      32.669  22.820   8.521  1.00  0.00     0.005 C
HETATM   20  C15 UNL     1      32.068  20.615   7.991  1.00  0.00     0.009 C
HETATM   21  C13 UNL     1      33.172  21.962   9.643  1.00  0.00     0.005 C
HETATM   22  C14 UNL     1      32.589  20.564   9.427  1.00  0.00    -0.012 C
HETATM   23  C16 UNL     1      31.403  20.449  10.330  1.00  0.00     0.029 C
ENDBRANCH  13  16
BRANCH  15  24
HETATM   24  C19 UNL     1      28.760  23.758  13.602  1.00  0.00     0.209 C
HETATM   25  O3  UNL     1      28.104  24.849  13.701  1.00  0.00    -0.646 OA
HETATM   26  O4  UNL     1      29.735  23.573  14.562  1.00  0.00    -0.646 OA
ENDBRANCH  15  24
ENDBRANCH   9  10
ENDBRANCH   6   9
ENDBRANCH   5   6
ENDBRANCH   4   5
ENDBRANCH   3   4
TORSDOF 8
ENDMDL