MODEL 1
REMARK VINA RESULT: -7.420388301      0.000      0.000
REMARK  7 active torsions:
REMARK  status: ('A' for Active; 'I' for Inactive)
REMARK    1  A    between atoms: C7_7  and  N1_8
REMARK       I    between atoms: N1_8  and  C8_10
REMARK    2  A    between atoms: C8_10  and  C9_12
REMARK    3  A    between atoms: C9_12  and  O2_13
REMARK    4  A    between atoms: O2_13  and  C10_14
REMARK    5  A    between atoms: C10_14  and  C11_16
REMARK    6  A    between atoms: C11_16  and  N2_17
REMARK       I    between atoms: N2_17  and  C12_19
REMARK    7  A    between atoms: C12_19  and  C13_21
ROOT
HETATM    1  C10 UNL     1      35.022   5.858   6.995  1.00  0.00     0.277 C
HETATM    2  O3  UNL     1      34.294   6.829   7.284  1.00  0.00    -0.263 OA
ENDROOT
BRANCH   1   3
HETATM    3  O2  UNL     1      36.374   6.155   6.744  1.00  0.00    -0.311 OA
BRANCH   3   4
HETATM    4  C9  UNL     1      37.234   6.418   7.809  1.00  0.00     0.281 C
BRANCH   4   5
HETATM    5  C8  UNL     1      37.135   5.439   8.898  1.00  0.00     0.242 C
HETATM    6  N1  UNL     1      37.496   4.074   8.744  1.00  0.00    -0.354 N
ATOM      7  H1  UNL     1      37.837   3.766   7.834  1.00  0.00     0.162 HD
HETATM    8  O1  UNL     1      36.712   5.828  10.022  1.00  0.00    -0.271 OA
BRANCH   6   9
HETATM    9  C7  UNL     1      37.406   3.106   9.795  1.00  0.00     0.088 C
HETATM   10  C2  UNL     1      38.701   2.864  10.484  1.00  0.00     0.004 C
HETATM   11  C1  UNL     1      39.773   2.305   9.605  1.00  0.00     0.012 C
HETATM   12  C3  UNL     1      38.522   1.958  11.661  1.00  0.00     0.006 C
HETATM   13  C4  UNL     1      37.378   1.014  11.539  1.00  0.00     0.001 C
HETATM   14  C5  UNL     1      37.044   0.639  10.122  1.00  0.00     0.002 C
HETATM   15  C6  UNL     1      36.913   1.802   9.197  1.00  0.00     0.025 C
ENDBRANCH   6   9
ENDBRANCH   4   5
ENDBRANCH   3   4
ENDBRANCH   1   3
BRANCH   1  16
HETATM   16  C11 UNL     1      34.553   4.454   6.908  1.00  0.00     0.233 C
BRANCH  16  17
HETATM   17  N2  UNL     1      34.025   4.031   8.186  1.00  0.00    -0.351 N
HETATM   18  C12 UNL     1      33.340   2.812   8.314  1.00  0.00     0.222 C
HETATM   19  O4  UNL     1      33.175   2.082   7.305  1.00  0.00    -0.273 OA
ATOM     20  H2  UNL     1      34.152   4.625   9.005  1.00  0.00     0.163 HD
BRANCH  18  21
HETATM   21  C13 UNL     1      32.808   2.364   9.605  1.00  0.00     0.082 C
HETATM   22  C14 UNL     1      33.814   2.518  10.761  1.00  0.00     0.019 C
HETATM   23  C15 UNL     1      33.400   1.318  11.596  1.00  0.00    -0.013 C
HETATM   24  C16 UNL     1      31.936   1.418  11.870  1.00  0.00     0.005 C
HETATM   25  C19 UNL     1      33.407   0.263  10.475  1.00  0.00     0.010 C
HETATM   26  C17 UNL     1      31.198   0.879  10.633  1.00  0.00     0.006 C
HETATM   27  C18 UNL     1      32.338   0.954   9.622  1.00  0.00    -0.001 C
ENDBRANCH  18  21
ENDBRANCH  16  17
ENDBRANCH   1  16
TORSDOF 7
ENDMDL