MODEL 4
REMARK VINA RESULT: -7.446183668      1.343      1.809
REMARK  7 active torsions:
REMARK  status: ('A' for Active; 'I' for Inactive)
REMARK    1  A    between atoms: C6_6  and  C7_7
REMARK    2  A    between atoms: C7_7  and  C8_8
REMARK    3  A    between atoms: C7_7  and  N1_11
REMARK    4  A    between atoms: C11_14  and  C12_15
REMARK    5  A    between atoms: C12_15  and  O4_17
REMARK    6  A    between atoms: O4_17  and  C13_18
REMARK    7  A    between atoms: C13_18  and  C14_19
ROOT
HETATM    1  N1  UNL     1      35.388   3.785   9.256  1.00  0.00     0.103 N
HETATM    2  C9  UNL     1      36.620   4.125   8.598  1.00  0.00     0.274 C
HETATM    3  C10 UNL     1      36.779   5.641   8.601  1.00  0.00     0.045 C
HETATM    4  C11 UNL     1      35.657   6.372   7.952  1.00  0.00     0.089 C
HETATM    5  C15 UNL     1      34.308   5.770   8.280  1.00  0.00     0.045 C
HETATM    6  C16 UNL     1      34.356   4.268   8.301  1.00  0.00     0.274 C
ENDROOT
BRANCH   1   7
HETATM    7  C7  UNL     1      35.173   2.401   9.505  1.00  0.00     0.326 C
BRANCH   7   8
HETATM    8  C6  UNL     1      33.721   2.153   9.940  1.00  0.00     0.030 C
HETATM    9  C5  UNL     1      33.555   2.288  11.433  1.00  0.00     0.007 C
HETATM   10  C4  UNL     1      32.100   2.286  11.843  1.00  0.00     0.001 C
HETATM   11  C3  UNL     1      31.604   0.896  12.172  1.00  0.00     0.004 C
HETATM   12  C2  UNL     1      31.300   0.179  10.897  1.00  0.00    -0.019 C
HETATM   13  C1  UNL     1      30.718  -1.188  11.273  1.00  0.00     0.010 C
HETATM   14  C18 UNL     1      32.650  -0.121  10.229  1.00  0.00     0.005 C
HETATM   15  C17 UNL     1      33.086   0.975   9.335  1.00  0.00     0.007 C
ENDBRANCH   7   8
BRANCH   7  16
HETATM   16  C8  UNL     1      36.130   1.685  10.311  1.00  0.00     0.208 C
HETATM   17  O1  UNL     1      36.219   0.406  10.072  1.00  0.00    -0.646 OA
HETATM   18  O2  UNL     1      36.986   2.045  11.298  1.00  0.00    -0.646 OA
ENDBRANCH   7  16
ENDBRANCH   1   7
BRANCH   4  19
HETATM   19  C12 UNL     1      35.892   6.402   6.479  1.00  0.00     0.263 C
HETATM   20  O3  UNL     1      34.897   6.447   5.724  1.00  0.00    -0.265 OA
BRANCH  19  21
HETATM   21  O4  UNL     1      37.154   6.382   5.946  1.00  0.00    -0.312 OA
BRANCH  21  22
HETATM   22  C13 UNL     1      37.543   5.418   5.009  1.00  0.00     0.278 C
BRANCH  22  23
HETATM   23  C14 UNL     1      37.540   5.975   3.659  1.00  0.00     0.255 C
HETATM   24  N2  UNL     1      37.281   5.140   2.543  1.00  0.00    -0.060 NA
HETATM   25  O5  UNL     1      37.758   7.202   3.410  1.00  0.00    -0.274 OA
ENDBRANCH  22  23
ENDBRANCH  21  22
ENDBRANCH  19  21
ENDBRANCH   4  19
TORSDOF 7
ENDMDL