MODEL 2
REMARK VINA RESULT: -7.282712833      3.255      4.265
REMARK  6 active torsions:
REMARK  status: ('A' for Active; 'I' for Inactive)
REMARK    1  A    between atoms: N1_2  and  C2_5
REMARK    2  A    between atoms: C2_5  and  C4_7
REMARK       I    between atoms: C4_7  and  N2_9
REMARK    3  A    between atoms: C7_12  and  N3_13
REMARK    4  A    between atoms: C9_15  and  C10_16
REMARK    5  A    between atoms: C10_16  and  C11_17
REMARK    6  A    between atoms: C11_17  and  C12_18
ROOT
HETATM    1  N3  UNL     1      37.295   3.020   7.064  1.00  0.00    -0.347 N
HETATM    2  C8  UNL     1      36.285   2.635   8.051  1.00  0.00     0.151 C
HETATM    3  C9  UNL     1      36.429   1.136   7.961  1.00  0.00     0.102 C
HETATM    4  N4  UNL     1      37.843   0.990   7.790  1.00  0.00    -0.358 N
ATOM      5  H4  UNL     1      38.387   0.163   8.034  1.00  0.00     0.162 HD
HETATM    6  C18 UNL     1      38.319   2.072   7.277  1.00  0.00     0.187 C
HETATM    7  N5  UNL     1      39.722   2.164   7.003  1.00  0.00    -0.064 NA
ENDROOT
BRANCH   1   8
HETATM    8  C7  UNL     1      37.245   4.065   6.133  1.00  0.00     0.106 C
HETATM    9  C6  UNL     1      36.409   3.804   4.892  1.00  0.00     0.047 C
HETATM   10  C5  UNL     1      36.457   5.121   4.200  1.00  0.00     0.128 C
HETATM   11  N2  UNL     1      36.523   6.082   5.317  1.00  0.00    -0.348 N
HETATM   12  C4  UNL     1      36.522   7.496   5.223  1.00  0.00     0.250 C
HETATM   13  C19 UNL     1      36.572   5.345   6.550  1.00  0.00     0.151 C
HETATM   14  O1  UNL     1      36.445   7.971   4.055  1.00  0.00    -0.271 OA
BRANCH  12  15
HETATM   15  C2  UNL     1      36.603   8.400   6.364  1.00  0.00     0.272 C
HETATM   16  C3  UNL     1      38.006   8.591   6.918  1.00  0.00     0.050 C
BRANCH  15  17
HETATM   17  N1  UNL     1      36.161   9.736   5.900  1.00  0.00    -0.067 N
HETATM   18  C1  UNL     1      37.201  10.669   6.215  1.00  0.00     0.267 C
ATOM     19  H12 UNL     1      35.254  10.009   6.280  1.00  0.00     0.277 HD
ATOM     20  H11 UNL     1      35.901   9.749   4.913  1.00  0.00     0.277 HD
ENDBRANCH  15  17
ENDBRANCH  12  15
ENDBRANCH   1   8
BRANCH   3  21
HETATM   21  C10 UNL     1      35.817   0.393   9.085  1.00  0.00     0.027 C
BRANCH  21  22
HETATM   22  C11 UNL     1      35.504   1.110  10.322  1.00  0.00     0.007 C
BRANCH  22  23
HETATM   23  C12 UNL     1      34.168   1.010  10.916  1.00  0.00    -0.014 C
HETATM   24  C13 UNL     1      33.646   2.448  11.108  1.00  0.00     0.004 C
HETATM   25  C14 UNL     1      32.507   2.324  12.101  1.00  0.00     0.000 C
HETATM   26  C15 UNL     1      31.431   1.400  11.623  1.00  0.00     0.000 C
HETATM   27  C16 UNL     1      31.916   0.124  11.027  1.00  0.00     0.000 C
HETATM   28  C17 UNL     1      33.129   0.298  10.131  1.00  0.00     0.004 C
ENDBRANCH  22  23
ENDBRANCH  21  22
ENDBRANCH   3  21
TORSDOF 6
ENDMDL