MODEL 2
REMARK VINA RESULT: -7.267423273      1.669      2.758
REMARK  8 active torsions:
REMARK  status: ('A' for Active; 'I' for Inactive)
REMARK    1  A    between atoms: C4_4  and  C5_5
REMARK    2  A    between atoms: C5_5  and  O2_7
REMARK    3  A    between atoms: O2_7  and  C6_8
REMARK    4  A    between atoms: C6_8  and  C7_9
REMARK       I    between atoms: C7_9  and  N1_11
REMARK    5  A    between atoms: N1_11  and  C8_13
REMARK    6  A    between atoms: C8_13  and  C10_15
REMARK    7  A    between atoms: C10_15  and  O4_16
REMARK    8  A    between atoms: C10_15  and  C11_18
ROOT
HETATM    1  C7  UNL     1      36.613   2.401   7.090  1.00  0.00     0.242 C
HETATM    2  O3  UNL     1      36.844   3.620   7.246  1.00  0.00    -0.271 OA
HETATM    3  N1  UNL     1      37.544   1.443   7.493  1.00  0.00    -0.352 N
ATOM      4  H1  UNL     1      37.316   0.459   7.347  1.00  0.00     0.163 HD
ENDROOT
BRANCH   1   5
HETATM    5  C6  UNL     1      35.341   1.959   6.469  1.00  0.00     0.281 C
BRANCH   5   6
HETATM    6  O2  UNL     1      34.562   1.201   7.405  1.00  0.00    -0.312 OA
BRANCH   6   7
HETATM    7  C5  UNL     1      33.331   1.684   7.819  1.00  0.00     0.266 C
HETATM    8  O1  UNL     1      32.663   2.355   6.991  1.00  0.00    -0.265 OA
BRANCH   7   9
HETATM    9  C4  UNL     1      32.775   1.456   9.152  1.00  0.00     0.115 C
HETATM   10  C3  UNL     1      33.192   2.523  10.114  1.00  0.00     0.024 C
HETATM   11  C2  UNL     1      32.887   2.061  11.510  1.00  0.00     0.011 C
HETATM   12  C1  UNL     1      31.551   2.549  11.985  1.00  0.00     0.012 C
HETATM   13  C18 UNL     1      33.058   0.572  11.637  1.00  0.00     0.128 C
HETATM   14  C17 UNL     1      32.115  -0.215  10.793  1.00  0.00     0.065 C
HETATM   15  O5  UNL     1      34.089   0.208  10.748  1.00  0.00    -0.379 OA
HETATM   16  C16 UNL     1      33.162   0.116   9.737  1.00  0.00     0.138 C
ENDBRANCH   7   9
ENDBRANCH   6   7
ENDBRANCH   5   6
ENDBRANCH   1   5
BRANCH   3  17
HETATM   17  C8  UNL     1      38.838   1.774   8.121  1.00  0.00     0.109 C
HETATM   18  C9  UNL     1      39.864   0.991   7.385  1.00  0.00     0.035 C
BRANCH  17  19
HETATM   19  C10 UNL     1      38.656   1.479   9.557  1.00  0.00     0.146 C
BRANCH  19  20
HETATM   20  O4  UNL     1      39.819   0.877  10.068  1.00  0.00    -0.393 OA
ATOM     21  H4  UNL     1      39.652   0.551  10.944  1.00  0.00     0.210 HD
ENDBRANCH  19  20
BRANCH  19  22
HETATM   22  C11 UNL     1      38.202   2.525  10.467  1.00  0.00     0.046 C
HETATM   23  C12 UNL     1      36.728   2.540  10.770  1.00  0.00     0.039 C
HETATM   24  C13 UNL     1      36.554   3.913  11.382  1.00  0.00     0.272 C
HETATM   25  N2  UNL     1      37.583   4.768  10.882  1.00  0.00     0.084 N
HETATM   26  C14 UNL     1      38.249   5.553  11.879  1.00  0.00     0.309 C
HETATM   27  C15 UNL     1      38.555   3.934  10.179  1.00  0.00     0.279 C
ENDBRANCH  19  22
ENDBRANCH  17  19
ENDBRANCH   3  17
TORSDOF 8
ENDMDL