MODEL 5
REMARK VINA RESULT: -7.268661553      4.476      6.864
REMARK  6 active torsions:
REMARK  status: ('A' for Active; 'I' for Inactive)
REMARK    1  A    between atoms: N2_9  and  C8_10
REMARK    2  A    between atoms: C8_10  and  C9_11
REMARK    3  A    between atoms: C9_11  and  C10_12
REMARK    4  A    between atoms: C12_16  and  C13_17
REMARK    5  A    between atoms: C13_17  and  C14_18
REMARK    6  A    between atoms: C14_18  and  O3_19
ROOT
HETATM    1  C1  UNL     1      31.655   0.486  12.113  1.00  0.00     0.154 C
HETATM    2  N1  UNL     1      32.070   1.423  11.086  1.00  0.00    -0.378 N
HETATM    3  C2  UNL     1      32.074   0.833   9.821  1.00  0.00     0.063 C
HETATM    4  C3  UNL     1      32.865   1.487   8.746  1.00  0.00     0.050 C
HETATM    5  C4  UNL     1      34.259   1.716   9.295  1.00  0.00     0.001 C
HETATM    6  C5  UNL     1      35.177   2.376   8.309  1.00  0.00     0.032 C
HETATM    7  C6  UNL     1      36.525   1.698   8.225  1.00  0.00     0.112 C
HETATM    8  C7  UNL     1      36.621   1.097   6.867  1.00  0.00     0.297 C
HETATM    9  N2  UNL     1      37.972   0.958   6.385  1.00  0.00     0.092 N
HETATM   10  C11 UNL     1      38.548   2.280   6.467  1.00  0.00     0.297 C
HETATM   11  C12 UNL     1      38.819   2.435   8.030  1.00  0.00     0.114 C
HETATM   12  N3  UNL     1      37.561   2.589   8.648  1.00  0.00    -0.381 N
HETATM   13  C15 UNL     1      37.654   2.786  10.034  1.00  0.00     0.059 C
HETATM   14  C16 UNL     1      36.500   2.336  10.905  1.00  0.00     0.045 C
HETATM   15  C17 UNL     1      35.345   3.275  10.926  1.00  0.00     0.015 C
HETATM   16  C18 UNL     1      34.051   2.737  10.420  1.00  0.00     0.029 C
HETATM   17  C19 UNL     1      33.139   2.244  11.481  1.00  0.00     0.067 C
ENDROOT
BRANCH   9  18
HETATM   18  C8  UNL     1      37.989   0.476   5.043  1.00  0.00     0.283 C
BRANCH  18  19
HETATM   19  C9  UNL     1      38.622   1.374   4.036  1.00  0.00     0.143 C
BRANCH  19  20
HETATM   20  C10 UNL     1      37.721   1.522   2.871  1.00  0.00     0.174 C
HETATM   21  O1  UNL     1      36.590   2.033   3.040  1.00  0.00    -0.648 OA
HETATM   22  O2  UNL     1      38.150   1.089   1.604  1.00  0.00    -0.648 OA
ENDBRANCH  19  20
ENDBRANCH  18  19
ENDBRANCH   9  18
BRANCH  11  23
HETATM   23  C13 UNL     1      39.874   3.439   8.144  1.00  0.00     0.053 C
BRANCH  23  24
HETATM   24  C14 UNL     1      41.266   3.077   8.472  1.00  0.00     0.166 C
BRANCH  24  25
HETATM   25  O3  UNL     1      41.555   3.526   9.823  1.00  0.00    -0.401 OA
ATOM     26  H3  UNL     1      42.023   4.351   9.773  1.00  0.00     0.209 HD
ENDBRANCH  24  25
ENDBRANCH  23  24
ENDBRANCH  11  23
TORSDOF 6
ENDMDL