MODEL 5
REMARK VINA RESULT: -6.620047624      3.660      7.221
REMARK  7 active torsions:
REMARK  status: ('A' for Active; 'I' for Inactive)
REMARK    1  A    between atoms: C2_2  and  C4_4
REMARK    2  A    between atoms: C4_4  and  O1_5
REMARK    3  A    between atoms: O1_5  and  C5_6
REMARK       I    between atoms: C5_6  and  N1_8
REMARK    4  A    between atoms: N1_8  and  C6_10
REMARK    5  A    between atoms: C6_10  and  C8_12
REMARK       I    between atoms: C8_12  and  N2_14
REMARK    6  A    between atoms: C13_20  and  C14_21
REMARK       I    between atoms: C14_21  and  N4_23
REMARK    7  A    between atoms: N4_23  and  C15_25
ROOT
HETATM    1  C8  UNL     1      34.713   3.259   7.805  1.00  0.00     0.244 C
HETATM    2  O3  UNL     1      33.467   3.102   7.751  1.00  0.00    -0.271 OA
HETATM    3  N2  UNL     1      35.594   2.208   8.191  1.00  0.00    -0.320 N
HETATM    4  C9  UNL     1      37.025   2.213   8.305  1.00  0.00     0.195 C
HETATM    5  C10 UNL     1      37.628   2.274   6.975  1.00  0.00     0.085 C
HETATM    6  N3  UNL     1      38.103   2.322   5.939  1.00  0.00    -0.195 NA
HETATM    7  C11 UNL     1      37.395   0.937   9.028  1.00  0.00     0.043 C
HETATM    8  C12 UNL     1      36.322  -0.020   8.521  1.00  0.00     0.038 C
HETATM    9  C13 UNL     1      35.113   0.885   8.548  1.00  0.00     0.180 C
ENDROOT
BRANCH   1  10
HETATM   10  C6  UNL     1      35.230   4.617   7.441  1.00  0.00     0.175 C
HETATM   11  C7  UNL     1      34.296   5.688   7.960  1.00  0.00     0.042 C
BRANCH  10  12
HETATM   12  N1  UNL     1      35.300   4.758   6.004  1.00  0.00    -0.324 N
HETATM   13  C5  UNL     1      36.433   5.388   5.429  1.00  0.00     0.361 C
HETATM   14  O2  UNL     1      37.370   5.823   6.143  1.00  0.00    -0.238 OA
ATOM     15  H1  UNL     1      34.546   4.409   5.412  1.00  0.00     0.165 HD
BRANCH  13  16
HETATM   16  O1  UNL     1      36.569   5.558   4.055  1.00  0.00    -0.304 OA
BRANCH  16  17
HETATM   17  C4  UNL     1      37.588   4.933   3.302  1.00  0.00     0.184 C
BRANCH  17  18
HETATM   18  C2  UNL     1      36.876   4.090   2.240  1.00  0.00     0.002 C
HETATM   19  C1  UNL     1      37.910   3.762   1.183  1.00  0.00     0.011 C
HETATM   20  C3  UNL     1      36.281   2.844   2.823  1.00  0.00     0.011 C
ENDBRANCH  17  18
ENDBRANCH  16  17
ENDBRANCH  13  16
ENDBRANCH  10  12
ENDBRANCH   1  10
BRANCH   9  21
HETATM   21  C14 UNL     1      34.538   0.838   9.895  1.00  0.00     0.241 C
HETATM   22  O4  UNL     1      35.268   0.791  10.916  1.00  0.00    -0.271 OA
HETATM   23  N4  UNL     1      33.141   0.844  10.064  1.00  0.00    -0.355 N
ATOM     24  H4  UNL     1      32.544   0.882   9.238  1.00  0.00     0.162 HD
BRANCH  23  25
HETATM   25  C15 UNL     1      32.518   0.798  11.383  1.00  0.00     0.076 C
HETATM   26  C16 UNL     1      31.380  -0.180  11.347  1.00  0.00     0.032 C
HETATM   27  C17 UNL     1      31.943   2.163  11.738  1.00  0.00     0.032 C
ENDBRANCH  23  25
ENDBRANCH   9  21
TORSDOF 7
ENDMDL