MODEL 3
REMARK VINA RESULT: -6.625674959      1.996      2.459
REMARK  7 active torsions:
REMARK  status: ('A' for Active; 'I' for Inactive)
REMARK    1  A    between atoms: O1_2  and  C2_3
REMARK    2  A    between atoms: C2_3  and  C3_4
REMARK    3  A    between atoms: C3_4  and  O2_5
REMARK    4  A    between atoms: C3_4  and  C4_7
REMARK    5  A    between atoms: C4_7  and  N1_8
REMARK    6  A    between atoms: N1_8  and  C5_11
REMARK    7  A    between atoms: C8_14  and  N2_15
REMARK       I    between atoms: N3_23  and  C16_24
ROOT
HETATM    1  C5  UNL     1      32.971   1.489   8.804  1.00  0.00     0.186 C
HETATM    2  C6  UNL     1      34.206   1.310   9.644  1.00  0.00     0.035 C
HETATM    3  C7  UNL     1      35.103   2.508   9.438  1.00  0.00     0.027 C
HETATM    4  C8  UNL     1      35.418   2.814   8.025  1.00  0.00     0.079 C
HETATM    5  C18 UNL     1      34.338   2.542   7.023  1.00  0.00     0.027 C
HETATM    6  C19 UNL     1      33.377   1.461   7.372  1.00  0.00     0.035 C
ENDROOT
BRANCH   4   7
HETATM    7  N2  UNL     1      35.876   4.185   7.927  1.00  0.00    -0.404 N
HETATM    8  C9  UNL     1      34.847   5.106   7.567  1.00  0.00     0.119 C
HETATM    9  C10 UNL     1      35.170   6.108   6.535  1.00  0.00     0.045 C
HETATM   10  C11 UNL     1      36.245   5.771   5.559  1.00  0.00     0.090 C
HETATM   11  C12 UNL     1      36.920   4.441   5.812  1.00  0.00     0.050 C
HETATM   12  N3  UNL     1      37.319   6.772   5.645  1.00  0.00    -0.348 N
HETATM   13  C13 UNL     1      37.134   4.387   7.327  1.00  0.00     0.083 C
HETATM   14  C14 UNL     1      37.831   5.654   7.765  1.00  0.00     0.045 C
HETATM   15  C15 UNL     1      38.355   6.464   6.601  1.00  0.00     0.128 C
HETATM   16  C16 UNL     1      37.286   7.921   4.836  1.00  0.00     0.216 C
HETATM   17  C17 UNL     1      38.381   8.921   4.936  1.00  0.00     0.117 C
HETATM   18  O3  UNL     1      36.334   8.100   4.030  1.00  0.00    -0.274 OA
ENDBRANCH   4   7
BRANCH   1  19
HETATM   19  N1  UNL     1      31.982   0.498   9.144  1.00  0.00    -0.068 N
ATOM     20  H12 UNL     1      31.663   0.003   8.310  1.00  0.00     0.277 HD
ATOM     21  H11 UNL     1      31.106   0.939   9.422  1.00  0.00     0.277 HD
BRANCH  19  22
HETATM   22  C4  UNL     1      32.432  -0.429  10.150  1.00  0.00     0.266 C
BRANCH  22  23
HETATM   23  C3  UNL     1      31.378  -0.556  11.225  1.00  0.00     0.167 C
BRANCH  23  24
HETATM   24  C2  UNL     1      31.649   0.391  12.377  1.00  0.00     0.200 C
BRANCH  24  25
HETATM   25  O1  UNL     1      31.213   1.680  12.090  1.00  0.00    -0.393 OA
HETATM   26  C1  UNL     1      32.243   2.603  12.172  1.00  0.00     0.201 C
ENDBRANCH  24  25
ENDBRANCH  23  24
BRANCH  23  27
HETATM   27  O2  UNL     1      30.096  -0.302  10.746  1.00  0.00    -0.392 OA
ATOM     28  H2  UNL     1      29.733  -1.118  10.422  1.00  0.00     0.210 HD
ENDBRANCH  23  27
ENDBRANCH  22  23
ENDBRANCH  19  22
ENDBRANCH   1  19
TORSDOF 7
ENDMDL