MODEL 5
REMARK VINA RESULT: -6.347771749      3.307      4.478
REMARK  10 active torsions:
REMARK  status: ('A' for Active; 'I' for Inactive)
REMARK    1  A    between atoms: C2_2  and  O1_3
REMARK    2  A    between atoms: C2_2  and  C3_5
REMARK    3  A    between atoms: C3_5  and  C10_15
REMARK    4  A    between atoms: C4_6  and  O2_7
REMARK    5  A    between atoms: C4_6  and  N1_9
REMARK    6  A    between atoms: N1_9  and  C5_10
REMARK    7  A    between atoms: N1_9  and  C7_12
REMARK    8  A    between atoms: N2_17  and  C12_19
REMARK    9  A    between atoms: C16_24  and  O3_25
REMARK   10  A    between atoms: C17_27  and  O4_29
ROOT
HETATM    1  C10 UNL     1      37.283   1.752   8.456  1.00  0.00     0.020 C
HETATM    2  C11 UNL     1      37.272   0.341   7.964  1.00  0.00     0.069 C
HETATM    3  N2  UNL     1      36.201   2.309   8.767  1.00  0.00    -0.361 N
ATOM      4  H2  UNL     1      36.264   3.274   9.091  1.00  0.00     0.161 HD
ENDROOT
BRANCH   1   5
HETATM    5  C3  UNL     1      38.643   2.419   8.534  1.00  0.00     0.069 C
HETATM    6  C4  UNL     1      38.639   3.813   8.837  1.00  0.00     0.153 C
BRANCH   5   7
HETATM    7  C2  UNL     1      39.672   1.486   9.013  1.00  0.00     0.072 C
HETATM    8  C1  UNL     1      40.756   1.234   8.263  1.00  0.00     0.051 C
BRANCH   7   9
HETATM    9  O1  UNL     1      39.646   0.791  10.212  1.00  0.00    -0.360 OA
ATOM     10  H1  UNL     1      39.374  -0.114  10.125  1.00  0.00     0.217 HD
ENDBRANCH   7   9
ENDBRANCH   5   7
BRANCH   6  11
HETATM   11  O2  UNL     1      38.400   4.538   7.712  1.00  0.00    -0.345 OA
ATOM     12  H2  UNL     1      37.490   4.451   7.452  1.00  0.00     0.219 HD
ENDBRANCH   6  11
BRANCH   6  13
HETATM   13  N1  UNL     1      38.793   4.673   9.899  1.00  0.00    -0.358 N
BRANCH  13  14
HETATM   14  C5  UNL     1      39.654   5.876   9.640  1.00  0.00     0.121 C
HETATM   15  C6  UNL     1      39.290   7.009  10.525  1.00  0.00     0.026 C
ENDBRANCH  13  14
BRANCH  13  16
HETATM   16  C7  UNL     1      38.283   4.574  11.225  1.00  0.00     0.078 C
HETATM   17  C8  UNL     1      39.023   3.586  12.114  1.00  0.00     0.032 C
HETATM   18  C9  UNL     1      36.815   4.346  11.337  1.00  0.00     0.032 C
ENDBRANCH  13  16
ENDBRANCH   6  13
ENDBRANCH   1   5
BRANCH   3  19
HETATM   19  C12 UNL     1      34.914   1.748   8.717  1.00  0.00     0.358 C
HETATM   20  N3  UNL     1      34.284   1.591  10.009  1.00  0.00     0.117 N
HETATM   21  C13 UNL     1      34.144   0.194  10.347  1.00  0.00     0.313 C
HETATM   22  C14 UNL     1      33.022   2.285   9.964  1.00  0.00     0.252 C
HETATM   23  C15 UNL     1      31.973   1.710  10.853  1.00  0.00     0.046 C
HETATM   24  C16 UNL     1      32.628   2.123   8.489  1.00  0.00     0.189 C
HETATM   25  C17 UNL     1      33.945   2.525   7.849  1.00  0.00     0.130 C
HETATM   26  C18 UNL     1      34.084   4.021   8.074  1.00  0.00     0.052 C
BRANCH  24  27
HETATM   27  O3  UNL     1      32.276   0.821   8.221  1.00  0.00    -0.390 OA
ATOM     28  H3  UNL     1      32.477   0.598   7.319  1.00  0.00     0.210 HD
ENDBRANCH  24  27
BRANCH  25  29
HETATM   29  O4  UNL     1      34.021   2.182   6.517  1.00  0.00    -0.383 OA
ATOM     30  H4  UNL     1      33.232   2.395   6.033  1.00  0.00     0.210 HD
ENDBRANCH  25  29
ENDBRANCH   3  19
TORSDOF 10
ENDMDL