MODEL 5
REMARK VINA RESULT: -6.896755102      4.711      8.110
REMARK  6 active torsions:
REMARK  status: ('A' for Active; 'I' for Inactive)
REMARK    1  A    between atoms: C1_2  and  C2_4
REMARK    2  A    between atoms: C2_4  and  C3_5
REMARK    3  A    between atoms: C3_5  and  N1_6
REMARK       I    between atoms: N1_6  and  C4_8
REMARK    4  A    between atoms: C4_8  and  C5_10
REMARK    5  A    between atoms: N2_16  and  C11_17
REMARK    6  A    between atoms: C11_17  and  C12_18
ROOT
HETATM    1  C5  UNL     1      36.776   5.117   5.954  1.00  0.00     0.213 C
HETATM    2  C6  UNL     1      37.915   4.161   6.330  1.00  0.00     0.043 C
HETATM    3  C7  UNL     1      37.945   4.107   7.839  1.00  0.00     0.015 C
HETATM    4  C8  UNL     1      36.598   3.756   8.446  1.00  0.00    -0.013 C
HETATM    5  C9  UNL     1      36.259   2.318   8.295  1.00  0.00     0.056 C
HETATM    6  C10 UNL     1      36.563   1.599   9.585  1.00  0.00     0.059 C
HETATM    7  N2  UNL     1      35.764   2.104  10.622  1.00  0.00    -0.391 N
HETATM    8  C16 UNL     1      35.702   3.508  10.783  1.00  0.00     0.123 C
HETATM    9  C17 UNL     1      36.575   4.289   9.843  1.00  0.00     0.032 C
HETATM   10  C18 UNL     1      35.520   4.550   7.696  1.00  0.00     0.178 C
HETATM   11  O5  UNL     1      35.618   4.440   6.331  1.00  0.00    -0.376 OA
ENDROOT
BRANCH   1  12
HETATM   12  C4  UNL     1      36.803   5.423   4.502  1.00  0.00     0.246 C
HETATM   13  N1  UNL     1      37.405   4.504   3.598  1.00  0.00    -0.358 N
ATOM     14  H1  UNL     1      37.815   3.640   3.952  1.00  0.00     0.162 HD
HETATM   15  O3  UNL     1      36.305   6.468   4.071  1.00  0.00    -0.271 OA
BRANCH  13  16
HETATM   16  C3  UNL     1      37.439   4.783   2.196  1.00  0.00     0.133 C
BRANCH  16  17
HETATM   17  C2  UNL     1      37.173   3.553   1.372  1.00  0.00     0.133 C
BRANCH  17  18
HETATM   18  C1  UNL     1      36.587   2.454   2.192  1.00  0.00     0.174 C
HETATM   19  O1  UNL     1      35.329   2.461   2.325  1.00  0.00    -0.648 OA
HETATM   20  O2  UNL     1      37.330   1.460   2.792  1.00  0.00    -0.648 OA
ENDBRANCH  17  18
ENDBRANCH  16  17
ENDBRANCH  13  16
ENDBRANCH   1  12
BRANCH   7  21
HETATM   21  C11 UNL     1      34.657   1.356  11.075  1.00  0.00     0.153 C
BRANCH  21  22
HETATM   22  C12 UNL     1      33.397   2.202  10.879  1.00  0.00     0.139 C
HETATM   23  C13 UNL     1      32.494   2.125  12.063  1.00  0.00     0.035 C
HETATM   24  C14 UNL     1      31.354   1.255  11.587  1.00  0.00     0.029 C
HETATM   25  C15 UNL     1      31.739   0.850  10.204  1.00  0.00     0.168 C
HETATM   26  O4  UNL     1      32.751   1.685   9.788  1.00  0.00    -0.384 OA
ENDBRANCH  21  22
ENDBRANCH   7  21
TORSDOF 6
ENDMDL