MODEL 2
REMARK VINA RESULT: -6.798409460      0.545      1.053
REMARK  7 active torsions:
REMARK  status: ('A' for Active; 'I' for Inactive)
REMARK    1  A    between atoms: O1_2  and  C2_3
REMARK    2  A    between atoms: C2_3  and  C5_6
REMARK    3  A    between atoms: N1_7  and  N2_9
REMARK       I    between atoms: N2_9  and  C6_11
REMARK    4  A    between atoms: C6_11  and  C7_13
REMARK       I    between atoms: N3_18  and  C12_19
REMARK    5  A    between atoms: C12_19  and  C13_21
REMARK    6  A    between atoms: C13_21  and  N4_22
REMARK    7  A    between atoms: N4_22  and  C14_25
ROOT
HETATM    1  C7  UNL     1      36.976   2.289   7.834  1.00  0.00     0.114 C
HETATM    2  C8  UNL     1      37.383   2.865   6.493  1.00  0.00     0.049 C
HETATM    3  C9  UNL     1      38.051   1.247   8.172  1.00  0.00     0.042 C
HETATM    4  C10 UNL     1      37.607   0.064   7.369  1.00  0.00     0.023 C
HETATM    5  C11 UNL     1      36.093   0.097   7.692  1.00  0.00     0.127 C
HETATM    6  N3  UNL     1      35.774   1.503   7.750  1.00  0.00    -0.333 N
HETATM    7  C12 UNL     1      34.469   2.041   7.705  1.00  0.00     0.246 C
HETATM    8  O3  UNL     1      34.344   3.334   7.707  1.00  0.00    -0.271 OA
ENDROOT
BRANCH   1   9
HETATM    9  C6  UNL     1      37.016   3.286   8.911  1.00  0.00     0.264 C
HETATM   10  N2  UNL     1      37.003   4.682   8.735  1.00  0.00    -0.268 N
ATOM     11  H2  UNL     1      36.962   5.048   7.784  1.00  0.00     0.190 HD
HETATM   12  O2  UNL     1      37.064   2.872  10.117  1.00  0.00    -0.269 OA
BRANCH  10  13
HETATM   13  N1  UNL     1      37.044   5.593   9.792  1.00  0.00    -0.310 N
HETATM   14  C5  UNL     1      38.015   6.356  10.079  1.00  0.00     0.117 C
ATOM     15  H1  UNL     1      36.219   5.650  10.388  1.00  0.00     0.185 HD
BRANCH  14  16
HETATM   16  C2  UNL     1      37.989   7.300  11.219  1.00  0.00     0.086 C
HETATM   17  C3  UNL     1      37.016   8.411  10.891  1.00  0.00     0.051 C
HETATM   18  C4  UNL     1      39.387   7.915  11.369  1.00  0.00     0.051 C
BRANCH  16  19
HETATM   19  O1  UNL     1      37.711   6.692  12.427  1.00  0.00    -0.380 OA
HETATM   20  C1  UNL     1      37.655   7.584  13.491  1.00  0.00     0.203 C
ENDBRANCH  16  19
ENDBRANCH  14  16
ENDBRANCH  10  13
ENDBRANCH   1   9
BRANCH   7  21
HETATM   21  C13 UNL     1      33.182   1.350   7.660  1.00  0.00     0.335 C
BRANCH  21  22
HETATM   22  N4  UNL     1      32.305   1.485   8.768  1.00  0.00    -0.063 N
ATOM     23  H42 UNL     1      31.971   2.444   8.863  1.00  0.00     0.278 HD
ATOM     24  H41 UNL     1      31.412   1.022   8.594  1.00  0.00     0.278 HD
BRANCH  22  25
HETATM   25  C14 UNL     1      32.925   1.004  10.019  1.00  0.00     0.186 C
HETATM   26  C15 UNL     1      33.192   2.082  11.003  1.00  0.00     0.033 C
HETATM   27  C16 UNL     1      32.011   2.100  11.970  1.00  0.00     0.002 C
HETATM   28  C17 UNL     1      31.738   0.632  12.112  1.00  0.00     0.002 C
HETATM   29  C18 UNL     1      31.866   0.128  10.688  1.00  0.00     0.033 C
ENDBRANCH  22  25
ENDBRANCH  21  22
ENDBRANCH   7  21
TORSDOF 7
ENDMDL