MODEL 4
REMARK VINA RESULT: -8.177157807     14.763     16.668
REMARK  9 active torsions:
REMARK  status: ('A' for Active; 'I' for Inactive)
REMARK    1  A    between atoms: C2_2  and  C5_5
REMARK    2  A    between atoms: C5_5  and  C19_32
REMARK    3  A    between atoms: C6_6  and  C7_7
REMARK    4  A    between atoms: C7_7  and  C8_8
REMARK    5  A    between atoms: C8_8  and  C9_9
REMARK    6  A    between atoms: C8_8  and  C10_13
REMARK    7  A    between atoms: C10_13  and  O1_15
REMARK    8  A    between atoms: C10_13  and  C12_17
REMARK    9  A    between atoms: C17_25  and  N2_26
ROOT
HETATM    1  C8  UNL     1     -15.999  -3.290 -12.739  1.00  0.00     0.134 C
ENDROOT
BRANCH   1   2
HETATM    2  C7  UNL     1     -15.262  -2.506 -13.780  1.00  0.00     0.044 C
BRANCH   2   3
HETATM    3  C6  UNL     1     -15.643  -1.153 -14.051  1.00  0.00    -0.018 C
HETATM    4  C5  UNL     1     -14.953  -0.060 -14.383  1.00  0.00    -0.049 C
BRANCH   4   5
HETATM    5  C2  UNL     1     -13.509  -0.100 -14.557  1.00  0.00    -0.024 C
HETATM    6  C1  UNL     1     -12.776  -0.881 -13.427  1.00  0.00     0.019 C
HETATM    7  C3  UNL     1     -13.024  -0.711 -15.883  1.00  0.00     0.019 C
HETATM    8  C4  UNL     1     -12.848   1.253 -14.515  1.00  0.00     0.019 C
ENDBRANCH   4   5
BRANCH   4   9
HETATM    9  C19 UNL     1     -15.842   1.160 -14.489  1.00  0.00    -0.040 C
HETATM   10  C20 UNL     1     -17.037   1.125 -13.595  1.00  0.00     0.038 C
HETATM   11  C21 UNL     1     -18.305   1.739 -14.055  1.00  0.00     0.004 C
HETATM   12  C22 UNL     1     -18.009   2.934 -14.931  1.00  0.00     0.003 C
HETATM   13  C23 UNL     1     -17.374   2.272 -16.157  1.00  0.00     0.042 C
HETATM   14  C24 UNL     1     -15.982   1.783 -15.808  1.00  0.00     0.199 C
HETATM   15  F4  UNL     1     -15.531   1.129 -16.917  1.00  0.00    -0.245 F
ENDBRANCH   4   9
ENDBRANCH   2   3
ENDBRANCH   1   2
BRANCH   1  16
HETATM   16  C9  UNL     1     -15.784  -2.818 -11.329  1.00  0.00     0.394 C
HETATM   17  F1  UNL     1     -14.392  -2.889 -11.124  1.00  0.00    -0.171 F
HETATM   18  F2  UNL     1     -16.526  -3.359 -10.357  1.00  0.00    -0.171 F
HETATM   19  F3  UNL     1     -15.998  -1.435 -11.232  1.00  0.00    -0.171 F
ENDBRANCH   1  16
BRANCH   1  20
HETATM   20  C10 UNL     1     -15.990  -4.784 -12.870  1.00  0.00     0.098 C
HETATM   21  C11 UNL     1     -16.145  -5.560 -11.634  1.00  0.00     0.050 C
BRANCH  20  22
HETATM   22  O1  UNL     1     -17.055  -5.145 -13.750  1.00  0.00    -0.387 OA
ATOM     23  H1  UNL     1     -17.845  -5.217 -13.228  1.00  0.00     0.210 HD
ENDBRANCH  20  22
BRANCH  20  24
HETATM   24  C12 UNL     1     -14.721  -5.273 -13.584  1.00  0.00     0.206 C
HETATM   25  O2  UNL     1     -15.063  -5.931 -14.755  1.00  0.00    -0.376 OA
HETATM   26  C13 UNL     1     -14.310  -6.999 -15.113  1.00  0.00     0.173 C
HETATM   27  C14 UNL     1     -14.555  -8.075 -14.031  1.00  0.00     0.068 C
HETATM   28  C15 UNL     1     -13.863  -7.509 -12.852  1.00  0.00    -0.014 A
HETATM   29  C16 UNL     1     -13.133  -8.252 -11.967  1.00  0.00     0.115 A
HETATM   30  C18 UNL     1     -13.943  -6.130 -12.660  1.00  0.00     0.066 A
HETATM   31  N1  UNL     1     -12.484  -7.706 -10.915  1.00  0.00    -0.202 N
HETATM   32  C17 UNL     1     -12.563  -6.392 -10.741  1.00  0.00     0.675 A
ATOM     33  H1  UNL     1     -11.947  -8.288 -10.272  1.00  0.00     0.183 HD
HETATM   34  N3  UNL     1     -13.270  -5.621 -11.584  1.00  0.00    -0.193 N
ATOM     35  H3  UNL     1     -13.307  -4.616 -11.414  1.00  0.00     0.184 HD
BRANCH  32  36
HETATM   36  N2  UNL     1     -11.952  -5.842  -9.742  1.00  0.00    -0.234 N
ATOM     37  H22 UNL     1     -10.932  -5.837  -9.723  1.00  0.00     0.174 HD
ATOM     38  H21 UNL     1     -12.495  -5.421  -8.989  1.00  0.00     0.174 HD
ENDBRANCH  32  36
ENDBRANCH  20  24
ENDBRANCH   1  20
TORSDOF 9
ENDMDL