MODEL 3
REMARK VINA RESULT: -8.033736661     15.825     17.586
REMARK  6 active torsions:
REMARK  status: ('A' for Active; 'I' for Inactive)
REMARK    1  A    between atoms: C4_6  and  C5_7
REMARK    2  A    between atoms: C5_7  and  O1_8
REMARK    3  A    between atoms: C5_7  and  C6_10
REMARK    4  A    between atoms: C5_7  and  C11_17
REMARK    5  A    between atoms: C6_10  and  C7_11
REMARK    6  A    between atoms: C9_13  and  C10_14
ROOT
HETATM    1  C5  UNL     1     -14.366  -1.276 -13.968  1.00  0.00     0.146 C
ENDROOT
BRANCH   1   2
HETATM    2  C4  UNL     1     -13.905  -2.170 -15.033  1.00  0.00     0.121 A
HETATM    3  N1  UNL     1     -13.305  -1.778 -16.183  1.00  0.00    -0.351 N
HETATM    4  C3  UNL     1     -13.050  -2.843 -16.956  1.00  0.00     0.114 A
ATOM      5  H1  UNL     1     -13.080  -0.813 -16.424  1.00  0.00     0.166 HD
HETATM    6  C2  UNL     1     -13.498  -3.940 -16.287  1.00  0.00     0.022 A
HETATM    7  C1  UNL     1     -13.418  -5.335 -16.776  1.00  0.00     0.069 C
HETATM    8  N2  UNL     1     -14.009  -3.516 -15.130  1.00  0.00    -0.346 N
ATOM      9  H2  UNL     1     -14.420  -4.121 -14.419  1.00  0.00     0.167 HD
ENDBRANCH   1   2
BRANCH   1  10
HETATM   10  O1  UNL     1     -13.167  -1.341 -13.099  1.00  0.00    -0.377 OA
ATOM     11  H1  UNL     1     -12.878  -2.217 -13.329  1.00  0.00     0.211 HD
ENDBRANCH   1  10
BRANCH   1  12
HETATM   12  C6  UNL     1     -15.389  -1.747 -13.034  1.00  0.00     0.057 C
BRANCH  12  13
HETATM   13  C7  UNL     1     -15.193  -2.697 -11.952  1.00  0.00     0.004 A
HETATM   14  C8  UNL     1     -15.779  -2.773 -10.625  1.00  0.00     0.021 A
HETATM   15  C9  UNL     1     -16.344  -3.657 -11.672  1.00  0.00     0.091 A
BRANCH  15  16
HETATM   16  C10 UNL     1     -16.131  -5.101 -11.670  1.00  0.00     0.177 C
HETATM   17  O2  UNL     1     -16.751  -5.837 -12.475  1.00  0.00    -0.648 OA
HETATM   18  O3  UNL     1     -15.249  -5.677 -10.784  1.00  0.00    -0.648 OA
ENDBRANCH  15  16
ENDBRANCH  12  13
ENDBRANCH   1  12
BRANCH   1  19
HETATM   19  C11 UNL     1     -14.491   0.176 -14.402  1.00  0.00     0.024 A
HETATM   20  C12 UNL     1     -13.353   0.936 -14.502  1.00  0.00     0.086 A
HETATM   21 CL1  UNL     1     -11.644   0.521 -14.211  1.00  0.00    -0.075 Cl
HETATM   22  S1  UNL     1     -13.922   2.464 -15.010  1.00  0.00    -0.073 SA
HETATM   23  C13 UNL     1     -15.575   2.123 -15.090  1.00  0.00     0.058 A
HETATM   24  C14 UNL     1     -16.651   2.940 -15.459  1.00  0.00     0.157 A
HETATM   25  C18 UNL     1     -15.673   0.810 -14.717  1.00  0.00    -0.002 A
HETATM   26  F1  UNL     1     -16.440   4.226 -15.810  1.00  0.00    -0.203 F
HETATM   27  C15 UNL     1     -17.925   2.424 -15.463  1.00  0.00     0.095 A
HETATM   28 CL2  UNL     1     -19.322   3.356 -15.905  1.00  0.00    -0.079 Cl
HETATM   29  C16 UNL     1     -18.049   1.129 -15.101  1.00  0.00     0.059 A
HETATM   30 CL3  UNL     1     -19.663   0.395 -15.084  1.00  0.00    -0.082 Cl
HETATM   31  C17 UNL     1     -16.988   0.300 -14.730  1.00  0.00     0.039 A
ENDBRANCH   1  19
TORSDOF 6
ENDMDL