MODEL 3
REMARK VINA RESULT: -7.685274497      1.721      3.137
REMARK  8 active torsions:
REMARK  status: ('A' for Active; 'I' for Inactive)
REMARK    1  A    between atoms: C3_3  and  C4_4
REMARK    2  A    between atoms: C4_4  and  O1_5
REMARK    3  A    between atoms: C9_11  and  C10_12
REMARK    4  A    between atoms: C11_18  and  C12_19
REMARK    5  A    between atoms: C12_19  and  O2_20
REMARK    6  A    between atoms: C12_19  and  C13_22
REMARK    7  A    between atoms: C12_19  and  C15_26
REMARK    8  A    between atoms: C13_22  and  C14_23
ROOT
HETATM    1  C1  UNL     1     -11.814  -3.380 -12.497  1.00  0.00     0.051 C
HETATM    2  C2  UNL     1     -12.609  -2.371 -13.219  1.00  0.00    -0.027 A
HETATM    3  C3  UNL     1     -13.934  -2.473 -13.542  1.00  0.00     0.051 A
HETATM    4  N1  UNL     1     -14.586  -1.504 -14.206  1.00  0.00    -0.355 N
ATOM      5  H1  UNL     1     -15.574  -1.651 -14.411  1.00  0.00     0.166 HD
HETATM    6  C11 UNL     1     -14.014  -0.331 -14.626  1.00  0.00     0.084 A
HETATM    7  C21 UNL     1     -12.689  -0.215 -14.312  1.00  0.00     0.148 A
HETATM    8  F4  UNL     1     -12.002   0.855 -14.727  1.00  0.00    -0.203 F
HETATM    9  C22 UNL     1     -11.984  -1.187 -13.631  1.00  0.00    -0.013 A
HETATM   10  C23 UNL     1     -10.547  -1.023 -13.306  1.00  0.00     0.052 C
ENDROOT
BRANCH   6  11
HETATM   11  C12 UNL     1     -14.767   0.736 -15.289  1.00  0.00     0.114 C
BRANCH  11  12
HETATM   12  O2  UNL     1     -14.589   1.855 -14.376  1.00  0.00    -0.383 OA
ATOM     13  H2  UNL     1     -15.424   1.884 -13.925  1.00  0.00     0.211 HD
ENDBRANCH  11  12
BRANCH  11  14
HETATM   14  C13 UNL     1     -16.261   0.549 -15.240  1.00  0.00     0.144 C
BRANCH  14  15
HETATM   15  C14 UNL     1     -16.920   1.133 -14.051  1.00  0.00     0.234 C
HETATM   16  N2  UNL     1     -16.604   0.770 -12.709  1.00  0.00    -0.062 NA
HETATM   17  O3  UNL     1     -17.817   2.008 -14.182  1.00  0.00    -0.277 OA
ENDBRANCH  14  15
ENDBRANCH  11  14
BRANCH  11  18
HETATM   18  C15 UNL     1     -14.226   1.351 -16.509  1.00  0.00     0.027 C
HETATM   19  C16 UNL     1     -14.661   2.603 -17.099  1.00  0.00     0.008 C
HETATM   20  C17 UNL     1     -14.131   2.715 -18.544  1.00  0.00     0.000 C
HETATM   21  C18 UNL     1     -12.802   2.049 -18.622  1.00  0.00     0.000 C
HETATM   22  C19 UNL     1     -13.012   0.558 -18.544  1.00  0.00     0.000 C
HETATM   23  C20 UNL     1     -14.231   0.301 -17.638  1.00  0.00     0.008 C
ENDBRANCH  11  18
ENDBRANCH   6  11
BRANCH   3  24
HETATM   24  C4  UNL     1     -14.725  -3.660 -13.163  1.00  0.00     0.112 C
HETATM   25  C5  UNL     1     -16.153  -3.543 -13.709  1.00  0.00     0.045 C
HETATM   26  C6  UNL     1     -16.851  -4.827 -13.550  1.00  0.00     0.003 C
HETATM   27  C7  UNL     1     -16.670  -5.560 -12.269  1.00  0.00     0.001 C
HETATM   28  C8  UNL     1     -15.369  -5.378 -11.595  1.00  0.00     0.017 C
HETATM   29  C9  UNL     1     -14.796  -3.978 -11.724  1.00  0.00     0.134 C
BRANCH  24  30
HETATM   30  O1  UNL     1     -14.272  -4.824 -13.841  1.00  0.00    -0.383 OA
ATOM     31  H1  UNL     1     -13.339  -4.787 -14.010  1.00  0.00     0.211 HD
ENDBRANCH  24  30
BRANCH  29  32
HETATM   32  C10 UNL     1     -15.526  -3.009 -10.841  1.00  0.00     0.394 C
HETATM   33  F1  UNL     1     -14.844  -3.003  -9.603  1.00  0.00    -0.171 F
HETATM   34  F2  UNL     1     -16.802  -3.415 -10.483  1.00  0.00    -0.171 F
HETATM   35  F3  UNL     1     -15.477  -1.725 -11.306  1.00  0.00    -0.171 F
ENDBRANCH  29  32
ENDBRANCH   3  24
TORSDOF 8
ENDMDL