MODEL 2
REMARK VINA RESULT: -9.897398065      8.623     13.577
REMARK  5 active torsions:
REMARK  status: ('A' for Active; 'I' for Inactive)
REMARK    1  A    between atoms: C6_12  and  C7_13
REMARK    2  A    between atoms: C8_16  and  C9_17
REMARK    3  A    between atoms: C13_22  and  N4_23
REMARK    4  A    between atoms: N4_23  and  C14_25
REMARK    5  A    between atoms: C14_25  and  C15_26
ROOT
HETATM    1  C7  UNL     1     -15.202  -1.785 -13.771  1.00  0.00     0.069 A
HETATM    2  N3  UNL     1     -16.353  -1.196 -14.110  1.00  0.00    -0.339 N
ATOM      3  H3  UNL     1     -17.258  -1.666 -14.134  1.00  0.00     0.167 HD
HETATM    4  C8  UNL     1     -16.156   0.126 -14.422  1.00  0.00     0.118 A
HETATM    5  N5  UNL     1     -14.865   0.343 -14.264  1.00  0.00    -0.334 N
HETATM    6  C19 UNL     1     -14.252  -0.804 -13.870  1.00  0.00     0.041 A
HETATM    7  C20 UNL     1     -12.811  -0.985 -13.617  1.00  0.00     0.059 C
HETATM    8  C21 UNL     1     -12.129  -0.681 -14.960  1.00  0.00     0.006 C
HETATM    9  C22 UNL     1     -11.952   0.789 -15.176  1.00  0.00     0.002 C
HETATM   10  C23 UNL     1     -13.243   1.492 -15.600  1.00  0.00     0.020 C
HETATM   11  C24 UNL     1     -14.183   1.593 -14.413  1.00  0.00     0.131 C
ENDROOT
BRANCH   4  12
HETATM   12  C9  UNL     1     -17.272   1.001 -14.809  1.00  0.00     0.011 A
HETATM   13  C10 UNL     1     -16.978   2.311 -15.176  1.00  0.00     0.018 A
HETATM   14  C11 UNL     1     -17.936   3.246 -15.501  1.00  0.00     0.045 A
HETATM   15  C12 UNL     1     -19.278   2.865 -15.462  1.00  0.00     0.142 A
HETATM   16  F2  UNL     1     -20.280   3.721 -15.767  1.00  0.00    -0.204 F
HETATM   17  C13 UNL     1     -19.612   1.587 -15.105  1.00  0.00     0.068 A
HETATM   18  C18 UNL     1     -18.595   0.670 -14.781  1.00  0.00     0.047 A
BRANCH  17  19
HETATM   19  N4  UNL     1     -20.957   1.186 -15.061  1.00  0.00    -0.387 N
ATOM     20  H4  UNL     1     -21.449   1.056 -15.945  1.00  0.00     0.159 HD
BRANCH  19  21
HETATM   21  C14 UNL     1     -21.686   0.946 -13.832  1.00  0.00     0.130 C
BRANCH  21  22
HETATM   22  C15 UNL     1     -22.503  -0.305 -13.986  1.00  0.00     0.081 A
HETATM   23  C16 UNL     1     -23.934  -0.350 -13.590  1.00  0.00     0.091 A
HETATM   24  C17 UNL     1     -22.880  -1.124 -12.808  1.00  0.00     0.249 A
HETATM   25  F3  UNL     1     -22.975  -2.494 -12.888  1.00  0.00    -0.206 F
HETATM   26  F4  UNL     1     -22.513  -0.629 -11.573  1.00  0.00    -0.206 F
ENDBRANCH  21  22
ENDBRANCH  19  21
ENDBRANCH  17  19
ENDBRANCH   4  12
BRANCH   1  27
HETATM   27  C6  UNL     1     -14.994  -3.177 -13.376  1.00  0.00     0.018 A
HETATM   28  C2  UNL     1     -15.232  -3.616 -12.103  1.00  0.00     0.019 A
HETATM   29  C1  UNL     1     -15.710  -2.705 -11.025  1.00  0.00     0.069 C
HETATM   30  N1  UNL     1     -15.024  -4.938 -11.799  1.00  0.00    -0.343 N
HETATM   31  C3  UNL     1     -14.596  -5.834 -12.691  1.00  0.00     0.138 A
ATOM     32  H1  UNL     1     -15.204  -5.250 -10.845  1.00  0.00     0.167 HD
HETATM   33  N2  UNL     1     -14.420  -7.066 -12.335  1.00  0.00    -0.383 N
HETATM   34  C4  UNL     1     -14.348  -5.419 -13.981  1.00  0.00     0.160 A
ATOM     35  H22 UNL     1     -14.603  -7.373 -11.380  1.00  0.00     0.157 HD
ATOM     36  H21 UNL     1     -14.093  -7.751 -13.016  1.00  0.00     0.157 HD
HETATM   37  F1  UNL     1     -13.916  -6.330 -14.877  1.00  0.00    -0.202 F
HETATM   38  C5  UNL     1     -14.555  -4.072 -14.315  1.00  0.00     0.062 A
ENDBRANCH   1  27
TORSDOF 5
ENDMDL