MODEL 3
REMARK VINA RESULT: -9.419772326     12.286     14.984
REMARK  7 active torsions:
REMARK  status: ('A' for Active; 'I' for Inactive)
REMARK    1  A    between atoms: C7_8  and  C8_9
REMARK    2  A    between atoms: C8_9  and  N2_10
REMARK    3  A    between atoms: N2_10  and  C9_12
REMARK    4  A    between atoms: C9_12  and  C10_13
REMARK    5  A    between atoms: C13_16  and  C14_17
REMARK    6  A    between atoms: C14_17  and  O1_18
REMARK    7  A    between atoms: C22_29  and  C23_30
ROOT
HETATM    1  C1  UNL     1     -10.942  -6.265 -14.654  1.00  0.00     0.015 C
HETATM    2  C2  UNL     1     -12.054  -6.437 -15.647  1.00  0.00    -0.043 C
HETATM    3  C3  UNL     1     -11.553  -7.156 -16.867  1.00  0.00     0.015 C
HETATM    4  C4  UNL     1     -12.656  -5.108 -16.058  1.00  0.00     0.049 C
HETATM    5  C5  UNL     1     -13.401  -4.496 -14.903  1.00  0.00    -0.034 A
HETATM    6  C6  UNL     1     -13.673  -3.122 -15.028  1.00  0.00     0.105 A
HETATM    7  N1  UNL     1     -14.317  -2.438 -14.075  1.00  0.00    -0.317 N
HETATM    8  C7  UNL     1     -14.667  -1.156 -13.975  1.00  0.00     0.080 A
HETATM    9  C17 UNL     1     -15.309  -1.013 -12.736  1.00  0.00     0.099 A
HETATM   10  N3  UNL     1     -15.831   0.219 -12.268  1.00  0.00    -0.098 NA
HETATM   11  C18 UNL     1     -15.333  -2.227 -12.111  1.00  0.00     0.087 A
HETATM   12 CL1  UNL     1     -16.001  -2.616 -10.561  1.00  0.00    -0.080 Cl
HETATM   13  C19 UNL     1     -14.708  -3.108 -12.962  1.00  0.00     0.063 A
HETATM   14  C20 UNL     1     -14.442  -4.475 -12.828  1.00  0.00     0.040 A
HETATM   15  C21 UNL     1     -13.780  -5.211 -13.795  1.00  0.00    -0.035 A
HETATM   16  C22 UNL     1     -13.489  -6.629 -13.680  1.00  0.00     0.128 C
HETATM   17  C24 UNL     1     -13.143  -7.269 -15.015  1.00  0.00     0.027 C
ENDROOT
BRANCH   8  18
HETATM   18  C8  UNL     1     -14.452   0.001 -14.906  1.00  0.00     0.119 C
BRANCH  18  19
HETATM   19  N2  UNL     1     -15.518   0.361 -15.710  1.00  0.00    -0.376 N
ATOM     20  H2  UNL     1     -15.903  -0.354 -16.327  1.00  0.00     0.164 HD
BRANCH  19  21
HETATM   21  C9  UNL     1     -16.107   1.620 -15.744  1.00  0.00     0.065 C
BRANCH  21  22
HETATM   22  C10 UNL     1     -17.571   1.808 -15.806  1.00  0.00     0.024 C
HETATM   23  C11 UNL     1     -17.925   3.276 -15.387  1.00  0.00     0.010 C
HETATM   24  C12 UNL     1     -19.305   3.354 -14.844  1.00  0.00     0.007 C
HETATM   25  C13 UNL     1     -20.249   2.280 -15.282  1.00  0.00     0.009 C
HETATM   26  C15 UNL     1     -19.715   0.875 -15.097  1.00  0.00     0.007 C
HETATM   27  C16 UNL     1     -18.260   1.019 -14.692  1.00  0.00     0.010 C
BRANCH  25  28
HETATM   28  C14 UNL     1     -21.458   2.378 -14.338  1.00  0.00     0.168 C
BRANCH  28  29
HETATM   29  O1  UNL     1     -21.889   3.718 -14.269  1.00  0.00    -0.400 OA
ATOM     30  H1  UNL     1     -22.413   3.839 -13.487  1.00  0.00     0.209 HD
ENDBRANCH  28  29
ENDBRANCH  25  28
ENDBRANCH  21  22
ENDBRANCH  19  21
ENDBRANCH  18  19
ENDBRANCH   8  18
BRANCH  16  31
HETATM   31  C23 UNL     1     -14.455  -7.503 -12.964  1.00  0.00     0.395 C
HETATM   32  F1  UNL     1     -14.481  -7.428 -11.603  1.00  0.00    -0.170 F
HETATM   33  F2  UNL     1     -14.069  -8.825 -13.255  1.00  0.00    -0.170 F
HETATM   34  F3  UNL     1     -15.742  -7.417 -13.507  1.00  0.00    -0.170 F
ENDBRANCH  16  31
TORSDOF 7
ENDMDL