MODEL 3
REMARK VINA RESULT: -10.015286163      0.435      1.353
REMARK  8 active torsions:
REMARK  status: ('A' for Active; 'I' for Inactive)
REMARK    1  A    between atoms: O1_1  and  C1_3
REMARK    2  A    between atoms: C3_5  and  C4_6
REMARK    3  A    between atoms: C4_6  and  O2_7
REMARK    4  A    between atoms: C4_6  and  N1_9
REMARK    5  A    between atoms: N1_9  and  C5_11
REMARK    6  A    between atoms: N2_22  and  C16_23
REMARK    7  A    between atoms: C16_23  and  C17_24
REMARK    8  A    between atoms: C25_33  and  C26_35
ROOT
HETATM    1  C1  UNL     1     -28.013  -1.737  -7.323  1.00  0.00     0.142 A
HETATM    2  C2  UNL     1     -27.343  -1.266  -8.434  1.00  0.00     0.069 A
HETATM    3  C3  UNL     1     -27.702  -2.125  -9.445  1.00  0.00     0.009 A
HETATM    4  C15 UNL     1     -28.560  -3.070  -8.929  1.00  0.00     0.104 A
HETATM    5  N2  UNL     1     -28.745  -2.826  -7.625  1.00  0.00    -0.337 N
ENDROOT
BRANCH   3   6
HETATM    6  C4  UNL     1     -27.220  -2.029 -10.875  1.00  0.00     0.250 C
BRANCH   6   7
HETATM    7  O2  UNL     1     -28.397  -1.985 -11.664  1.00  0.00    -0.373 OA
ATOM      8  H2  UNL     1     -29.014  -1.464 -11.163  1.00  0.00     0.212 HD
ENDBRANCH   6   7
BRANCH   6   9
HETATM    9  N1  UNL     1     -26.471  -0.841 -10.974  1.00  0.00    -0.384 N
ATOM     10  H1  UNL     1     -26.796   0.007 -10.509  1.00  0.00     0.156 HD
BRANCH   9  11
HETATM   11  C5  UNL     1     -25.272  -0.823 -11.717  1.00  0.00     0.029 C
HETATM   12  C6  UNL     1     -24.712   0.553 -11.972  1.00  0.00     0.035 C
HETATM   13  C7  UNL     1     -23.514   0.412 -12.881  1.00  0.00    -0.012 C
HETATM   14  C8  UNL     1     -22.442  -0.400 -12.207  1.00  0.00     0.009 C
HETATM   15  C12 UNL     1     -23.881  -0.197 -14.213  1.00  0.00     0.009 C
HETATM   16  C9  UNL     1     -22.985  -1.798 -11.966  1.00  0.00    -0.012 C
HETATM   17  C10 UNL     1     -23.357  -2.429 -13.270  1.00  0.00     0.009 C
HETATM   18  C14 UNL     1     -24.188  -1.628 -11.052  1.00  0.00     0.035 C
HETATM   19  C11 UNL     1     -24.406  -1.577 -13.960  1.00  0.00    -0.012 C
HETATM   20  C13 UNL     1     -25.593  -1.497 -13.060  1.00  0.00     0.035 C
ENDBRANCH   9  11
ENDBRANCH   6   9
ENDBRANCH   3   6
BRANCH   1  21
HETATM   21  O1  UNL     1     -27.905  -1.125  -6.076  1.00  0.00    -0.346 OA
ATOM     22  H1  UNL     1     -28.665  -0.814  -5.598  1.00  0.00     0.219 HD
ENDBRANCH   1  21
BRANCH   5  23
HETATM   23  C16 UNL     1     -29.548  -3.557  -6.712  1.00  0.00     0.143 C
BRANCH  23  24
HETATM   24  C17 UNL     1     -28.834  -4.462  -5.792  1.00  0.00     0.083 C
HETATM   25  C18 UNL     1     -28.797  -5.838  -6.346  1.00  0.00    -0.040 A
HETATM   26  C19 UNL     1     -28.925  -6.349  -7.632  1.00  0.00     0.050 A
HETATM   27  C23 UNL     1     -28.575  -6.678  -5.277  1.00  0.00    -0.048 A
HETATM   28  C20 UNL     1     -28.830  -7.698  -7.841  1.00  0.00     0.117 A
HETATM   29  F1  UNL     1     -28.944  -8.274  -9.059  1.00  0.00    -0.206 F
HETATM   30  C21 UNL     1     -28.609  -8.531  -6.765  1.00  0.00     0.043 A
HETATM   31  C22 UNL     1     -28.481  -8.040  -5.490  1.00  0.00     0.011 A
HETATM   32  C24 UNL     1     -28.493  -5.864  -4.009  1.00  0.00     0.089 C
HETATM   33  C25 UNL     1     -29.382  -4.675  -4.437  1.00  0.00     0.174 C
HETATM   34  F2  UNL     1     -29.128  -3.590  -3.593  1.00  0.00    -0.236 F
BRANCH  33  35
HETATM   35  C26 UNL     1     -30.781  -5.133  -4.307  1.00  0.00     0.393 C
HETATM   36  F3  UNL     1     -31.543  -4.003  -3.965  1.00  0.00    -0.211 F
HETATM   37  F4  UNL     1     -31.021  -6.033  -3.290  1.00  0.00    -0.211 F
ENDBRANCH  33  35
ENDBRANCH  23  24
ENDBRANCH   5  23
TORSDOF 8
ENDMDL