MODEL 1
REMARK VINA RESULT: -8.035830160      0.000      0.000
REMARK  7 active torsions:
REMARK  status: ('A' for Active; 'I' for Inactive)
REMARK    1  A    between atoms: C2_2  and  O1_3
REMARK    2  A    between atoms: O1_3  and  C3_4
REMARK    3  A    between atoms: C7_9  and  C8_10
REMARK    4  A    between atoms: C8_10  and  C10_12
REMARK    5  A    between atoms: C13_16  and  N1_17
REMARK    6  A    between atoms: N1_17  and  C14_19
REMARK    7  A    between atoms: C17_25  and  N3_26
ROOT
HETATM    1  C10 UNL     1     -29.766  -4.764  -4.659  1.00  0.00    -0.045 A
HETATM    2  C11 UNL     1     -30.744  -5.404  -5.396  1.00  0.00     0.034 A
HETATM    3  C12 UNL     1     -30.600  -6.738  -5.780  1.00  0.00     0.063 A
HETATM    4 CL2  UNL     1     -31.892  -7.492  -6.723  1.00  0.00    -0.082 Cl
HETATM    5  C13 UNL     1     -29.479  -7.447  -5.435  1.00  0.00     0.077 A
HETATM    6  C18 UNL     1     -28.506  -6.798  -4.697  1.00  0.00     0.063 A
HETATM    7 CL4  UNL     1     -27.051  -7.639  -4.220  1.00  0.00    -0.082 Cl
HETATM    8  C19 UNL     1     -28.643  -5.465  -4.308  1.00  0.00     0.034 A
ENDROOT
BRANCH   5   9
HETATM    9  N1  UNL     1     -29.302  -8.791  -5.805  1.00  0.00    -0.339 N
ATOM     10  H1  UNL     1     -29.709  -9.504  -5.200  1.00  0.00     0.167 HD
BRANCH   9  11
HETATM   11  C14 UNL     1     -28.666  -9.191  -6.850  1.00  0.00     0.124 A
HETATM   12  C15 UNL     1     -29.249  -9.352  -8.080  1.00  0.00     0.092 A
HETATM   13  C16 UNL     1     -28.480  -9.786  -9.132  1.00  0.00     0.122 A
HETATM   14 CL3  UNL     1     -29.159 -10.017 -10.749  1.00  0.00    -0.064 Cl
HETATM   15  N2  UNL     1     -27.172 -10.047  -8.949  1.00  0.00    -0.181 N
HETATM   16  C17 UNL     1     -26.607  -9.885  -7.732  1.00  0.00     0.678 A
ATOM     17  H2  UNL     1     -26.605 -10.369  -9.733  1.00  0.00     0.185 HD
HETATM   18  N4  UNL     1     -27.360  -9.463  -6.713  1.00  0.00    -0.177 N
ATOM     19  H4  UNL     1     -26.927  -9.343  -5.798  1.00  0.00     0.185 HD
BRANCH  16  20
HETATM   20  N3  UNL     1     -25.334 -10.146  -7.579  1.00  0.00    -0.234 N
ATOM     21  H32 UNL     1     -25.016 -10.987  -7.095  1.00  0.00     0.174 HD
ATOM     22  H31 UNL     1     -24.643  -9.495  -7.953  1.00  0.00     0.174 HD
ENDBRANCH  16  20
ENDBRANCH   9  11
ENDBRANCH   5   9
BRANCH   1  23
HETATM   23  C8  UNL     1     -29.956  -3.367  -4.278  1.00  0.00     0.064 C
HETATM   24  C9  UNL     1     -29.451  -3.029  -2.896  1.00  0.00     0.021 C
BRANCH  23  25
HETATM   25  C7  UNL     1     -29.274  -2.456  -5.245  1.00  0.00     0.021 A
HETATM   26  C6  UNL     1     -29.222  -1.097  -5.033  1.00  0.00     0.049 A
HETATM   27  C5  UNL     1     -28.570  -0.309  -5.977  1.00  0.00     0.040 A
HETATM   28  C4  UNL     1     -27.991  -0.868  -7.096  1.00  0.00     0.079 A
HETATM   29 CL1  UNL     1     -28.501   1.431  -5.710  1.00  0.00    -0.084 Cl
HETATM   30  C3  UNL     1     -28.064  -2.238  -7.274  1.00  0.00     0.143 A
HETATM   31  N5  UNL     1     -28.692  -2.964  -6.355  1.00  0.00    -0.340 N
ATOM     32  H5  UNL     1     -28.739  -3.973  -6.497  1.00  0.00     0.167 HD
BRANCH  30  33
HETATM   33  O1  UNL     1     -27.470  -2.775  -8.413  1.00  0.00    -0.336 OA
BRANCH  33  34
HETATM   34  C2  UNL     1     -27.673  -2.128  -9.657  1.00  0.00     0.173 C
HETATM   35  C1  UNL     1     -26.400  -1.797 -10.368  1.00  0.00     0.034 C
ENDBRANCH  33  34
ENDBRANCH  30  33
ENDBRANCH  23  25
ENDBRANCH   1  23
TORSDOF 7
ENDMDL