MODEL 2
REMARK VINA RESULT: -8.653670988      1.284      1.564
REMARK  9 active torsions:
REMARK  status: ('A' for Active; 'I' for Inactive)
REMARK    1  A    between atoms: C2_2  and  C4_4
REMARK    2  A    between atoms: C4_4  and  C5_5
REMARK    3  A    between atoms: C4_4  and  N1_8
REMARK    4  A    between atoms: C7_11  and  C8_12
REMARK    5  A    between atoms: C8_12  and  C9_13
REMARK    6  A    between atoms: C12_16  and  O4_17
REMARK    7  A    between atoms: C13_19  and  O5_20
REMARK    8  A    between atoms: C16_24  and  C17_25
REMARK    9  A    between atoms: C22_30  and  C23_32
ROOT
HETATM    1  N1  UNL     1     -13.490   1.198 -14.188  1.00  0.00    -0.274 N
HETATM    2  C6  UNL     1     -14.276   2.112 -14.987  1.00  0.00     0.265 A
HETATM    3  O3  UNL     1     -14.151   3.315 -15.353  1.00  0.00    -0.267 OA
HETATM    4  C7  UNL     1     -15.271   1.107 -15.209  1.00  0.00     0.060 A
HETATM    5  C15 UNL     1     -14.464   0.169 -14.392  1.00  0.00     0.058 A
HETATM    6  C16 UNL     1     -14.673  -1.108 -14.115  1.00  0.00     0.031 C
ENDROOT
BRANCH   1   7
HETATM    7  C4  UNL     1     -12.214   1.361 -13.516  1.00  0.00     0.100 C
BRANCH   7   8
HETATM    8  C2  UNL     1     -11.024   0.836 -14.220  1.00  0.00     0.035 C
HETATM    9  C1  UNL     1     -11.115   1.272 -15.704  1.00  0.00     0.016 C
HETATM   10  C3  UNL     1     -10.690  -0.587 -14.217  1.00  0.00     0.016 C
ENDBRANCH   7   8
BRANCH   7  11
HETATM   11  C5  UNL     1     -12.116   2.567 -12.737  1.00  0.00     0.223 C
HETATM   12  O1  UNL     1     -12.637   2.608 -11.576  1.00  0.00    -0.643 OA
HETATM   13  O2  UNL     1     -11.489   3.741 -13.129  1.00  0.00    -0.643 OA
ENDBRANCH   7  11
ENDBRANCH   1   7
BRANCH   4  14
HETATM   14  C8  UNL     1     -16.421   1.038 -15.848  1.00  0.00     0.031 C
BRANCH  14  15
HETATM   15  C9  UNL     1     -17.630   1.730 -15.485  1.00  0.00    -0.032 A
HETATM   16  C10 UNL     1     -17.756   3.092 -15.625  1.00  0.00     0.014 A
HETATM   17  C11 UNL     1     -18.952   3.689 -15.283  1.00  0.00     0.040 A
HETATM   18  C12 UNL     1     -19.994   2.934 -14.811  1.00  0.00     0.098 A
HETATM   19  C13 UNL     1     -19.916   1.561 -14.652  1.00  0.00     0.099 A
HETATM   20  C14 UNL     1     -18.716   0.990 -14.998  1.00  0.00     0.051 A
BRANCH  18  21
HETATM   21  O4  UNL     1     -21.202   3.532 -14.466  1.00  0.00    -0.358 OA
ATOM     22  H4  UNL     1     -21.989   3.358 -14.969  1.00  0.00     0.217 HD
ENDBRANCH  18  21
BRANCH  19  23
HETATM   23  O5  UNL     1     -20.990   0.808 -14.169  1.00  0.00    -0.358 OA
ATOM     24  H5  UNL     1     -21.809   0.734 -14.644  1.00  0.00     0.217 HD
ENDBRANCH  19  23
ENDBRANCH  14  15
ENDBRANCH   4  14
BRANCH   6  25
HETATM   25  C17 UNL     1     -13.843  -2.021 -13.408  1.00  0.00     0.005 C
HETATM   26  C18 UNL     1     -14.336  -2.680 -12.323  1.00  0.00    -0.076 C
HETATM   27  C19 UNL     1     -15.707  -2.430 -11.916  1.00  0.00     0.034 C
HETATM   28  C24 UNL     1     -13.424  -3.619 -11.636  1.00  0.00     0.083 C
HETATM   29  C20 UNL     1     -16.139  -3.113 -10.687  1.00  0.00     0.008 C
HETATM   30  C21 UNL     1     -14.993  -3.301  -9.733  1.00  0.00     0.050 C
HETATM   31  C22 UNL     1     -14.000  -4.244 -10.411  1.00  0.00     0.165 C
HETATM   32  F1  UNL     1     -14.729  -5.356 -10.798  1.00  0.00    -0.237 F
BRANCH  31  33
HETATM   33  C23 UNL     1     -12.970  -4.673  -9.412  1.00  0.00     0.392 C
HETATM   34  F2  UNL     1     -12.255  -3.561  -8.964  1.00  0.00    -0.211 F
HETATM   35  F3  UNL     1     -13.554  -5.264  -8.308  1.00  0.00    -0.211 F
ENDBRANCH  31  33
ENDBRANCH   6  25
TORSDOF 9
ENDMDL