MODEL 5
REMARK VINA RESULT: -9.440073729      4.549     10.798
REMARK  6 active torsions:
REMARK  status: ('A' for Active; 'I' for Inactive)
REMARK    1  A    between atoms: C2_2  and  O1_3
REMARK    2  A    between atoms: C2_2  and  C3_6
REMARK    3  A    between atoms: C3_6  and  N1_7
REMARK    4  A    between atoms: N1_7  and  C4_10
REMARK    5  A    between atoms: C6_12  and  C7_13
REMARK    6  A    between atoms: C9_15  and  C10_16
ROOT
HETATM    1  C7  UNL     1     -28.856  -3.560  -6.980  1.00  0.00    -0.029 A
HETATM    2  C8  UNL     1     -28.142  -3.336  -8.118  1.00  0.00     0.042 A
HETATM    3  C9  UNL     1     -27.706  -2.078  -8.495  1.00  0.00     0.077 A
HETATM    4  N4  UNL     1     -27.990  -1.025  -7.715  1.00  0.00    -0.361 N
ATOM      5  H4  UNL     1     -27.668  -0.098  -7.991  1.00  0.00     0.165 HD
HETATM    6  C17 UNL     1     -28.700  -1.167  -6.559  1.00  0.00     0.113 A
HETATM    7  C18 UNL     1     -29.128  -2.444  -6.204  1.00  0.00     0.056 A
HETATM    8 CL4  UNL     1     -30.040  -2.638  -4.720  1.00  0.00    -0.082 Cl
ENDROOT
BRANCH   1   9
HETATM    9  C6  UNL     1     -29.389  -4.855  -6.534  1.00  0.00     0.024 C
HETATM   10  C5  UNL     1     -28.581  -5.684  -5.599  1.00  0.00     0.042 C
HETATM   11  C4  UNL     1     -28.718  -6.850  -6.516  1.00  0.00     0.187 C
HETATM   12  C19 UNL     1     -29.250  -5.950  -7.577  1.00  0.00     0.042 C
BRANCH  11  13
HETATM   13  N1  UNL     1     -29.674  -7.817  -5.988  1.00  0.00    -0.067 N
ATOM     14  H12 UNL     1     -30.440  -7.988  -6.638  1.00  0.00     0.277 HD
ATOM     15  H11 UNL     1     -30.215  -7.432  -5.214  1.00  0.00     0.277 HD
BRANCH  13  16
HETATM   16  C3  UNL     1     -28.993  -9.045  -5.616  1.00  0.00     0.286 C
BRANCH  16  17
HETATM   17  C2  UNL     1     -28.875  -9.065  -4.114  1.00  0.00     0.154 C
HETATM   18  C1  UNL     1     -27.399  -9.223  -3.759  1.00  0.00     0.066 C
HETATM   19 CL1  UNL     1     -29.537  -7.574  -3.411  1.00  0.00    -0.087 Cl
BRANCH  17  20
HETATM   20  O1  UNL     1     -29.581 -10.133  -3.550  1.00  0.00    -0.374 OA
ATOM     21  H1  UNL     1     -28.975 -10.655  -3.037  1.00  0.00     0.212 HD
ENDBRANCH  17  20
ENDBRANCH  16  17
ENDBRANCH  13  16
ENDBRANCH  11  13
ENDBRANCH   1   9
BRANCH   3  22
HETATM   22  C10 UNL     1     -26.963  -1.853  -9.727  1.00  0.00     0.133 A
HETATM   23  N2  UNL     1     -25.672  -1.524  -9.880  1.00  0.00    -0.339 N
HETATM   24  C11 UNL     1     -25.443  -1.415 -11.200  1.00  0.00     0.062 A
ATOM     25  H2  UNL     1     -24.990  -1.383  -9.133  1.00  0.00     0.167 HD
HETATM   26  C12 UNL     1     -24.296  -1.095 -11.915  1.00  0.00     0.057 A
HETATM   27  C16 UNL     1     -26.598  -1.676 -11.904  1.00  0.00     0.062 A
HETATM   28  C13 UNL     1     -24.279  -1.033 -13.289  1.00  0.00     0.058 A
HETATM   29 CL2  UNL     1     -22.792  -0.622 -14.141  1.00  0.00    -0.082 Cl
HETATM   30  C14 UNL     1     -25.444  -1.297 -13.975  1.00  0.00     0.058 A
HETATM   31 CL3  UNL     1     -25.457  -1.224 -15.716  1.00  0.00    -0.082 Cl
HETATM   32  C15 UNL     1     -26.587  -1.615 -13.287  1.00  0.00     0.057 A
HETATM   33  N3  UNL     1     -27.531  -1.947 -10.956  1.00  0.00    -0.339 N
ATOM     34  H3  UNL     1     -28.505  -2.185 -11.139  1.00  0.00     0.167 HD
ENDBRANCH   3  22
TORSDOF 6
ENDMDL