MODEL 1
REMARK VINA RESULT: -9.225602641      0.000      0.000
REMARK  8 active torsions:
REMARK  status: ('A' for Active; 'I' for Inactive)
REMARK    1  A    between atoms: C2_2  and  O1_3
REMARK    2  A    between atoms: C2_2  and  C3_5
REMARK    3  A    between atoms: C6_8  and  C8_10
REMARK    4  A    between atoms: C12_14  and  C13_15
REMARK    5  A    between atoms: C15_17  and  O2_18
REMARK    6  A    between atoms: C16_20  and  O3_21
REMARK    7  A    between atoms: N1_23  and  C17_24
REMARK    8  A    between atoms: C17_24  and  C18_25
ROOT
HETATM    1  C13 UNL     1     -31.022  -7.257  -6.298  1.00  0.00     0.050 A
HETATM    2  C14 UNL     1     -32.261  -7.840  -6.620  1.00  0.00     0.071 A
HETATM    3  C15 UNL     1     -32.042  -8.875  -7.469  1.00  0.00     0.119 A
HETATM    4  C16 UNL     1     -30.693  -8.942  -7.681  1.00  0.00     0.177 A
HETATM    5  N1  UNL     1     -30.094  -7.937  -6.954  1.00  0.00    -0.320 N
ENDROOT
BRANCH   1   6
HETATM    6  C12 UNL     1     -31.009  -6.113  -5.379  1.00  0.00    -0.009 A
HETATM    7  C11 UNL     1     -31.867  -6.016  -4.318  1.00  0.00     0.014 A
HETATM    8  C10 UNL     1     -31.753  -4.959  -3.419  1.00  0.00     0.002 A
HETATM    9  C9  UNL     1     -30.774  -4.026  -3.620  1.00  0.00     0.008 A
HETATM   10  C8  UNL     1     -29.891  -4.074  -4.665  1.00  0.00    -0.049 A
HETATM   11  C24 UNL     1     -30.019  -5.124  -5.541  1.00  0.00     0.021 A
BRANCH  10  12
HETATM   12  C6  UNL     1     -28.819  -3.082  -4.917  1.00  0.00    -0.017 C
HETATM   13  C5  UNL     1     -28.866  -2.699  -6.371  1.00  0.00     0.014 C
HETATM   14  C4  UNL     1     -28.243  -1.361  -6.664  1.00  0.00     0.008 C
HETATM   15  C3  UNL     1     -28.820  -0.245  -5.863  1.00  0.00     0.014 C
HETATM   16  C26 UNL     1     -29.759  -0.840  -4.837  1.00  0.00     0.008 C
HETATM   17  C25 UNL     1     -28.920  -1.864  -4.064  1.00  0.00     0.014 C
HETATM   18  C7  UNL     1     -27.484  -3.746  -4.607  1.00  0.00     0.020 C
BRANCH  15  19
HETATM   19  C2  UNL     1     -29.433   0.853  -6.662  1.00  0.00     0.118 C
HETATM   20  C1  UNL     1     -30.658   1.454  -6.106  1.00  0.00     0.040 C
BRANCH  19  21
HETATM   21  O1  UNL     1     -28.447   1.839  -6.846  1.00  0.00    -0.396 OA
ATOM     22  H1  UNL     1     -28.519   2.505  -6.173  1.00  0.00     0.210 HD
ENDBRANCH  19  21
ENDBRANCH  15  19
ENDBRANCH  10  12
ENDBRANCH   1   6
BRANCH   5  23
HETATM   23  C17 UNL     1     -28.695  -7.676  -7.092  1.00  0.00     0.176 C
BRANCH  23  24
HETATM   24  C18 UNL     1     -27.821  -8.240  -6.041  1.00  0.00     0.037 A
HETATM   25  C19 UNL     1     -27.692  -7.763  -4.775  1.00  0.00     0.130 A
HETATM   26  F1  UNL     1     -28.343  -6.661  -4.345  1.00  0.00    -0.205 F
HETATM   27  C20 UNL     1     -26.868  -8.404  -3.836  1.00  0.00     0.085 A
HETATM   28  C21 UNL     1     -26.157  -9.538  -4.144  1.00  0.00     0.122 A
HETATM   29  F2  UNL     1     -25.358 -10.146  -3.206  1.00  0.00    -0.206 F
HETATM   30  C22 UNL     1     -26.277 -10.030  -5.413  1.00  0.00     0.085 A
HETATM   31  C23 UNL     1     -27.083  -9.402  -6.327  1.00  0.00     0.130 A
HETATM   32  F3  UNL     1     -27.214  -9.967  -7.571  1.00  0.00    -0.205 F
ENDBRANCH  23  24
ENDBRANCH   5  23
BRANCH   3  33
HETATM   33  O2  UNL     1     -33.011  -9.728  -8.033  1.00  0.00    -0.357 OA
ATOM     34  H2  UNL     1     -33.063 -10.015  -8.937  1.00  0.00     0.218 HD
ENDBRANCH   3  33
BRANCH   4  35
HETATM   35  O3  UNL     1     -30.098  -9.880  -8.493  1.00  0.00    -0.344 OA
ATOM     36  H3  UNL     1     -30.212 -10.817  -8.383  1.00  0.00     0.219 HD
ENDBRANCH   4  35
TORSDOF 8
ENDMDL