MODEL 1
REMARK VINA RESULT: -8.919683541      0.000      0.000
REMARK  8 active torsions:
REMARK  status: ('A' for Active; 'I' for Inactive)
REMARK    1  A    between atoms: C2_2  and  O1_3
REMARK    2  A    between atoms: C2_2  and  C21_30
REMARK    3  A    between atoms: O1_3  and  C3_4
REMARK    4  A    between atoms: C3_4  and  C4_6
REMARK    5  A    between atoms: C4_6  and  C5_7
REMARK    6  A    between atoms: C5_7  and  N1_8
REMARK    7  A    between atoms: N1_8  and  C6_10
REMARK    8  A    between atoms: N2_21  and  O3_23
ROOT
HETATM    1  C6  UNL     1     -19.616   1.636 -15.114  1.00  0.00     0.076 C
HETATM    2  C7  UNL     1     -19.021   2.858 -15.713  1.00  0.00     0.024 C
HETATM    3  C8  UNL     1     -18.016   3.589 -14.907  1.00  0.00     0.002 C
HETATM    4  C9  UNL     1     -16.965   4.164 -15.866  1.00  0.00     0.000 C
HETATM    5  C10 UNL     1     -15.824   3.194 -16.078  1.00  0.00     0.000 C
HETATM    6  C11 UNL     1     -14.469   3.787 -15.879  1.00  0.00     0.000 C
HETATM    7  C12 UNL     1     -13.637   2.995 -14.861  1.00  0.00     0.000 C
HETATM    8  C13 UNL     1     -13.366   1.633 -15.431  1.00  0.00     0.000 C
HETATM    9  C14 UNL     1     -12.680   0.706 -14.478  1.00  0.00     0.008 C
HETATM   10  C15 UNL     1     -13.402   0.477 -13.192  1.00  0.00     0.086 C
HETATM   11  C16 UNL     1     -13.931  -0.913 -13.054  1.00  0.00     0.137 C
HETATM   12  N2  UNL     1     -13.339  -1.683 -12.205  1.00  0.00    -0.251 N
ATOM     13  H2  UNL     1     -12.550  -1.313 -11.675  1.00  0.00     0.196 HD
HETATM   14  O4  UNL     1     -15.004  -1.306 -13.823  1.00  0.00    -0.338 OA
HETATM   15  C17 UNL     1     -16.214  -0.567 -13.965  1.00  0.00     0.177 C
HETATM   16  C18 UNL     1     -16.734  -0.848 -15.341  1.00  0.00     0.027 C
HETATM   17  C19 UNL     1     -17.953  -0.049 -15.703  1.00  0.00     0.004 C
HETATM   18  C20 UNL     1     -18.584   0.661 -14.561  1.00  0.00     0.024 C
ENDROOT
BRANCH   1  19
HETATM   19  N1  UNL     1     -20.698   1.834 -14.203  1.00  0.00    -0.417 N
ATOM     20  H1  UNL     1     -20.910   2.746 -13.799  1.00  0.00     0.153 HD
BRANCH  19  21
HETATM   21  C5  UNL     1     -21.469   0.655 -13.893  1.00  0.00     0.124 C
BRANCH  21  22
HETATM   22  C4  UNL     1     -22.953   0.931 -13.881  1.00  0.00     0.130 C
BRANCH  22  23
HETATM   23  C3  UNL     1     -23.691  -0.362 -14.021  1.00  0.00     0.261 C
HETATM   24  O2  UNL     1     -24.244  -0.670 -15.130  1.00  0.00    -0.265 OA
BRANCH  23  25
HETATM   25  O1  UNL     1     -23.821  -1.285 -12.995  1.00  0.00    -0.309 OA
BRANCH  25  26
HETATM   26  C2  UNL     1     -23.792  -0.864 -11.638  1.00  0.00     0.188 C
HETATM   27  C1  UNL     1     -22.644  -1.587 -10.975  1.00  0.00     0.047 C
BRANCH  26  28
HETATM   28  C21 UNL     1     -25.080  -1.132 -10.959  1.00  0.00     0.120 A
HETATM   29  O5  UNL     1     -25.224  -1.476  -9.716  1.00  0.00    -0.321 OA
HETATM   30  C22 UNL     1     -26.479  -1.642  -9.405  1.00  0.00     0.145 A
HETATM   31  C23 UNL     1     -27.231  -1.386 -10.541  1.00  0.00     0.069 A
HETATM   32  C24 UNL     1     -26.323  -1.061 -11.524  1.00  0.00     0.150 A
HETATM   33  F1  UNL     1     -26.668  -0.735 -12.815  1.00  0.00    -0.203 F
ENDBRANCH  26  28
ENDBRANCH  25  26
ENDBRANCH  23  25
ENDBRANCH  22  23
ENDBRANCH  21  22
ENDBRANCH  19  21
ENDBRANCH   1  19
BRANCH  12  34
HETATM   34  O3  UNL     1     -13.730  -2.979 -11.987  1.00  0.00    -0.288 OA
ATOM     35  H3  UNL     1     -13.123  -3.658 -11.714  1.00  0.00     0.244 HD
ENDBRANCH  12  34
TORSDOF 8
ENDMDL