MODEL 5
REMARK VINA RESULT: -7.531797509     12.680     14.770
REMARK  8 active torsions:
REMARK  status: ('A' for Active; 'I' for Inactive)
REMARK    1  A    between atoms: O1_2  and  C2_3
REMARK    2  A    between atoms: C3_4  and  C4_5
REMARK    3  A    between atoms: C5_6  and  C6_7
REMARK    4  A    between atoms: C11_13  and  C12_14
REMARK    5  A    between atoms: C15_22  and  C16_23
REMARK    6  A    between atoms: C19_27  and  O6_28
REMARK    7  A    between atoms: C20_30  and  C21_31
REMARK    8  A    between atoms: C21_31  and  C22_32
ROOT
HETATM    1  C6  UNL     1     -15.080  -3.931 -13.143  1.00  0.00     0.005 C
HETATM    2  C7  UNL     1     -16.306  -4.861 -13.092  1.00  0.00     0.022 C
HETATM    3  C8  UNL     1     -14.325  -4.326 -14.370  1.00  0.00     0.063 C
HETATM    4  C9  UNL     1     -13.442  -5.496 -14.214  1.00  0.00     0.051 A
HETATM    5  C10 UNL     1     -12.897  -5.762 -12.979  1.00  0.00     0.196 A
HETATM    6  O2  UNL     1     -12.121  -6.800 -12.865  1.00  0.00    -0.286 OA
HETATM    7  C11 UNL     1     -11.822  -7.625 -13.877  1.00  0.00     0.099 A
HETATM    8  C13 UNL     1     -12.351  -7.384 -15.119  1.00  0.00     0.094 A
HETATM    9  C14 UNL     1     -13.196  -6.280 -15.309  1.00  0.00     0.185 A
HETATM   10  O3  UNL     1     -13.659  -6.095 -16.460  1.00  0.00    -0.288 OA
HETATM   11  O4  UNL     1     -13.211  -4.908 -11.948  1.00  0.00    -0.323 OA
HETATM   12  C15 UNL     1     -14.340  -4.095 -11.865  1.00  0.00     0.146 C
ENDROOT
BRANCH   1  13
HETATM   13  C5  UNL     1     -15.612  -2.573 -13.337  1.00  0.00    -0.012 C
HETATM   14  C4  UNL     1     -15.835  -2.106 -14.559  1.00  0.00     0.037 C
BRANCH  14  15
HETATM   15  C3  UNL     1     -16.358  -0.767 -14.775  1.00  0.00     0.112 A
HETATM   16  C2  UNL     1     -15.646   0.402 -14.726  1.00  0.00     0.113 A
HETATM   17  C20 UNL     1     -16.498   1.452 -14.985  1.00  0.00     0.040 A
HETATM   18  C19 UNL     1     -17.734   0.850 -15.188  1.00  0.00     0.193 A
HETATM   19  O5  UNL     1     -17.610  -0.458 -15.056  1.00  0.00    -0.285 OA
BRANCH  16  20
HETATM   20  O1  UNL     1     -14.291   0.486 -14.456  1.00  0.00    -0.352 OA
HETATM   21  C1  UNL     1     -13.865   0.773 -13.120  1.00  0.00     0.210 C
ENDBRANCH  16  20
BRANCH  17  22
HETATM   22  C21 UNL     1     -16.193   2.902 -15.042  1.00  0.00     0.074 C
BRANCH  22  23
HETATM   23  C22 UNL     1     -15.601   3.280 -16.362  1.00  0.00    -0.020 C
HETATM   24  C23 UNL     1     -14.379   3.773 -16.443  1.00  0.00    -0.091 C
HETATM   25  C24 UNL     1     -13.572   3.957 -15.196  1.00  0.00     0.042 C
HETATM   26  C25 UNL     1     -13.814   4.142 -17.768  1.00  0.00     0.042 C
ENDBRANCH  22  23
ENDBRANCH  17  22
BRANCH  18  27
HETATM   27  O6  UNL     1     -18.906   1.523 -15.482  1.00  0.00    -0.340 OA
ATOM     28  H6  UNL     1     -19.585   1.222 -16.074  1.00  0.00     0.220 HD
ENDBRANCH  18  27
ENDBRANCH  14  15
ENDBRANCH   1  13
BRANCH  12  29
HETATM   29  C16 UNL     1     -13.891  -2.790 -11.239  1.00  0.00     0.008 C
HETATM   30  C17 UNL     1     -14.300  -2.902  -9.761  1.00  0.00     0.012 C
HETATM   31  C18 UNL     1     -12.412  -2.603 -11.261  1.00  0.00     0.012 C
ENDBRANCH  12  29
BRANCH   7  32
HETATM   32  C12 UNL     1     -10.944  -8.736 -13.592  1.00  0.00     0.156 C
HETATM   33  N1  UNL     1     -11.009  -9.535 -12.643  1.00  0.00    -0.233 N
HETATM   34  F1  UNL     1     -11.789  -9.702 -11.623  1.00  0.00    -0.102 F
ATOM     35  H1  UNL     1     -10.264 -10.231 -12.674  1.00  0.00     0.198 HD
ENDBRANCH   7  32
TORSDOF 8
ENDMDL