MODEL 5
REMARK VINA RESULT: -7.248970874      3.364      6.524
REMARK  7 active torsions:
REMARK  status: ('A' for Active; 'I' for Inactive)
REMARK    1  A    between atoms: C2_2  and  C3_3
REMARK    2  A    between atoms: C3_3  and  C4_4
REMARK    3  A    between atoms: C4_4  and  C5_5
REMARK    4  A    between atoms: C5_5  and  C6_6
REMARK    5  A    between atoms: C7_8  and  O2_9
REMARK    6  A    between atoms: C17_24  and  C18_25
REMARK    7  A    between atoms: C17_24  and  C20_27
ROOT
HETATM    1  C6  UNL     1     -16.880   0.151 -15.067  1.00  0.00     0.068 A
HETATM    2  O1  UNL     1     -18.174  -0.055 -14.743  1.00  0.00    -0.291 OA
HETATM    3  C7  UNL     1     -18.892   0.998 -14.878  1.00  0.00     0.198 A
HETATM    4  C8  UNL     1     -18.081   2.019 -15.323  1.00  0.00     0.074 A
HETATM    5  C9  UNL     1     -18.334   3.327 -15.598  1.00  0.00     0.133 A
HETATM    6  F1  UNL     1     -19.594   3.790 -15.448  1.00  0.00    -0.205 F
HETATM    7  C10 UNL     1     -17.282   4.095 -16.003  1.00  0.00     0.061 A
HETATM    8  C11 UNL     1     -16.015   3.577 -16.134  1.00  0.00     0.051 A
HETATM    9  C12 UNL     1     -15.022   4.398 -16.592  1.00  0.00     0.266 A
HETATM   10  O3  UNL     1     -15.284   5.616 -16.823  1.00  0.00    -0.267 OA
HETATM   11  N1  UNL     1     -13.808   3.863 -16.772  1.00  0.00    -0.242 N
HETATM   12  C13 UNL     1     -13.512   2.615 -16.544  1.00  0.00     0.083 A
HETATM   13  C14 UNL     1     -14.524   1.683 -16.037  1.00  0.00     0.208 A
HETATM   14  O4  UNL     1     -14.010   0.514 -15.859  1.00  0.00    -0.285 OA
HETATM   15  C15 UNL     1     -15.745   2.231 -15.857  1.00  0.00     0.046 A
HETATM   16  C16 UNL     1     -16.811   1.442 -15.436  1.00  0.00     0.027 A
HETATM   17  C17 UNL     1     -12.212   1.943 -16.987  1.00  0.00     0.012 C
HETATM   18  C22 UNL     1     -11.353   2.960 -17.760  1.00  0.00     0.078 C
HETATM   19  C23 UNL     1     -11.447   4.294 -17.126  1.00  0.00     0.075 C
HETATM   20  N2  UNL     1     -10.429   4.874 -16.653  1.00  0.00    -0.393 N
ATOM     21  H2  UNL     1      -9.536   4.386 -16.726  1.00  0.00     0.159 HD
HETATM   22  C24 UNL     1     -10.427   6.155 -16.026  1.00  0.00     0.146 C
HETATM   23  C25 UNL     1     -12.786   4.851 -17.097  1.00  0.00     0.277 C
HETATM   24  O5  UNL     1     -13.088   6.030 -17.310  1.00  0.00    -0.265 OA
ENDROOT
BRANCH   1  25
HETATM   25  C5  UNL     1     -15.993  -0.962 -14.938  1.00  0.00     0.066 C
BRANCH  25  26
HETATM   26  C4  UNL     1     -15.666  -1.250 -13.460  1.00  0.00     0.006 C
BRANCH  26  27
HETATM   27  C3  UNL     1     -15.227  -2.592 -13.123  1.00  0.00     0.000 C
BRANCH  27  28
HETATM   28  C2  UNL     1     -15.396  -2.979 -11.669  1.00  0.00    -0.005 C
HETATM   29  C1  UNL     1     -16.041  -4.366 -11.580  1.00  0.00     0.005 C
ENDBRANCH  27  28
ENDBRANCH  26  27
ENDBRANCH  25  26
ENDBRANCH   1  25
BRANCH   3  30
HETATM   30  O2  UNL     1     -20.257   1.169 -14.636  1.00  0.00    -0.340 OA
ATOM     31  H2  UNL     1     -20.998   0.809 -15.108  1.00  0.00     0.220 HD
ENDBRANCH   3  30
BRANCH  17  32
HETATM   32  C18 UNL     1     -11.461   1.570 -15.796  1.00  0.00     0.012 C
HETATM   33  C19 UNL     1     -10.376   0.547 -15.924  1.00  0.00     0.006 C
ENDBRANCH  17  32
BRANCH  17  34
HETATM   34  C20 UNL     1     -12.578   0.962 -18.040  1.00  0.00     0.012 C
HETATM   35  C21 UNL     1     -13.048   1.469 -19.358  1.00  0.00     0.006 C
ENDBRANCH  17  34
TORSDOF 7
ENDMDL