MODEL 2
REMARK VINA RESULT: -9.801858642      1.489      1.850
REMARK  8 active torsions:
REMARK  status: ('A' for Active; 'I' for Inactive)
REMARK    1  A    between atoms: N1_2  and  C1_4
REMARK    2  A    between atoms: C4_7  and  N2_8
REMARK    3  A    between atoms: N3_10  and  C5_12
REMARK    4  A    between atoms: C9_16  and  C10_17
REMARK    5  A    between atoms: C10_17  and  C11_18
REMARK    6  A    between atoms: C11_18  and  C12_19
REMARK    7  A    between atoms: N4_26  and  O3_28
REMARK    8  A    between atoms: C18_30  and  O4_31
ROOT
HETATM    1  C5  UNL     1     -25.678  -0.865 -12.343  1.00  0.00     0.082 A
HETATM    2  C6  UNL     1     -26.212  -1.393 -13.481  1.00  0.00     0.034 A
HETATM    3  C7  UNL     1     -25.536  -1.202 -14.660  1.00  0.00     0.003 A
HETATM    4  C8  UNL     1     -24.330  -0.483 -14.689  1.00  0.00     0.016 A
HETATM    5  C9  UNL     1     -23.770   0.061 -13.555  1.00  0.00     0.024 A
HETATM    6  C18 UNL     1     -24.469  -0.146 -12.384  1.00  0.00     0.106 A
ENDROOT
BRANCH   1   7
HETATM    7  N3  UNL     1     -26.343  -1.036 -11.089  1.00  0.00    -0.298 N
HETATM    8  N2  UNL     1     -26.144  -2.058 -10.360  1.00  0.00    -0.300 N
ATOM      9  H2  UNL     1     -25.498  -2.792 -10.652  1.00  0.00     0.187 HD
ATOM     10  H3  UNL     1     -26.994  -0.319 -10.770  1.00  0.00     0.187 HD
BRANCH   8  11
HETATM   11  C4  UNL     1     -26.841  -2.152  -9.132  1.00  0.00     0.048 A
HETATM   12  C3  UNL     1     -26.869  -1.066  -8.285  1.00  0.00     0.033 A
HETATM   13  C2  UNL     1     -27.537  -1.105  -7.072  1.00  0.00     0.038 A
HETATM   14  C1  UNL     1     -28.185  -2.271  -6.720  1.00  0.00     0.103 A
HETATM   15  C20 UNL     1     -28.176  -3.374  -7.545  1.00  0.00     0.038 A
HETATM   16  C19 UNL     1     -27.505  -3.325  -8.757  1.00  0.00     0.033 A
BRANCH  14  17
HETATM   17  N1  UNL     1     -28.865  -2.298  -5.474  1.00  0.00    -0.116 N
HETATM   18  O1  UNL     1     -29.613  -3.267  -5.169  1.00  0.00    -0.532 OA
HETATM   19  O2  UNL     1     -28.757  -1.297  -4.544  1.00  0.00    -0.532 OA
ENDBRANCH  14  17
ENDBRANCH   8  11
ENDBRANCH   1   7
BRANCH   6  20
HETATM   20  O4  UNL     1     -23.991   0.357 -11.203  1.00  0.00    -0.357 OA
ATOM     21  H4  UNL     1     -23.724   1.269 -11.190  1.00  0.00     0.217 HD
ENDBRANCH   6  20
BRANCH   5  22
HETATM   22  C10 UNL     1     -22.504   0.808 -13.611  1.00  0.00     0.049 C
HETATM   23  N4  UNL     1     -22.441   2.057 -13.531  1.00  0.00    -0.272 N
ATOM     24  H4  UNL     1     -21.464   2.345 -13.595  1.00  0.00     0.194 HD
BRANCH  22  25
HETATM   25  C11 UNL     1     -21.188   0.095 -13.777  1.00  0.00     0.098 C
BRANCH  25  26
HETATM   26  C12 UNL     1     -20.208   1.099 -14.263  1.00  0.00    -0.052 A
HETATM   27  C13 UNL     1     -19.011   1.259 -13.607  1.00  0.00     0.009 A
HETATM   28  C14 UNL     1     -18.072   2.195 -14.042  1.00  0.00     0.019 A
HETATM   29  C15 UNL     1     -18.347   2.973 -15.150  1.00  0.00     0.011 A
HETATM   30 BR1  UNL     1     -17.031   4.244 -15.712  1.00  0.00    -0.051 Br
HETATM   31  C16 UNL     1     -19.542   2.821 -15.814  1.00  0.00     0.019 A
HETATM   32  C17 UNL     1     -20.470   1.875 -15.359  1.00  0.00     0.009 A
ENDBRANCH  25  26
ENDBRANCH  22  25
BRANCH  23  33
HETATM   33  O3  UNL     1     -23.181   3.109 -13.394  1.00  0.00    -0.290 OA
ATOM     34  H3  UNL     1     -24.055   3.381 -13.140  1.00  0.00     0.244 HD
ENDBRANCH  23  33
ENDBRANCH   5  22
TORSDOF 8
ENDMDL