MODEL 4
REMARK VINA RESULT: -6.481181351      1.183      1.426
REMARK  6 active torsions:
REMARK  status: ('A' for Active; 'I' for Inactive)
REMARK    1  A    between atoms: C2_2  and  C3_3
REMARK    2  A    between atoms: C3_3  and  C4_4
REMARK    3  A    between atoms: C4_4  and  C5_5
REMARK    4  A    between atoms: C5_5  and  C6_6
REMARK    5  A    between atoms: C5_5  and  N1_8
REMARK    6  A    between atoms: C11_19  and  C12_20
ROOT
HETATM    1  N1  UNL     1     -13.397  -5.062 -13.578  1.00  0.00    -0.376 N
ATOM      2  H1  UNL     1     -13.809  -5.201 -12.656  1.00  0.00     0.160 HD
HETATM    3  C7  UNL     1     -13.432  -3.882 -13.938  1.00  0.00     0.117 C
HETATM    4  S1  UNL     1     -12.766  -3.401 -15.518  1.00  0.00    -0.055 SA
HETATM    5  C8  UNL     1     -12.524  -1.649 -15.662  1.00  0.00     0.067 C
HETATM    6  N2  UNL     1     -11.546  -1.253 -16.373  1.00  0.00    -0.396 N
ATOM      7  H21 UNL     1     -11.406  -0.245 -16.456  1.00  0.00     0.156 HD
ATOM      8  H22 UNL     1     -10.989  -1.993 -16.800  1.00  0.00     0.156 HD
HETATM    9  C9  UNL     1     -13.337  -0.569 -15.040  1.00  0.00     0.177 C
HETATM   10  C10 UNL     1     -12.647   0.006 -13.914  1.00  0.00     0.073 C
HETATM   11  N3  UNL     1     -12.067   0.466 -13.012  1.00  0.00    -0.196 NA
HETATM   12  C11 UNL     1     -14.689  -1.141 -14.581  1.00  0.00     0.158 C
HETATM   13  N4  UNL     1     -14.593  -1.667 -13.267  1.00  0.00    -0.286 N
HETATM   14  C17 UNL     1     -14.049  -2.889 -13.002  1.00  0.00     0.145 A
HETATM   15  N5  UNL     1     -13.988  -3.375 -11.760  1.00  0.00    -0.344 N
ATOM     16  H5  UNL     1     -13.580  -4.291 -11.573  1.00  0.00     0.167 HD
HETATM   17  C18 UNL     1     -14.486  -2.612 -10.753  1.00  0.00     0.012 A
HETATM   18  C19 UNL     1     -14.437  -3.133  -9.347  1.00  0.00     0.068 C
HETATM   19  C20 UNL     1     -15.034  -1.388 -10.983  1.00  0.00     0.099 A
HETATM   20  C21 UNL     1     -15.085  -0.907 -12.288  1.00  0.00     0.251 A
HETATM   21  O1  UNL     1     -15.589   0.226 -12.507  1.00  0.00    -0.268 OA
ENDROOT
BRANCH  12  22
HETATM   22  C12 UNL     1     -15.723  -0.146 -14.892  1.00  0.00     0.008 A
HETATM   23  C13 UNL     1     -17.083  -0.207 -14.954  1.00  0.00     0.018 A
HETATM   24  C14 UNL     1     -17.757   0.911 -15.243  1.00  0.00     0.015 A
HETATM   25  C15 UNL     1     -17.025   2.052 -15.459  1.00  0.00    -0.021 A
HETATM   26  C16 UNL     1     -17.540   3.430 -15.797  1.00  0.00     0.056 C
HETATM   27  S2  UNL     1     -15.420   1.506 -15.248  1.00  0.00    -0.098 SA
ENDBRANCH  12  22
BRANCH   1  28
HETATM   28  C5  UNL     1     -12.928  -6.245 -14.133  1.00  0.00     0.096 C
BRANCH  28  29
HETATM   29  C4  UNL     1     -11.505  -6.647 -13.920  1.00  0.00     0.030 C
BRANCH  29  30
HETATM   30  C3  UNL     1     -10.906  -7.255 -15.189  1.00  0.00     0.028 C
BRANCH  30  31
HETATM   31  C2  UNL     1     -10.631  -8.713 -14.925  1.00  0.00    -0.037 C
HETATM   32  C1  UNL     1     -10.293  -9.111 -13.716  1.00  0.00     0.007 C
ENDBRANCH  30  31
ENDBRANCH  29  30
ENDBRANCH  28  29
BRANCH  28  33
HETATM   33  C6  UNL     1     -13.840  -7.394 -13.632  1.00  0.00     0.139 C
HETATM   34 CL1  UNL     1     -13.305  -7.931 -12.023  1.00  0.00    -0.128 Cl
ENDBRANCH  28  33
ENDBRANCH   1  28
TORSDOF 6
ENDMDL