MODEL 1
REMARK VINA RESULT: -9.139006900      0.000      0.000
REMARK  6 active torsions:
REMARK  status: ('A' for Active; 'I' for Inactive)
REMARK    1  A    between atoms: C7_7  and  N1_8
REMARK    2  A    between atoms: N1_8  and  N2_10
REMARK    3  A    between atoms: C8_11  and  C9_12
REMARK    4  A    between atoms: C9_12  and  S1_13
REMARK    5  A    between atoms: S1_13  and  C10_14
REMARK    6  A    between atoms: C11_19  and  C12_20
ROOT
HETATM    1  N2  UNL     1     -28.085  -4.084  -7.260  1.00  0.00    -0.218 N
HETATM    2  C8  UNL     1     -27.284  -3.683  -8.303  1.00  0.00     0.130 A
HETATM    3  N5  UNL     1     -26.901  -4.774  -8.950  1.00  0.00    -0.284 N
ATOM      4  H5  UNL     1     -26.298  -4.796  -9.773  1.00  0.00     0.188 HD
HETATM    5  N6  UNL     1     -27.418  -5.815  -8.364  1.00  0.00    -0.273 N
ATOM      6  H6  UNL     1     -27.284  -6.782  -8.658  1.00  0.00     0.189 HD
HETATM    7  C18 UNL     1     -28.170  -5.414  -7.295  1.00  0.00     0.213 A
HETATM    8  S3  UNL     1     -28.951  -6.455  -6.283  1.00  0.00    -0.037 SA
ENDROOT
BRANCH   2   9
HETATM    9  C9  UNL     1     -26.935  -2.251  -8.628  1.00  0.00     0.161 C
BRANCH   9  10
HETATM   10  S1  UNL     1     -27.421  -1.806 -10.312  1.00  0.00    -0.102 SA
BRANCH  10  11
HETATM   11  C10 UNL     1     -26.082  -1.123 -11.254  1.00  0.00     0.106 A
HETATM   12  N3  UNL     1     -25.038  -0.582 -10.621  1.00  0.00    -0.292 N
HETATM   13  N4  UNL     1     -24.026  -0.066 -11.272  1.00  0.00    -0.299 N
ATOM     14  H3  UNL     1     -25.028  -0.570  -9.601  1.00  0.00     0.187 HD
HETATM   15  C11 UNL     1     -23.932  -0.028 -12.610  1.00  0.00     0.060 A
ATOM     16  H4  UNL     1     -23.261   0.333 -10.728  1.00  0.00     0.187 HD
HETATM   17  C16 UNL     1     -24.989  -0.577 -13.303  1.00  0.00     0.058 A
HETATM   18  C17 UNL     1     -26.078  -1.131 -12.628  1.00  0.00     0.071 A
HETATM   19 CL1  UNL     1     -27.404  -1.821 -13.540  1.00  0.00    -0.081 Cl
BRANCH  15  20
HETATM   20  C12 UNL     1     -22.756   0.572 -13.295  1.00  0.00    -0.001 A
HETATM   21  C13 UNL     1     -21.698  -0.156 -13.670  1.00  0.00     0.021 A
HETATM   22  C14 UNL     1     -20.672   0.505 -14.290  1.00  0.00     0.050 A
HETATM   23  S2  UNL     1     -21.217   2.118 -14.328  1.00  0.00    -0.113 SA
HETATM   24  C15 UNL     1     -22.725   1.914 -13.560  1.00  0.00     0.063 A
ENDBRANCH  15  20
ENDBRANCH  10  11
ENDBRANCH   9  10
ENDBRANCH   2   9
BRANCH   1  25
HETATM   25  N1  UNL     1     -28.636  -3.209  -6.334  1.00  0.00    -0.321 N
ATOM     26  H1  UNL     1     -29.344  -2.584  -6.721  1.00  0.00     0.181 HD
BRANCH  25  27
HETATM   27  C7  UNL     1     -28.393  -3.024  -4.945  1.00  0.00     0.103 C
HETATM   28  C2  UNL     1     -29.357  -2.047  -4.354  1.00  0.00     0.006 C
HETATM   29  C1  UNL     1     -29.564  -2.354  -2.848  1.00  0.00     0.012 C
HETATM   30  C3  UNL     1     -28.939  -0.620  -4.376  1.00  0.00     0.006 C
HETATM   31  C4  UNL     1     -27.876  -0.373  -5.389  1.00  0.00     0.001 C
HETATM   32  C5  UNL     1     -26.682  -1.187  -5.001  1.00  0.00     0.002 C
HETATM   33  C6  UNL     1     -26.949  -2.632  -4.743  1.00  0.00     0.027 C
ENDBRANCH  25  27
ENDBRANCH   1  25
TORSDOF 6
ENDMDL