MODEL 2
REMARK VINA RESULT: -8.988485526      9.031     13.653
REMARK  10 active torsions:
REMARK  status: ('A' for Active; 'I' for Inactive)
REMARK    1  A    between atoms: O1_2  and  C2_3
REMARK    2  A    between atoms: C2_3  and  C3_5
REMARK    3  A    between atoms: C5_7  and  C6_8
REMARK    4  A    between atoms: C11_16  and  O6_17
REMARK    5  A    between atoms: C12_19  and  C13_20
REMARK    6  A    between atoms: C13_20  and  C14_21
REMARK    7  A    between atoms: C15_22  and  C17_24
REMARK    8  A    between atoms: C17_24  and  C18_25
REMARK    9  A    between atoms: C18_25  and  C19_26
REMARK   10  A    between atoms: C25_32  and  O7_33
ROOT
HETATM    1  C3  UNL     1     -27.996  -3.947  -4.843  1.00  0.00     0.073 A
HETATM    2  C4  UNL     1     -28.442  -5.046  -5.545  1.00  0.00     0.033 A
HETATM    3  C5  UNL     1     -28.662  -4.989  -6.900  1.00  0.00     0.015 A
HETATM    4  C11 UNL     1     -28.423  -3.798  -7.553  1.00  0.00     0.084 A
HETATM    5  C12 UNL     1     -27.971  -2.646  -6.905  1.00  0.00     0.013 A
HETATM    6  C25 UNL     1     -27.767  -2.757  -5.546  1.00  0.00     0.091 A
ENDROOT
BRANCH   5   7
HETATM    7  C13 UNL     1     -27.752  -1.395  -7.680  1.00  0.00     0.072 C
BRANCH   7   8
HETATM    8  C14 UNL     1     -26.492  -1.370  -8.430  1.00  0.00    -0.020 C
HETATM    9  C15 UNL     1     -26.413  -1.236  -9.743  1.00  0.00    -0.087 C
HETATM   10  C16 UNL     1     -27.591  -1.092 -10.637  1.00  0.00     0.043 C
BRANCH   9  11
HETATM   11  C17 UNL     1     -25.042  -1.233 -10.372  1.00  0.00     0.034 C
BRANCH  11  12
HETATM   12  C18 UNL     1     -24.994  -2.145 -11.573  1.00  0.00     0.009 C
BRANCH  12  13
HETATM   13  C19 UNL     1     -24.083  -1.629 -12.634  1.00  0.00    -0.014 C
HETATM   14  C20 UNL     1     -23.152  -0.594 -12.006  1.00  0.00     0.004 C
HETATM   15  C21 UNL     1     -22.070  -0.342 -13.045  1.00  0.00     0.000 C
HETATM   16  C22 UNL     1     -22.718   0.351 -14.210  1.00  0.00     0.000 C
HETATM   17  C23 UNL     1     -23.917  -0.343 -14.757  1.00  0.00     0.000 C
HETATM   18  C24 UNL     1     -24.827  -0.934 -13.731  1.00  0.00     0.004 C
ENDBRANCH  12  13
ENDBRANCH  11  12
ENDBRANCH   9  11
ENDBRANCH   7   8
ENDBRANCH   5   7
BRANCH   4  19
HETATM   19  O6  UNL     1     -28.649  -3.776  -8.899  1.00  0.00    -0.359 OA
ATOM     20  H6  UNL     1     -28.452  -2.966  -9.355  1.00  0.00     0.217 HD
ENDBRANCH   4  19
BRANCH   6  21
HETATM   21  O7  UNL     1     -27.323  -1.696  -4.805  1.00  0.00    -0.359 OA
ATOM     22  H7  UNL     1     -26.695  -1.123  -5.230  1.00  0.00     0.217 HD
ENDBRANCH   6  21
BRANCH   3  23
HETATM   23  C6  UNL     1     -29.142  -6.176  -7.649  1.00  0.00     0.260 C
HETATM   24  O3  UNL     1     -29.869  -7.057  -6.871  1.00  0.00    -0.335 OA
HETATM   25  C7  UNL     1     -29.467  -8.336  -7.162  1.00  0.00     0.167 C
HETATM   26  C8  UNL     1     -30.586  -9.220  -7.634  1.00  0.00     0.079 C
HETATM   27  C9  UNL     1     -28.884  -8.940  -5.893  1.00  0.00     0.079 C
HETATM   28  O4  UNL     1     -28.470  -8.293  -8.145  1.00  0.00    -0.282 OA
HETATM   29  C10 UNL     1     -28.007  -6.969  -8.198  1.00  0.00     0.295 C
HETATM   30  O5  UNL     1     -26.916  -6.545  -8.604  1.00  0.00    -0.262 OA
ENDBRANCH   3  23
BRANCH   1  31
HETATM   31  C2  UNL     1     -27.777  -4.049  -3.418  1.00  0.00     0.295 C
HETATM   32  O2  UNL     1     -27.291  -5.097  -2.949  1.00  0.00    -0.259 OA
BRANCH  31  33
HETATM   33  O1  UNL     1     -28.097  -3.010  -2.579  1.00  0.00    -0.322 OA
HETATM   34  C1  UNL     1     -29.312  -2.968  -1.820  1.00  0.00     0.213 C
ENDBRANCH  31  33
ENDBRANCH   1  31
TORSDOF 10
ENDMDL