MODEL 3
REMARK VINA RESULT: -6.610827357      3.082      7.180
REMARK  10 active torsions:
REMARK  status: ('A' for Active; 'I' for Inactive)
REMARK    1  A    between atoms: C2_2  and  N1_3
REMARK    2  A    between atoms: N1_3  and  C3_4
REMARK    3  A    between atoms: N1_3  and  C5_6
REMARK    4  A    between atoms: C5_6  and  C6_7
REMARK    5  A    between atoms: C6_7  and  C7_8
REMARK    6  A    between atoms: C7_8  and  N2_9
REMARK    7  A    between atoms: C8_10  and  O1_11
REMARK    8  A    between atoms: C9_13  and  N3_14
REMARK       I    between atoms: N4_16  and  C10_18
REMARK    9  A    between atoms: C10_18  and  C11_20
REMARK   10  A    between atoms: C20_31  and  O3_32
ROOT
HETATM    1  N2  UNL     1     -15.094  -3.262 -12.503  1.00  0.00    -0.323 N
HETATM    2  C8  UNL     1     -15.562  -2.683 -13.641  1.00  0.00     0.172 A
HETATM    3  C9  UNL     1     -14.700  -1.716 -14.098  1.00  0.00     0.112 A
HETATM    4  C15 UNL     1     -13.644  -1.688 -13.209  1.00  0.00     0.028 A
HETATM    5  C16 UNL     1     -12.555  -0.835 -13.315  1.00  0.00     0.040 C
HETATM    6  C17 UNL     1     -11.285  -1.032 -12.827  1.00  0.00     0.036 C
HETATM    7 CL1  UNL     1     -10.042   0.029 -13.424  1.00  0.00    -0.084 Cl
HETATM    8  C18 UNL     1     -10.896  -1.997 -11.900  1.00  0.00     0.050 C
HETATM    9  C19 UNL     1     -11.710  -2.718 -11.060  1.00  0.00     0.068 C
HETATM   10  S1  UNL     1     -10.996  -3.393  -9.755  1.00  0.00    -0.077 SA
HETATM   11  C20 UNL     1     -13.075  -2.952 -11.177  1.00  0.00     0.115 C
HETATM   12  C21 UNL     1     -13.931  -2.660 -12.245  1.00  0.00     0.084 A
ENDROOT
BRANCH   3  13
HETATM   13  N3  UNL     1     -14.812  -0.888 -15.229  1.00  0.00    -0.293 N
HETATM   14  N4  UNL     1     -15.484   0.150 -15.363  1.00  0.00    -0.269 N
HETATM   15  C10 UNL     1     -16.315   0.773 -14.411  1.00  0.00     0.243 C
ATOM     16  H4  UNL     1     -15.427   0.605 -16.274  1.00  0.00     0.190 HD
HETATM   17  O2  UNL     1     -16.125   0.687 -13.172  1.00  0.00    -0.271 OA
ATOM     18  H3  UNL     1     -14.272  -1.176 -16.045  1.00  0.00     0.187 HD
BRANCH  15  19
HETATM   19  C11 UNL     1     -17.502   1.594 -14.847  1.00  0.00     0.032 C
HETATM   20  C12 UNL     1     -18.572   0.694 -15.372  1.00  0.00     0.025 C
HETATM   21  C13 UNL     1     -18.043   2.346 -13.627  1.00  0.00     0.025 C
HETATM   22  C14 UNL     1     -17.103   2.621 -15.857  1.00  0.00     0.025 C
ENDBRANCH  15  19
ENDBRANCH   3  13
BRANCH   2  23
HETATM   23  O1  UNL     1     -16.762  -3.049 -14.231  1.00  0.00    -0.344 OA
ATOM     24  H1  UNL     1     -17.147  -3.911 -14.121  1.00  0.00     0.219 HD
ENDBRANCH   2  23
BRANCH   1  25
HETATM   25  C7  UNL     1     -15.734  -4.324 -11.761  1.00  0.00     0.133 C
BRANCH  25  26
HETATM   26  C6  UNL     1     -15.805  -5.634 -12.509  1.00  0.00     0.040 C
BRANCH  26  27
HETATM   27  C5  UNL     1     -14.455  -6.310 -12.343  1.00  0.00     0.123 C
BRANCH  27  28
HETATM   28  N1  UNL     1     -13.929  -6.878 -13.525  1.00  0.00    -0.394 N
BRANCH  28  29
HETATM   29  C2  UNL     1     -13.735  -6.047 -14.645  1.00  0.00     0.117 C
HETATM   30  C1  UNL     1     -12.486  -5.196 -14.383  1.00  0.00     0.026 C
ENDBRANCH  28  29
BRANCH  28  31
HETATM   31  C3  UNL     1     -13.217  -8.084 -13.450  1.00  0.00     0.053 C
HETATM   32  C4  UNL     1     -12.879  -8.575 -12.065  1.00  0.00     0.054 C
ENDBRANCH  28  31
ENDBRANCH  27  28
ENDBRANCH  26  27
ENDBRANCH  25  26
ENDBRANCH   1  25
BRANCH  11  33
HETATM   33  O3  UNL     1     -13.686  -3.557 -10.097  1.00  0.00    -0.357 OA
ATOM     34  H3  UNL     1     -14.625  -3.682 -10.161  1.00  0.00     0.218 HD
ENDBRANCH  11  33
TORSDOF 10
ENDMDL