MODEL 4
REMARK VINA RESULT: -7.452360203      2.942      5.374
REMARK  7 active torsions:
REMARK  status: ('A' for Active; 'I' for Inactive)
REMARK    1  A    between atoms: C2_2  and  O1_3
REMARK    2  A    between atoms: O1_3  and  C3_4
REMARK    3  A    between atoms: C3_4  and  C4_5
REMARK    4  A    between atoms: C5_6  and  C6_7
REMARK    5  A    between atoms: C10_11  and  C11_13
REMARK       I    between atoms: C11_13  and  N1_15
REMARK    6  A    between atoms: C13_17  and  N2_18
REMARK    7  A    between atoms: N3_20  and  O3_22
ROOT
HETATM    1  C3  UNL     1     -12.889  -5.249 -12.125  1.00  0.00     0.113 C
HETATM    2  C9  UNL     1     -14.119  -4.825 -11.512  1.00  0.00     0.007 C
HETATM    3  C10 UNL     1     -15.214  -4.372 -12.001  1.00  0.00     0.192 C
HETATM    4  F1  UNL     1     -16.200  -4.109 -10.997  1.00  0.00    -0.200 F
HETATM    5  C14 UNL     1     -14.202  -4.660  -9.982  1.00  0.00     0.022 C
HETATM    6  C15 UNL     1     -14.188  -3.150  -9.724  1.00  0.00     0.010 C
HETATM    7  C16 UNL     1     -13.105  -2.587 -10.595  1.00  0.00     0.007 C
HETATM    8  C17 UNL     1     -11.897  -3.451 -10.627  1.00  0.00     0.005 C
HETATM    9  C18 UNL     1     -11.764  -4.446  -9.506  1.00  0.00    -0.039 C
HETATM   10  C19 UNL     1     -11.237  -3.670  -8.287  1.00  0.00     0.015 C
HETATM   11  C20 UNL     1     -10.628  -5.325  -9.971  1.00  0.00     0.010 C
HETATM   12  C21 UNL     1     -10.461  -5.081 -11.446  1.00  0.00     0.014 C
HETATM   13  C22 UNL     1     -11.721  -4.278 -11.829  1.00  0.00    -0.001 C
HETATM   14  C23 UNL     1     -11.412  -3.370 -12.989  1.00  0.00     0.019 C
HETATM   15  C24 UNL     1     -13.039  -5.174  -9.217  1.00  0.00     0.019 C
ENDROOT
BRANCH   1  16
HETATM   16  O1  UNL     1     -12.452  -6.407 -11.383  1.00  0.00    -0.371 OA
BRANCH  16  17
HETATM   17  C2  UNL     1     -13.017  -7.583 -11.659  1.00  0.00     0.165 C
HETATM   18  C1  UNL     1     -11.986  -8.747 -11.659  1.00  0.00     0.033 C
ENDBRANCH  16  17
ENDBRANCH   1  16
BRANCH   1  19
HETATM   19  C4  UNL     1     -12.732  -5.648 -13.500  1.00  0.00     0.013 C
HETATM   20  C5  UNL     1     -13.397  -6.442 -14.299  1.00  0.00    -0.024 C
BRANCH  20  21
HETATM   21  C6  UNL     1     -13.033  -6.701 -15.702  1.00  0.00    -0.000 C
HETATM   22  C7  UNL     1     -13.012  -5.330 -16.395  1.00  0.00     0.013 C
HETATM   23  C8  UNL     1     -11.618  -7.239 -15.853  1.00  0.00     0.013 C
ENDBRANCH  20  21
ENDBRANCH   1  19
BRANCH   3  24
HETATM   24  C11 UNL     1     -15.687  -3.873 -13.257  1.00  0.00     0.306 C
HETATM   25  O2  UNL     1     -16.238  -4.555 -14.131  1.00  0.00    -0.263 OA
HETATM   26  N1  UNL     1     -15.566  -2.480 -13.642  1.00  0.00    -0.211 N
HETATM   27  C12 UNL     1     -15.957  -1.884 -14.768  1.00  0.00     0.172 A
HETATM   28  N5  UNL     1     -15.016  -1.587 -12.851  1.00  0.00    -0.232 N
HETATM   29  C13 UNL     1     -15.625  -0.553 -14.653  1.00  0.00     0.155 A
HETATM   30  N4  UNL     1     -15.048  -0.414 -13.456  1.00  0.00    -0.268 N
ATOM     31  H4  UNL     1     -14.689   0.459 -13.071  1.00  0.00     0.190 HD
ATOM     32  H5  UNL     1     -14.630  -1.769 -11.924  1.00  0.00     0.209 HD
BRANCH  29  33
HETATM   33  N2  UNL     1     -15.875   0.437 -15.652  1.00  0.00    -0.264 N
HETATM   34  N3  UNL     1     -14.956   0.915 -16.379  1.00  0.00    -0.208 N
ATOM     35  H3  UNL     1     -15.177   1.621 -17.081  1.00  0.00     0.215 HD
ATOM     36  H2  UNL     1     -16.830   0.771 -15.785  1.00  0.00     0.190 HD
BRANCH  34  37
HETATM   37  O3  UNL     1     -13.656   0.482 -16.222  1.00  0.00    -0.274 OA
ATOM     38  H3  UNL     1     -13.119   0.303 -16.984  1.00  0.00     0.246 HD
ENDBRANCH  34  37
ENDBRANCH  29  33
ENDBRANCH   3  24
TORSDOF 7
ENDMDL