MODEL 2
REMARK VINA RESULT: -6.765796092      3.720      6.456
REMARK  6 active torsions:
REMARK  status: ('A' for Active; 'I' for Inactive)
REMARK    1  A    between atoms: C2_2  and  S1_7
REMARK    2  A    between atoms: C3_3  and  C4_4
REMARK    3  A    between atoms: S1_7  and  C5_8
REMARK    4  A    between atoms: C6_10  and  C7_11
REMARK    5  A    between atoms: C7_11  and  C8_13
REMARK    6  A    between atoms: C11_16  and  N1_17
ROOT
HETATM    1  C5  UNL     1     -14.174   1.660 -15.871  1.00  0.00     0.069 A
HETATM    2  S2  UNL     1     -15.805   2.133 -15.913  1.00  0.00    -0.075 SA
HETATM    3  C6  UNL     1     -16.528   0.674 -15.422  1.00  0.00     0.080 A
HETATM    4  C11 UNL     1     -15.461  -0.164 -15.233  1.00  0.00     0.077 A
HETATM    5  C17 UNL     1     -14.229   0.357 -15.470  1.00  0.00     0.096 A
HETATM    6  C18 UNL     1     -12.969  -0.395 -15.320  1.00  0.00     0.103 C
HETATM    7  N3  UNL     1     -11.985  -1.006 -15.192  1.00  0.00    -0.191 NA
ENDROOT
BRANCH   1   8
HETATM    8  S1  UNL     1     -12.740   2.676 -16.272  1.00  0.00    -0.086 SA
BRANCH   8   9
HETATM    9  C2  UNL     1     -11.773   2.860 -14.781  1.00  0.00    -0.014 C
HETATM   10  C1  UNL     1     -10.366   2.348 -14.718  1.00  0.00     0.056 C
HETATM   11  C3  UNL     1     -12.314   3.449 -13.745  1.00  0.00     0.098 C
BRANCH  11  12
HETATM   12  C4  UNL     1     -11.665   3.676 -12.467  1.00  0.00     0.199 C
HETATM   13  O1  UNL     1     -12.025   3.029 -11.425  1.00  0.00    -0.644 OA
HETATM   14  O2  UNL     1     -10.646   4.578 -12.301  1.00  0.00    -0.644 OA
ENDBRANCH  11  12
ENDBRANCH   8   9
ENDBRANCH   1   8
BRANCH   4  15
HETATM   15  N1  UNL     1     -15.680  -1.544 -14.798  1.00  0.00    -0.339 N
HETATM   16  C12 UNL     1     -15.457  -1.870 -13.573  1.00  0.00     0.123 A
HETATM   17  N2  UNL     1     -15.028  -0.928 -12.723  1.00  0.00    -0.350 N
HETATM   18  C16 UNL     1     -15.647  -3.153 -13.113  1.00  0.00     0.057 A
HETATM   19  C13 UNL     1     -14.773  -1.205 -11.413  1.00  0.00     0.113 A
ATOM     20  H2  UNL     1     -14.888   0.022 -13.066  1.00  0.00     0.166 HD
HETATM   21  C14 UNL     1     -14.965  -2.499 -10.954  1.00  0.00     0.050 A
HETATM   22 CL1  UNL     1     -14.622  -2.814  -9.247  1.00  0.00    -0.083 Cl
HETATM   23  C15 UNL     1     -15.405  -3.504 -11.790  1.00  0.00     0.048 A
HETATM   24  S3  UNL     1     -16.223  -4.426 -14.248  1.00  0.00    -0.049 SA
ATOM     25  H1  UNL     1     -16.008  -2.245 -15.463  1.00  0.00     0.167 HD
ENDBRANCH   4  15
BRANCH   3  26
HETATM   26  C7  UNL     1     -17.967   0.351 -15.232  1.00  0.00     0.172 C
HETATM   27  O3  UNL     1     -18.435  -0.753 -15.533  1.00  0.00    -0.291 OA
BRANCH  26  28
HETATM   28  C8  UNL     1     -18.794   1.441 -14.659  1.00  0.00     0.053 C
HETATM   29  C9  UNL     1     -20.229   0.985 -14.440  1.00  0.00     0.018 C
HETATM   30  C10 UNL     1     -18.181   2.049 -13.442  1.00  0.00     0.018 C
ENDBRANCH  26  28
ENDBRANCH   3  26
TORSDOF 6
ENDMDL