MODEL 3
REMARK VINA RESULT: -8.045797965      1.187      1.838
REMARK  8 active torsions:
REMARK  status: ('A' for Active; 'I' for Inactive)
REMARK    1  A    between atoms: C2_2  and  N1_4
REMARK       I    between atoms: N1_4  and  C4_6
REMARK    2  A    between atoms: C4_6  and  C5_8
REMARK    3  A    between atoms: C8_11  and  C9_12
REMARK    4  A    between atoms: C9_12  and  C10_13
REMARK       I    between atoms: C10_13  and  N2_15
REMARK    5  A    between atoms: C12_17  and  N3_18
REMARK    6  A    between atoms: C13_22  and  C14_23
REMARK    7  A    between atoms: C14_23  and  O4_25
REMARK    8  A    between atoms: O4_25  and  C15_26
ROOT
HETATM    1  C10 UNL     1      35.572 -20.340  56.114  1.00  0.00     0.220 C
HETATM    2  O2  UNL     1      36.740 -20.215  55.687  1.00  0.00    -0.273 OA
HETATM    3  N2  UNL     1      34.706 -19.226  56.037  1.00  0.00    -0.349 N
HETATM    4  C11 UNL     1      35.062 -17.930  55.497  1.00  0.00     0.159 C
HETATM    5  C12 UNL     1      34.010 -17.006  56.128  1.00  0.00     0.216 C
HETATM    6  C13 UNL     1      32.796 -17.891  56.069  1.00  0.00     0.135 C
HETATM    7  C19 UNL     1      33.335 -19.225  56.488  1.00  0.00     0.142 C
ENDROOT
BRANCH   1   8
HETATM    8  C9  UNL     1      35.082 -21.592  56.684  1.00  0.00     0.107 C
BRANCH   8   9
HETATM    9  C8  UNL     1      35.199 -21.762  58.157  1.00  0.00    -0.006 C
HETATM   10  C7  UNL     1      36.502 -22.563  58.372  1.00  0.00     0.006 C
HETATM   11  C6  UNL     1      36.406 -23.333  59.668  1.00  0.00     0.014 C
HETATM   12  C5  UNL     1      35.703 -22.443  60.665  1.00  0.00     0.078 C
HETATM   13  C21 UNL     1      34.227 -22.411  60.289  1.00  0.00     0.014 C
HETATM   14  C20 UNL     1      34.052 -22.530  58.790  1.00  0.00     0.006 C
BRANCH  12  15
HETATM   15  C4  UNL     1      35.904 -22.919  62.060  1.00  0.00     0.222 C
HETATM   16  N1  UNL     1      36.560 -24.141  62.312  1.00  0.00    -0.357 N
ATOM     17  H1  UNL     1      36.897 -24.699  61.528  1.00  0.00     0.162 HD
HETATM   18  O1  UNL     1      35.464 -22.182  62.996  1.00  0.00    -0.273 OA
BRANCH  16  19
HETATM   19  C2  UNL     1      36.761 -24.616  63.656  1.00  0.00     0.076 C
HETATM   20  C1  UNL     1      38.242 -24.718  63.901  1.00  0.00     0.032 C
HETATM   21  C3  UNL     1      36.073 -25.968  63.878  1.00  0.00     0.032 C
ENDBRANCH  16  19
ENDBRANCH  12  15
ENDBRANCH   8   9
ENDBRANCH   1   8
BRANCH   5  22
HETATM   22  N3  UNL     1      34.411 -16.744  57.494  1.00  0.00    -0.073 N
ATOM     23  H33 UNL     1      33.901 -17.310  58.171  1.00  0.00     0.274 HD
ATOM     24  H32 UNL     1      35.347 -17.091  57.705  1.00  0.00     0.274 HD
ATOM     25  H31 UNL     1      34.315 -15.743  57.661  1.00  0.00     0.274 HD
ENDBRANCH   5  22
BRANCH   6  26
HETATM   26  C14 UNL     1      31.694 -17.418  56.941  1.00  0.00     0.267 C
HETATM   27  O3  UNL     1      31.652 -17.617  58.166  1.00  0.00    -0.265 OA
BRANCH  26  28
HETATM   28  O4  UNL     1      30.668 -16.723  56.345  1.00  0.00    -0.311 OA
BRANCH  28  29
HETATM   29  C15 UNL     1      29.374 -17.197  56.143  1.00  0.00     0.060 C
HETATM   30  C16 UNL     1      28.724 -17.522  57.470  1.00  0.00     0.045 C
HETATM   31  C17 UNL     1      28.602 -16.091  55.419  1.00  0.00     0.045 C
HETATM   32  C18 UNL     1      29.295 -18.417  55.269  1.00  0.00     0.045 C
ENDBRANCH  28  29
ENDBRANCH  26  28
ENDBRANCH   6  26
TORSDOF 8
ENDMDL