MODEL 2
REMARK VINA RESULT: -9.776238420      2.942      5.035
REMARK  5 active torsions:
REMARK  status: ('A' for Active; 'I' for Inactive)
REMARK       I    between atoms: C1_2  and  N1_3
REMARK    1  A    between atoms: C1_2  and  C8_12
REMARK    2  A    between atoms: N1_3  and  C2_5
REMARK    3  A    between atoms: C2_5  and  C3_6
REMARK    4  A    between atoms: C11_15  and  C12_16
REMARK    5  A    between atoms: C12_16  and  C13_17
REMARK       I    between atoms: C13_17  and  N2_19
ROOT
HETATM    1  C8  UNL     1      33.382 -23.213  60.225  1.00  0.00     0.078 C
HETATM    2  C9  UNL     1      31.979 -22.727  60.021  1.00  0.00     0.014 C
HETATM    3  C10 UNL     1      31.900 -21.556  59.066  1.00  0.00     0.006 C
HETATM    4  C11 UNL     1      32.811 -20.494  59.629  1.00  0.00    -0.006 C
HETATM    5  C19 UNL     1      34.219 -20.973  59.409  1.00  0.00     0.006 C
HETATM    6  C20 UNL     1      34.422 -22.159  60.337  1.00  0.00     0.014 C
ENDROOT
BRANCH   4   7
HETATM    7  C12 UNL     1      32.524 -19.149  59.088  1.00  0.00     0.107 C
BRANCH   7   8
HETATM    8  C13 UNL     1      31.143 -18.680  59.157  1.00  0.00     0.220 C
HETATM    9  O3  UNL     1      30.487 -18.601  60.235  1.00  0.00    -0.273 OA
HETATM   10  N2  UNL     1      30.481 -18.289  57.967  1.00  0.00    -0.346 N
HETATM   11  C14 UNL     1      31.209 -18.371  56.729  1.00  0.00     0.132 C
HETATM   12  C18 UNL     1      29.115 -17.827  58.061  1.00  0.00     0.186 C
HETATM   13  C15 UNL     1      30.323 -18.378  55.518  1.00  0.00     0.080 C
HETATM   14  C16 UNL     1      29.189 -17.444  55.606  1.00  0.00     0.054 A
HETATM   15  N3  UNL     1      28.498 -16.704  54.716  1.00  0.00    -0.288 N
HETATM   16  C17 UNL     1      28.630 -17.199  56.830  1.00  0.00     0.069 A
HETATM   17  N4  UNL     1      27.563 -16.034  55.336  1.00  0.00    -0.242 N
ATOM     18  H3  UNL     1      28.678 -16.672  53.713  1.00  0.00     0.188 HD
HETATM   19  N5  UNL     1      27.641 -16.333  56.621  1.00  0.00    -0.287 N
ATOM     20  H4  UNL     1      26.893 -15.397  54.905  1.00  0.00     0.208 HD
ATOM     21  H5  UNL     1      27.033 -15.954  57.346  1.00  0.00     0.188 HD
ENDBRANCH   7   8
ENDBRANCH   4   7
BRANCH   1  22
HETATM   22  C1  UNL     1      33.695 -24.232  59.188  1.00  0.00     0.221 C
HETATM   23  O1  UNL     1      33.639 -25.460  59.462  1.00  0.00    -0.273 OA
HETATM   24  N1  UNL     1      34.065 -23.875  57.867  1.00  0.00    -0.360 N
ATOM     25  H1  UNL     1      34.116 -22.885  57.628  1.00  0.00     0.162 HD
BRANCH  24  26
HETATM   26  C2  UNL     1      34.370 -24.840  56.850  1.00  0.00     0.127 C
BRANCH  26  27
HETATM   27  C3  UNL     1      34.326 -24.286  55.468  1.00  0.00     0.007 C
HETATM   28  C4  UNL     1      35.124 -25.098  54.476  1.00  0.00     0.032 C
HETATM   29  C5  UNL     1      34.777 -24.596  53.090  1.00  0.00     0.168 C
HETATM   30  O2  UNL     1      34.084 -23.384  53.137  1.00  0.00    -0.391 OA
HETATM   31  C6  UNL     1      34.778 -22.453  53.924  1.00  0.00     0.168 C
HETATM   32  C7  UNL     1      34.804 -22.855  55.383  1.00  0.00     0.032 C
ENDBRANCH  26  27
ENDBRANCH  24  26
ENDBRANCH   1  22
TORSDOF 5
ENDMDL