MODEL 5
REMARK VINA RESULT: -9.974325899      3.516      7.084
REMARK  7 active torsions:
REMARK  status: ('A' for Active; 'I' for Inactive)
REMARK    1  A    between atoms: C2_2  and  C3_3
REMARK    2  A    between atoms: C2_2  and  O1_14
REMARK    3  A    between atoms: C3_3  and  N1_4
REMARK    4  A    between atoms: C7_8  and  N2_9
REMARK    5  A    between atoms: O1_14  and  C9_15
REMARK    6  A    between atoms: C9_15  and  C10_17
REMARK       I    between atoms: C10_17  and  N3_19
REMARK       I    between atoms: N3_19  and  C11_21
REMARK    7  A    between atoms: C11_21  and  C12_23
ROOT
HETATM    1  C9  UNL     1      33.811 -23.314  61.708  1.00  0.00     0.352 C
HETATM    2  O2  UNL     1      33.588 -23.349  62.942  1.00  0.00    -0.254 OA
ENDROOT
BRANCH   1   3
HETATM    3  O1  UNL     1      35.050 -23.758  61.279  1.00  0.00    -0.303 OA
BRANCH   3   4
HETATM    4  C2  UNL     1      36.036 -22.832  60.872  1.00  0.00     0.167 C
HETATM    5  C1  UNL     1      36.980 -22.653  62.031  1.00  0.00     0.046 C
BRANCH   4   6
HETATM    6  C3  UNL     1      36.711 -23.408  59.655  1.00  0.00     0.100 C
BRANCH   6   7
HETATM    7  N1  UNL     1      36.093 -23.125  58.430  1.00  0.00    -0.350 N
HETATM    8  C4  UNL     1      35.710 -21.824  58.129  1.00  0.00     0.068 C
HETATM    9  C5  UNL     1      34.628 -21.813  57.074  1.00  0.00     0.047 C
HETATM   10  C6  UNL     1      35.190 -22.578  55.886  1.00  0.00     0.043 C
HETATM   11  C7  UNL     1      35.324 -24.026  56.276  1.00  0.00     0.222 C
HETATM   12  C8  UNL     1      35.551 -24.225  57.743  1.00  0.00     0.100 C
BRANCH  11  13
HETATM   13  N2  UNL     1      36.420 -24.580  55.503  1.00  0.00    -0.070 N
ATOM     14  H23 UNL     1      36.446 -24.235  54.543  1.00  0.00     0.275 HD
ATOM     15  H22 UNL     1      37.333 -24.228  55.793  1.00  0.00     0.275 HD
ATOM     16  H21 UNL     1      36.347 -25.595  55.560  1.00  0.00     0.275 HD
ENDBRANCH  11  13
ENDBRANCH   6   7
ENDBRANCH   4   6
ENDBRANCH   3   4
ENDBRANCH   1   3
BRANCH   1  17
HETATM   17  C10 UNL     1      32.791 -22.819  60.780  1.00  0.00     0.323 C
HETATM   18  O3  UNL     1      31.864 -23.544  60.366  1.00  0.00    -0.261 OA
HETATM   19  N3  UNL     1      32.859 -21.477  60.337  1.00  0.00    -0.288 N
HETATM   20  C11 UNL     1      31.894 -20.978  59.448  1.00  0.00     0.233 C
ATOM     21  H3  UNL     1      33.612 -20.871  60.663  1.00  0.00     0.172 HD
HETATM   22  O4  UNL     1      30.974 -21.744  59.057  1.00  0.00    -0.272 OA
BRANCH  20  23
HETATM   23  C12 UNL     1      31.981 -19.567  58.990  1.00  0.00     0.042 C
HETATM   24  C13 UNL     1      31.656 -19.509  57.530  1.00  0.00     0.024 C
HETATM   25  C14 UNL     1      31.692 -18.058  57.063  1.00  0.00    -0.013 C
HETATM   26  C15 UNL     1      30.684 -17.295  57.875  1.00  0.00     0.009 C
HETATM   27  C19 UNL     1      33.100 -17.568  57.306  1.00  0.00     0.009 C
HETATM   28  C16 UNL     1      31.067 -17.333  59.342  1.00  0.00    -0.013 C
HETATM   29  C17 UNL     1      32.457 -16.806  59.589  1.00  0.00     0.009 C
HETATM   30  C21 UNL     1      30.989 -18.772  59.784  1.00  0.00     0.024 C
HETATM   31  C18 UNL     1      33.439 -17.602  58.765  1.00  0.00    -0.013 C
HETATM   32  C20 UNL     1      33.371 -19.039  59.268  1.00  0.00     0.024 C
ENDBRANCH  20  23
ENDBRANCH   1  17
TORSDOF 7
ENDMDL