MODEL 3
REMARK VINA RESULT: -7.853861121      1.171      1.406
REMARK  9 active torsions:
REMARK  status: ('A' for Active; 'I' for Inactive)
REMARK    1  A    between atoms: N1_1  and  C1_5
REMARK    2  A    between atoms: C1_5  and  C2_6
REMARK    3  A    between atoms: C2_6  and  C3_7
REMARK    4  A    between atoms: C3_7  and  N2_8
REMARK    5  A    between atoms: N2_8  and  C4_10
REMARK    6  A    between atoms: C5_13  and  N4_14
REMARK    7  A    between atoms: N6_26  and  C15_27
REMARK    8  A    between atoms: C15_27  and  O1_28
REMARK    9  A    between atoms: C15_27  and  N7_30
ROOT
HETATM    1  C4  UNL     1      34.281 -21.708  57.201  1.00  0.00     0.125 A
HETATM    2  N3  UNL     1      33.303 -20.805  57.147  1.00  0.00    -0.176 N
ATOM      3  H3  UNL     1      32.951 -20.486  56.244  1.00  0.00     0.186 HD
HETATM    4  C5  UNL     1      32.772 -20.306  58.305  1.00  0.00     0.682 A
HETATM    5  N5  UNL     1      33.217 -20.710  59.505  1.00  0.00    -0.193 N
ATOM      6  H5  UNL     1      32.803 -20.323  60.354  1.00  0.00     0.184 HD
HETATM    7  C11 UNL     1      34.203 -21.621  59.602  1.00  0.00     0.054 A
HETATM    8  C12 UNL     1      34.724 -22.109  58.434  1.00  0.00     0.013 A
HETATM    9  C13 UNL     1      35.847 -23.118  58.486  1.00  0.00     0.064 C
HETATM   10  C14 UNL     1      36.809 -22.638  59.564  1.00  0.00     0.131 C
HETATM   11  N6  UNL     1      36.073 -22.543  60.835  1.00  0.00    -0.342 N
HETATM   12  C20 UNL     1      34.717 -22.113  60.904  1.00  0.00     0.184 C
ENDROOT
BRANCH   1  13
HETATM   13  N2  UNL     1      34.795 -22.189  56.146  1.00  0.00    -0.375 N
ATOM     14  H2  UNL     1      35.121 -23.154  56.190  1.00  0.00     0.161 HD
BRANCH  13  15
HETATM   15  C3  UNL     1      34.958 -21.505  54.901  1.00  0.00     0.123 C
BRANCH  15  16
HETATM   16  C2  UNL     1      34.651 -22.498  53.781  1.00  0.00     0.047 C
BRANCH  16  17
HETATM   17  C1  UNL     1      34.798 -23.916  54.273  1.00  0.00     0.231 C
BRANCH  17  18
HETATM   18  N1  UNL     1      34.592 -24.800  53.151  1.00  0.00    -0.079 N
ATOM     19  H13 UNL     1      34.151 -24.335  52.358  1.00  0.00     0.274 HD
ATOM     20  H12 UNL     1      35.464 -25.061  52.690  1.00  0.00     0.274 HD
ATOM     21  H11 UNL     1      34.062 -25.607  53.480  1.00  0.00     0.274 HD
ENDBRANCH  17  18
ENDBRANCH  16  17
ENDBRANCH  15  16
ENDBRANCH  13  15
ENDBRANCH   1  13
BRANCH   4  22
HETATM   22  N4  UNL     1      31.723 -19.337  58.261  1.00  0.00    -0.218 N
HETATM   23  C6  UNL     1      30.971 -19.068  59.444  1.00  0.00     0.141 C
HETATM   24  C7  UNL     1      29.937 -18.006  59.336  1.00  0.00     0.020 C
HETATM   25  C8  UNL     1      29.514 -17.648  57.952  1.00  0.00     0.003 C
HETATM   26  C9  UNL     1      30.793 -17.348  57.169  1.00  0.00     0.020 C
HETATM   27  C10 UNL     1      31.484 -18.673  56.983  1.00  0.00     0.141 C
ENDBRANCH   4  22
BRANCH  11  28
HETATM   28  C15 UNL     1      36.816 -22.915  61.972  1.00  0.00     0.217 C
BRANCH  28  29
HETATM   29  O1  UNL     1      37.754 -22.080  62.344  1.00  0.00    -0.332 OA
ATOM     30  H1  UNL     1      38.371 -22.407  62.987  1.00  0.00     0.220 HD
ENDBRANCH  28  29
BRANCH  28  31
HETATM   31  N7  UNL     1      36.640 -24.079  62.721  1.00  0.00    -0.347 N
HETATM   32  C16 UNL     1      35.510 -24.922  62.933  1.00  0.00     0.126 C
HETATM   33  C17 UNL     1      36.070 -26.216  63.580  1.00  0.00     0.021 C
HETATM   34  C18 UNL     1      37.516 -26.133  63.157  1.00  0.00     0.021 C
HETATM   35  C19 UNL     1      37.783 -24.659  63.500  1.00  0.00     0.126 C
ENDBRANCH  28  31
ENDBRANCH  11  28
TORSDOF 9
ENDMDL