MODEL 2
REMARK VINA RESULT: -9.295508044      1.979      2.518
REMARK  6 active torsions:
REMARK  status: ('A' for Active; 'I' for Inactive)
REMARK       I    between atoms: N2_7  and  C5_8
REMARK    1  A    between atoms: C5_8  and  C6_10
REMARK    2  A    between atoms: C6_10  and  C7_11
REMARK    3  A    between atoms: C7_11  and  C8_12
REMARK    4  A    between atoms: C8_12  and  C9_13
REMARK    5  A    between atoms: N3_16  and  C12_17
REMARK    6  A    between atoms: C15_20  and  N4_21
ROOT
HETATM    1  N1  UNL     1      36.432 -27.280  61.130  1.00  0.00    -0.194 NA
HETATM    2  C1  UNL     1      36.002 -26.333  60.627  1.00  0.00     0.099 C
HETATM    3  C2  UNL     1      35.473 -25.139  59.984  1.00  0.00     0.294 C
HETATM    4  O1  UNL     1      36.429 -24.154  59.945  1.00  0.00    -0.362 OA
HETATM    5  C3  UNL     1      36.626 -23.589  61.194  1.00  0.00     0.190 C
HETATM    6  C4  UNL     1      35.533 -22.611  61.569  1.00  0.00     0.160 C
HETATM    7  N2  UNL     1      34.273 -23.234  61.133  1.00  0.00    -0.303 N
HETATM    8  C5  UNL     1      33.065 -22.488  61.056  1.00  0.00     0.225 C
HETATM    9  O2  UNL     1      32.007 -23.007  60.681  1.00  0.00    -0.273 OA
HETATM   10  C20 UNL     1      34.308 -24.623  60.788  1.00  0.00     0.123 C
HETATM   11  N5  UNL     1      33.366 -25.398  61.161  1.00  0.00    -0.386 N
ATOM     12  H51 UNL     1      32.577 -25.049  61.705  1.00  0.00     0.157 HD
ATOM     13  H52 UNL     1      33.390 -26.387  60.915  1.00  0.00     0.157 HD
ENDROOT
BRANCH   8  14
HETATM   14  C6  UNL     1      33.134 -21.063  61.448  1.00  0.00     0.103 C
BRANCH  14  15
HETATM   15  C7  UNL     1      33.042 -20.103  60.311  1.00  0.00     0.010 C
BRANCH  15  16
HETATM   16  C8  UNL     1      33.892 -20.475  59.148  1.00  0.00     0.005 C
BRANCH  16  17
HETATM   17  C9  UNL     1      33.984 -19.341  58.117  1.00  0.00    -0.011 C
HETATM   18  C10 UNL     1      33.384 -19.920  56.850  1.00  0.00     0.035 C
HETATM   19  C11 UNL     1      31.951 -19.367  56.788  1.00  0.00     0.273 C
HETATM   20  N3  UNL     1      32.106 -17.976  56.464  1.00  0.00     0.093 N
HETATM   21  C18 UNL     1      32.573 -17.297  57.624  1.00  0.00     0.273 C
HETATM   22  C19 UNL     1      33.245 -18.164  58.644  1.00  0.00     0.035 C
BRANCH  20  23
HETATM   23  C12 UNL     1      30.996 -17.422  55.786  1.00  0.00     0.223 C
HETATM   24  C13 UNL     1      30.195 -16.551  56.716  1.00  0.00     0.038 C
HETATM   25  C14 UNL     1      29.032 -15.939  55.916  1.00  0.00     0.034 C
HETATM   26  C15 UNL     1      28.054 -17.053  55.658  1.00  0.00     0.183 C
HETATM   27  C16 UNL     1      28.677 -18.412  55.685  1.00  0.00     0.034 C
HETATM   28  C17 UNL     1      30.078 -18.448  55.170  1.00  0.00     0.038 C
BRANCH  26  29
HETATM   29  N4  UNL     1      27.086 -17.010  56.765  1.00  0.00    -0.075 N
ATOM     30  H43 UNL     1      27.516 -16.845  57.675  1.00  0.00     0.274 HD
ATOM     31  H42 UNL     1      26.493 -16.179  56.755  1.00  0.00     0.274 HD
ATOM     32  H41 UNL     1      26.562 -17.884  56.715  1.00  0.00     0.274 HD
ENDBRANCH  26  29
ENDBRANCH  20  23
ENDBRANCH  16  17
ENDBRANCH  15  16
ENDBRANCH  14  15
ENDBRANCH   8  14
TORSDOF 6
ENDMDL