MODEL 2
REMARK VINA RESULT: -7.979122788      1.530      3.818
REMARK  9 active torsions:
REMARK  status: ('A' for Active; 'I' for Inactive)
REMARK    1  A    between atoms: C2_2  and  C3_3
REMARK    2  A    between atoms: C3_3  and  N1_4
REMARK       I    between atoms: N1_4  and  C4_6
REMARK    3  A    between atoms: C4_6  and  C5_8
REMARK    4  A    between atoms: C5_8  and  C6_9
REMARK    5  A    between atoms: C7_10  and  C8_11
REMARK    6  A    between atoms: C8_11  and  C9_12
REMARK    7  A    between atoms: C9_12  and  O2_13
REMARK    8  A    between atoms: C18_25  and  O5_26
REMARK    9  A    between atoms: O5_26  and  C19_27
ROOT
HETATM    1  C9  UNL     1      33.371 -22.078  59.301  1.00  0.00     0.087 C
HETATM    2  C10 UNL     1      33.370 -22.805  60.658  1.00  0.00     0.118 C
HETATM    3  C11 UNL     1      34.194 -24.034  60.677  1.00  0.00     0.134 C
HETATM    4  O3  UNL     1      33.743 -25.053  61.119  1.00  0.00    -0.297 OA
HETATM    5  C12 UNL     1      35.594 -24.028  60.152  1.00  0.00     0.057 C
HETATM    6  C13 UNL     1      36.476 -23.917  61.408  1.00  0.00     0.018 C
HETATM    7  C14 UNL     1      35.651 -22.702  59.471  1.00  0.00     0.019 C
HETATM    8  C15 UNL     1      36.858 -22.191  58.895  1.00  0.00     0.023 A
HETATM    9  C16 UNL     1      38.083 -22.721  58.385  1.00  0.00     0.040 A
HETATM   10  C17 UNL     1      36.934 -22.957  57.538  1.00  0.00     0.129 A
HETATM   11  O4  UNL     1      36.157 -22.201  56.771  1.00  0.00    -0.355 OA
HETATM   12  C18 UNL     1      35.006 -21.636  57.411  1.00  0.00     0.271 C
HETATM   13  C21 UNL     1      34.478 -22.588  58.473  1.00  0.00     0.043 C
HETATM   14  C22 UNL     1      34.076 -23.833  57.809  1.00  0.00     0.024 C
ENDROOT
BRANCH   1  15
HETATM   15  C8  UNL     1      31.990 -22.076  58.802  1.00  0.00     0.133 C
BRANCH  15  16
HETATM   16  C7  UNL     1      31.438 -20.713  59.099  1.00  0.00    -0.103 C
HETATM   17  C6  UNL     1      30.977 -19.624  59.332  1.00  0.00    -0.097 C
BRANCH  17  18
HETATM   18  C5  UNL     1      30.429 -18.299  59.620  1.00  0.00     0.196 C
BRANCH  18  19
HETATM   19  C4  UNL     1      30.366 -17.450  58.427  1.00  0.00     0.229 C
HETATM   20  N1  UNL     1      29.145 -17.184  57.761  1.00  0.00    -0.357 N
ATOM     21  H1  UNL     1      28.291 -17.601  58.132  1.00  0.00     0.162 HD
HETATM   22  O1  UNL     1      31.427 -16.942  57.983  1.00  0.00    -0.273 OA
BRANCH  20  23
HETATM   23  C3  UNL     1      29.045 -16.352  56.582  1.00  0.00     0.149 C
BRANCH  23  24
HETATM   24  C2  UNL     1      28.704 -17.150  55.373  1.00  0.00    -0.018 C
HETATM   25  C1  UNL     1      28.890 -18.442  55.368  1.00  0.00     0.008 C
ENDBRANCH  23  24
ENDBRANCH  20  23
ENDBRANCH  18  19
ENDBRANCH  17  18
ENDBRANCH  15  16
ENDBRANCH   1  15
BRANCH   1  26
HETATM   26  O2  UNL     1      33.698 -20.722  59.598  1.00  0.00    -0.388 OA
ATOM     27  H2  UNL     1      34.647 -20.674  59.632  1.00  0.00     0.210 HD
ENDBRANCH   1  26
BRANCH  12  28
HETATM   28  O5  UNL     1      34.097 -21.544  56.344  1.00  0.00    -0.361 OA
BRANCH  28  29
HETATM   29  C19 UNL     1      34.200 -20.311  55.761  1.00  0.00     0.166 C
HETATM   30  C20 UNL     1      33.000 -19.426  56.058  1.00  0.00     0.033 C
ENDBRANCH  28  29
ENDBRANCH  12  28
TORSDOF 9
ENDMDL