MODEL 1
REMARK VINA RESULT: -8.014543609      0.000      0.000
REMARK  8 active torsions:
REMARK  status: ('A' for Active; 'I' for Inactive)
REMARK    1  A    between atoms: C2_2  and  O1_3
REMARK    2  A    between atoms: C2_2  and  C3_5
REMARK    3  A    between atoms: C4_6  and  C5_7
REMARK    4  A    between atoms: C5_7  and  C7_9
REMARK    5  A    between atoms: C5_7  and  C16_25
REMARK    6  A    between atoms: C7_9  and  O2_10
REMARK    7  A    between atoms: O2_10  and  N1_11
REMARK    8  A    between atoms: C16_25  and  N4_26
ROOT
HETATM    1  C5  UNL     1      33.457 -18.851  56.445  1.00  0.00     0.070 C
HETATM    2  C6  UNL     1      33.902 -17.683  55.614  1.00  0.00     0.033 C
ENDROOT
BRANCH   1   3
HETATM    3  C4  UNL     1      34.065 -20.050  55.802  1.00  0.00    -0.090 C
HETATM    4  C3  UNL     1      34.580 -21.007  55.277  1.00  0.00    -0.074 C
BRANCH   4   5
HETATM    5  C2  UNL     1      35.233 -22.161  54.639  1.00  0.00     0.192 C
HETATM    6  C1  UNL     1      34.450 -22.610  53.440  1.00  0.00     0.053 C
BRANCH   5   7
HETATM    7  O1  UNL     1      35.403 -23.181  55.574  1.00  0.00    -0.384 OA
ATOM      8  H1  UNL     1      36.320 -23.364  55.748  1.00  0.00     0.211 HD
ENDBRANCH   5   7
ENDBRANCH   4   5
ENDBRANCH   1   3
BRANCH   1   9
HETATM    9  C7  UNL     1      34.084 -18.716  57.811  1.00  0.00     0.225 C
BRANCH   9  10
HETATM   10  O2  UNL     1      33.154 -18.990  58.803  1.00  0.00    -0.279 OA
BRANCH  10  11
HETATM   11  N1  UNL     1      33.138 -19.952  59.734  1.00  0.00    -0.267 N
HETATM   12  C8  UNL     1      33.808 -20.992  59.886  1.00  0.00     0.086 C
HETATM   13  C9  UNL     1      34.900 -21.595  59.100  1.00  0.00     0.102 C
HETATM   14  C15 UNL     1      33.622 -21.950  61.000  1.00  0.00     0.226 C
HETATM   15  C10 UNL     1      34.570 -23.083  59.298  1.00  0.00     0.134 C
HETATM   16  C11 UNL     1      35.744 -23.940  58.872  1.00  0.00     0.047 C
HETATM   17  C12 UNL     1      33.336 -23.364  58.501  1.00  0.00     0.047 C
HETATM   18  N2  UNL     1      34.259 -23.162  60.684  1.00  0.00    -0.020 N
HETATM   19  C13 UNL     1      33.427 -24.319  60.995  1.00  0.00     0.281 C
HETATM   20  C14 UNL     1      35.450 -23.293  61.516  1.00  0.00     0.281 C
HETATM   21  N3  UNL     1      32.988 -21.725  62.085  1.00  0.00    -0.378 N
ATOM     22  H32 UNL     1      32.526 -20.845  62.314  1.00  0.00     0.157 HD
ATOM     23  H31 UNL     1      32.861 -22.385  62.852  1.00  0.00     0.157 HD
ATOM     24  H1  UNL     1      32.439 -19.805  60.462  1.00  0.00     0.194 HD
ENDBRANCH  10  11
ENDBRANCH   9  10
ENDBRANCH   1   9
BRANCH   1  25
HETATM   25  C16 UNL     1      31.996 -19.093  56.491  1.00  0.00     0.296 C
BRANCH  25  26
HETATM   26  N4  UNL     1      31.126 -18.102  55.992  1.00  0.00     0.093 N
HETATM   27  C17 UNL     1      30.036 -18.590  55.196  1.00  0.00     0.302 C
HETATM   28  C18 UNL     1      28.737 -17.857  55.500  1.00  0.00     0.302 C
HETATM   29  N5  UNL     1      28.975 -16.423  55.626  1.00  0.00     0.087 N
HETATM   30  C19 UNL     1      27.667 -15.804  55.810  1.00  0.00     0.310 C
HETATM   31  C20 UNL     1      29.865 -16.128  56.723  1.00  0.00     0.302 C
HETATM   32  C21 UNL     1      30.548 -17.409  57.131  1.00  0.00     0.302 C
ENDBRANCH  25  26
ENDBRANCH   1  25
TORSDOF 8
ENDMDL