MODEL 5
REMARK VINA RESULT: -8.443918635      3.145      6.463
REMARK  6 active torsions:
REMARK  status: ('A' for Active; 'I' for Inactive)
REMARK    1  A    between atoms: C2_2  and  O1_3
REMARK    2  A    between atoms: O1_3  and  C3_4
REMARK       I    between atoms: C3_4  and  N1_6
REMARK    3  A    between atoms: N1_6  and  C4_8
REMARK    4  A    between atoms: C4_8  and  C5_9
REMARK    5  A    between atoms: C4_8  and  C10_20
REMARK       I    between atoms: C5_9  and  N2_11
REMARK    6  A    between atoms: N2_11  and  C6_13
ROOT
HETATM    1  C4  UNL     1      32.816 -19.782  57.395  1.00  0.00     0.187 C
ENDROOT
BRANCH   1   2
HETATM    2  N1  UNL     1      33.851 -19.494  56.379  1.00  0.00    -0.323 N
HETATM    3  C3  UNL     1      35.206 -19.814  56.412  1.00  0.00     0.361 C
HETATM    4  O2  UNL     1      35.860 -20.407  57.307  1.00  0.00    -0.238 OA
ATOM      5  H1  UNL     1      33.531 -18.998  55.548  1.00  0.00     0.165 HD
BRANCH   3   6
HETATM    6  O1  UNL     1      35.974 -19.419  55.274  1.00  0.00    -0.304 OA
BRANCH   6   7
HETATM    7  C2  UNL     1      36.117 -20.342  54.188  1.00  0.00     0.176 C
HETATM    8  C1  UNL     1      35.085 -21.436  54.299  1.00  0.00     0.034 C
ENDBRANCH   6   7
ENDBRANCH   3   6
ENDBRANCH   1   2
BRANCH   1   9
HETATM    9  C5  UNL     1      33.410 -20.030  58.699  1.00  0.00     0.241 C
HETATM   10  O3  UNL     1      33.745 -19.119  59.526  1.00  0.00    -0.271 OA
HETATM   11  N2  UNL     1      33.683 -21.327  59.175  1.00  0.00    -0.354 N
ATOM     12  H2  UNL     1      33.467 -22.129  58.581  1.00  0.00     0.162 HD
BRANCH  11  13
HETATM   13  C6  UNL     1      34.270 -21.562  60.500  1.00  0.00     0.099 C
HETATM   14  C7  UNL     1      35.378 -22.555  60.421  1.00  0.00     0.041 C
HETATM   15  C8  UNL     1      35.908 -22.636  61.838  1.00  0.00     0.142 C
HETATM   16  S1  UNL     1      34.359 -22.742  62.748  1.00  0.00     0.146 S
HETATM   17  O4  UNL     1      33.955 -24.156  62.956  1.00  0.00    -0.228 OA
HETATM   18  O5  UNL     1      34.398 -21.924  63.980  1.00  0.00    -0.228 OA
HETATM   19  C9  UNL     1      33.262 -22.038  61.504  1.00  0.00     0.165 C
ENDBRANCH  11  13
ENDBRANCH   1   9
BRANCH   1  20
HETATM   20  C10 UNL     1      31.678 -18.853  57.230  1.00  0.00    -0.010 C
HETATM   21  C11 UNL     1      30.571 -19.106  58.182  1.00  0.00     0.016 C
HETATM   22  C12 UNL     1      29.335 -18.279  57.825  1.00  0.00    -0.013 C
HETATM   23  C13 UNL     1      28.860 -18.627  56.433  1.00  0.00     0.009 C
HETATM   24  C17 UNL     1      29.667 -16.825  57.871  1.00  0.00     0.009 C
HETATM   25  C14 UNL     1      29.967 -18.289  55.461  1.00  0.00    -0.013 C
HETATM   26  C15 UNL     1      30.329 -16.831  55.524  1.00  0.00     0.009 C
HETATM   27  C19 UNL     1      31.169 -19.113  55.781  1.00  0.00     0.016 C
HETATM   28  C16 UNL     1      30.805 -16.571  56.943  1.00  0.00    -0.013 C
HETATM   29  C18 UNL     1      32.046 -17.394  57.251  1.00  0.00     0.016 C
ENDBRANCH   1  20
TORSDOF 6
ENDMDL