MODEL 2
REMARK VINA RESULT: -8.687290796      2.448      3.635
REMARK  8 active torsions:
REMARK  status: ('A' for Active; 'I' for Inactive)
REMARK       I    between atoms: N1_2  and  C3_4
REMARK    1  A    between atoms: C3_4  and  O2_6
REMARK    2  A    between atoms: O2_6  and  C4_7
REMARK       I    between atoms: C4_7  and  N2_9
REMARK    3  A    between atoms: N3_12  and  C7_13
REMARK    4  A    between atoms: C7_13  and  C8_14
REMARK       I    between atoms: C8_14  and  N4_16
REMARK    5  A    between atoms: N4_16  and  C9_18
REMARK    6  A    between atoms: C9_18  and  C10_19
REMARK    7  A    between atoms: C10_19  and  C11_20
REMARK    8  A    between atoms: C11_20  and  O5_21
ROOT
HETATM    1  C7  UNL     1      31.950 -18.668  58.228  1.00  0.00     0.239 C
HETATM    2  C12 UNL     1      32.333 -18.963  56.800  1.00  0.00     0.052 C
HETATM    3  C13 UNL     1      32.870 -17.715  56.105  1.00  0.00     0.003 C
HETATM    4  C14 UNL     1      34.216 -17.415  56.689  1.00  0.00     0.000 C
HETATM    5  C15 UNL     1      34.072 -17.319  58.190  1.00  0.00     0.003 C
HETATM    6  C16 UNL     1      32.645 -17.412  58.643  1.00  0.00     0.052 C
ENDROOT
BRANCH   1   7
HETATM    7  N3  UNL     1      32.097 -19.773  59.081  1.00  0.00     0.110 N
HETATM    8  C6  UNL     1      32.506 -21.031  58.549  1.00  0.00     0.294 C
HETATM    9  C5  UNL     1      31.885 -22.074  59.493  1.00  0.00     0.158 C
HETATM   10  N2  UNL     1      32.581 -21.897  60.749  1.00  0.00    -0.324 N
HETATM   11  C4  UNL     1      33.037 -23.040  61.442  1.00  0.00     0.371 C
HETATM   12  C18 UNL     1      32.808 -20.596  61.274  1.00  0.00     0.158 C
HETATM   13  O3  UNL     1      32.856 -24.219  60.989  1.00  0.00    -0.238 OA
HETATM   14  C17 UNL     1      32.912 -19.515  60.256  1.00  0.00     0.294 C
BRANCH  11  15
HETATM   15  O2  UNL     1      33.714 -22.984  62.657  1.00  0.00    -0.209 OA
BRANCH  15  16
HETATM   16  C3  UNL     1      35.101 -22.931  62.755  1.00  0.00     0.370 C
HETATM   17  N1  UNL     1      35.931 -24.049  62.936  1.00  0.00    -0.336 N
HETATM   18  C1  UNL     1      35.348 -25.359  63.024  1.00  0.00     0.154 C
HETATM   19  C2  UNL     1      37.352 -23.886  63.032  1.00  0.00     0.154 C
HETATM   20  O1  UNL     1      35.620 -21.787  62.673  1.00  0.00    -0.238 OA
ENDBRANCH  15  16
ENDBRANCH  11  15
ENDBRANCH   1   7
BRANCH   1  21
HETATM   21  C8  UNL     1      30.472 -18.326  58.153  1.00  0.00     0.257 C
HETATM   22  O4  UNL     1      29.837 -18.581  59.183  1.00  0.00    -0.271 OA
HETATM   23  N4  UNL     1      29.886 -17.771  57.016  1.00  0.00    -0.359 N
ATOM     24  H4  UNL     1      30.545 -17.604  56.255  1.00  0.00     0.162 HD
BRANCH  23  25
HETATM   25  C9  UNL     1      28.557 -17.392  56.711  1.00  0.00     0.125 C
BRANCH  25  26
HETATM   26  C10 UNL     1      28.253 -16.432  55.648  1.00  0.00     0.046 C
BRANCH  26  27
HETATM   27  C11 UNL     1      27.723 -15.093  55.945  1.00  0.00     0.165 C
BRANCH  27  28
HETATM   28  O5  UNL     1      26.321 -15.054  56.082  1.00  0.00    -0.401 OA
ATOM     29  H5  UNL     1      25.889 -14.501  55.441  1.00  0.00     0.209 HD
ENDBRANCH  27  28
ENDBRANCH  26  27
ENDBRANCH  25  26
ENDBRANCH  23  25
ENDBRANCH   1  21
TORSDOF 8
ENDMDL