MODEL 1
REMARK VINA RESULT: -9.348003671      0.000      0.000
REMARK  6 active torsions:
REMARK  status: ('A' for Active; 'I' for Inactive)
REMARK    1  A    between atoms: C5_5  and  C6_6
REMARK       I    between atoms: C6_6  and  N1_8
REMARK       I    between atoms: N1_8  and  C7_10
REMARK    2  A    between atoms: C7_10  and  C8_12
REMARK    3  A    between atoms: C8_12  and  S1_13
REMARK    4  A    between atoms: S1_13  and  C9_14
REMARK    5  A    between atoms: C9_14  and  C10_15
REMARK       I    between atoms: C10_15  and  N2_17
REMARK    6  A    between atoms: C13_20  and  C14_21
ROOT
HETATM    1  C8  UNL     1      35.865 -20.135  55.787  1.00  0.00     0.177 C
ENDROOT
BRANCH   1   2
HETATM    2  C7  UNL     1      34.927 -19.002  55.900  1.00  0.00     0.233 C
HETATM    3  N1  UNL     1      33.533 -19.297  56.033  1.00  0.00    -0.297 N
HETATM    4  C6  UNL     1      32.523 -18.308  56.051  1.00  0.00     0.228 C
ATOM      5  H1  UNL     1      33.252 -20.274  56.119  1.00  0.00     0.171 HD
HETATM    6  O1  UNL     1      32.889 -17.097  55.956  1.00  0.00    -0.273 OA
HETATM    7  O2  UNL     1      35.358 -17.810  55.873  1.00  0.00    -0.272 OA
BRANCH   4   8
HETATM    8  C5  UNL     1      31.107 -18.738  56.182  1.00  0.00     0.078 C
HETATM    9  C4  UNL     1      30.205 -18.221  55.105  1.00  0.00     0.014 C
HETATM   10  C3  UNL     1      28.764 -18.444  55.574  1.00  0.00     0.005 C
HETATM   11  C2  UNL     1      28.487 -17.346  56.595  1.00  0.00    -0.019 C
HETATM   12  C1  UNL     1      27.885 -16.127  55.967  1.00  0.00     0.010 C
HETATM   13  C18 UNL     1      29.792 -16.930  57.272  1.00  0.00     0.005 C
HETATM   14  C17 UNL     1      30.646 -18.173  57.524  1.00  0.00     0.014 C
ENDBRANCH   4   8
ENDBRANCH   1   2
BRANCH   1  15
HETATM   15  S1  UNL     1      35.110 -21.489  54.895  1.00  0.00    -0.150 SA
BRANCH  15  16
HETATM   16  C9  UNL     1      34.720 -22.843  56.019  1.00  0.00     0.177 C
BRANCH  16  17
HETATM   17  C10 UNL     1      35.730 -22.957  57.101  1.00  0.00     0.229 C
HETATM   18  O3  UNL     1      36.827 -23.565  56.814  1.00  0.00    -0.273 OA
HETATM   19  N2  UNL     1      35.603 -22.464  58.408  1.00  0.00    -0.351 N
HETATM   20  C11 UNL     1      36.705 -22.704  59.367  1.00  0.00     0.126 C
HETATM   21  C16 UNL     1      34.523 -21.700  58.964  1.00  0.00     0.126 C
HETATM   22  C12 UNL     1      36.236 -22.767  60.777  1.00  0.00     0.033 C
HETATM   23  C13 UNL     1      34.804 -23.211  60.941  1.00  0.00     0.078 C
HETATM   24  C15 UNL     1      33.857 -22.421  60.087  1.00  0.00     0.033 C
BRANCH  23  25
HETATM   25  C14 UNL     1      34.464 -22.963  62.386  1.00  0.00     0.235 C
HETATM   26  N3  UNL     1      34.948 -21.764  62.966  1.00  0.00    -0.062 NA
HETATM   27  O4  UNL     1      33.793 -23.754  63.070  1.00  0.00    -0.277 OA
ENDBRANCH  23  25
ENDBRANCH  16  17
ENDBRANCH  15  16
ENDBRANCH   1  15
TORSDOF 6
ENDMDL