MODEL 1
REMARK VINA RESULT: -8.458725248      0.000      0.000
REMARK  5 active torsions:
REMARK  status: ('A' for Active; 'I' for Inactive)
REMARK    1  A    between atoms: O1_2  and  C2_3
REMARK    2  A    between atoms: C2_3  and  C3_4
REMARK    3  A    between atoms: C6_7  and  O2_8
REMARK    4  A    between atoms: C10_13  and  O3_14
REMARK    5  A    between atoms: C16_21  and  C18_23
ROOT
HETATM    1  C3  UNL     1      10.291 -29.008 -18.768  1.00  0.00    -0.008 C
HETATM    2  C4  UNL     1       8.975 -28.330 -19.073  1.00  0.00     0.018 C
HETATM    3  C5  UNL     1      11.067 -29.012 -20.056  1.00  0.00     0.030 C
HETATM    4  C6  UNL     1      10.327 -29.285 -21.291  1.00  0.00     0.124 C
HETATM    5  C7  UNL     1      11.145 -29.669 -22.490  1.00  0.00     0.044 C
HETATM    6  C8  UNL     1      12.314 -30.538 -22.212  1.00  0.00    -0.012 C
HETATM    7  C9  UNL     1      11.962 -31.947 -21.832  1.00  0.00     0.018 C
HETATM    8  C10 UNL     1      13.337 -30.566 -23.298  1.00  0.00     0.126 C
HETATM    9  C11 UNL     1      14.629 -30.879 -22.552  1.00  0.00     0.033 C
HETATM   10  C12 UNL     1      14.360 -30.585 -21.092  1.00  0.00     0.008 C
HETATM   11  C13 UNL     1      13.089 -29.833 -21.116  1.00  0.00     0.001 C
HETATM   12  C14 UNL     1      12.324 -29.834 -19.812  1.00  0.00    -0.001 C
HETATM   13  C15 UNL     1      13.160 -29.063 -18.849  1.00  0.00     0.026 C
HETATM   14  C16 UNL     1      12.516 -28.435 -17.687  1.00  0.00     0.053 C
HETATM   15  C17 UNL     1      12.886 -29.250 -16.441  1.00  0.00     0.027 C
HETATM   16  C19 UNL     1      11.057 -28.112 -17.789  1.00  0.00    -0.021 C
HETATM   17  C20 UNL     1      10.924 -26.665 -18.236  1.00  0.00     0.017 C
HETATM   18  C21 UNL     1      10.434 -28.112 -16.407  1.00  0.00     0.017 C
ENDROOT
BRANCH   1  19
HETATM   19  C2  UNL     1       9.990 -30.368 -18.236  1.00  0.00     0.177 C
BRANCH  19  20
HETATM   20  O1  UNL     1       8.617 -30.616 -18.267  1.00  0.00    -0.395 OA
HETATM   21  C1  UNL     1       8.224 -31.585 -17.379  1.00  0.00     0.201 C
ENDBRANCH  19  20
ENDBRANCH   1  19
BRANCH   4  22
HETATM   22  O2  UNL     1       9.279 -30.187 -21.239  1.00  0.00    -0.395 OA
ATOM     23  H2  UNL     1       9.391 -31.030 -21.664  1.00  0.00     0.210 HD
ENDBRANCH   4  22
BRANCH  14  24
HETATM   24  C18 UNL     1      13.252 -27.141 -17.441  1.00  0.00     0.182 C
HETATM   25  O4  UNL     1      13.797 -26.890 -16.312  1.00  0.00    -0.647 OA
HETATM   26  O5  UNL     1      13.394 -26.152 -18.390  1.00  0.00    -0.647 OA
ENDBRANCH  14  24
BRANCH   8  27
HETATM   27  O3  UNL     1      13.403 -29.330 -23.931  1.00  0.00    -0.395 OA
ATOM     28  H3  UNL     1      14.264 -28.945 -23.817  1.00  0.00     0.210 HD
ENDBRANCH   8  27
TORSDOF 5
ENDMDL