MODEL 4
REMARK VINA RESULT: -7.382039428      3.527      6.234
REMARK  6 active torsions:
REMARK  status: ('A' for Active; 'I' for Inactive)
REMARK    1  A    between atoms: C2_2  and  N1_3
REMARK       I    between atoms: N1_3  and  C3_5
REMARK    2  A    between atoms: C3_5  and  O2_7
REMARK    3  A    between atoms: O2_7  and  C4_8
REMARK    4  A    between atoms: C4_8  and  C5_9
REMARK    5  A    between atoms: C7_11  and  O3_12
REMARK    6  A    between atoms: C8_14  and  O4_15
ROOT
HETATM    1  C5  UNL     1       7.932 -25.928 -16.153  1.00  0.00     0.021 C
HETATM    2  C6  UNL     1       6.819 -26.559 -15.402  1.00  0.00     0.041 C
HETATM    3  C7  UNL     1       7.494 -27.061 -14.112  1.00  0.00     0.147 C
HETATM    4  C8  UNL     1       8.340 -28.216 -14.551  1.00  0.00     0.152 C
HETATM    5  C9  UNL     1       9.303 -27.973 -15.662  1.00  0.00     0.031 C
HETATM    6  C10 UNL     1       9.699 -29.308 -16.204  1.00  0.00     0.009 C
HETATM    7  C11 UNL     1       8.619 -30.343 -16.172  1.00  0.00     0.033 C
HETATM    8  C12 UNL     1       9.011 -31.326 -17.178  1.00  0.00    -0.029 C
HETATM    9  C13 UNL     1       9.862 -30.792 -18.009  1.00  0.00    -0.020 C
HETATM   10  C14 UNL     1      10.119 -29.380 -17.619  1.00  0.00    -0.015 C
HETATM   11  C15 UNL     1      11.647 -29.284 -17.776  1.00  0.00     0.021 C
HETATM   12  C16 UNL     1       9.378 -28.504 -18.562  1.00  0.00    -0.036 C
HETATM   13  C17 UNL     1       8.458 -29.321 -19.488  1.00  0.00     0.016 C
HETATM   14  C18 UNL     1      10.345 -27.805 -19.514  1.00  0.00     0.016 C
HETATM   15  C19 UNL     1       8.504 -27.485 -17.925  1.00  0.00     0.020 C
HETATM   16  C20 UNL     1       9.001 -26.900 -16.637  1.00  0.00    -0.031 C
HETATM   17  C21 UNL     1      10.199 -25.964 -16.900  1.00  0.00     0.016 C
ENDROOT
BRANCH   1  18
HETATM   18  C4  UNL     1       7.499 -24.986 -17.235  1.00  0.00     0.186 C
BRANCH  18  19
HETATM   19  O2  UNL     1       7.775 -23.671 -16.806  1.00  0.00    -0.304 OA
BRANCH  19  20
HETATM   20  C3  UNL     1       6.793 -22.862 -16.252  1.00  0.00     0.360 C
HETATM   21  N1  UNL     1       5.908 -22.197 -17.116  1.00  0.00    -0.337 N
ATOM     22  H1  UNL     1       6.006 -22.321 -18.124  1.00  0.00     0.164 HD
HETATM   23  O1  UNL     1       6.734 -22.757 -14.986  1.00  0.00    -0.239 OA
BRANCH  21  24
HETATM   24  C2  UNL     1       4.842 -21.323 -16.602  1.00  0.00     0.120 C
HETATM   25  C1  UNL     1       4.176 -20.604 -17.756  1.00  0.00     0.026 C
ENDBRANCH  21  24
ENDBRANCH  19  20
ENDBRANCH  18  19
ENDBRANCH   1  18
BRANCH   3  26
HETATM   26  O3  UNL     1       8.205 -26.021 -13.550  1.00  0.00    -0.393 OA
ATOM     27  H3  UNL     1       8.897 -26.382 -13.008  1.00  0.00     0.210 HD
ENDBRANCH   3  26
BRANCH   4  28
HETATM   28  O4  UNL     1       9.067 -28.597 -13.406  1.00  0.00    -0.393 OA
ATOM     29  H4  UNL     1       8.538 -28.313 -12.670  1.00  0.00     0.210 HD
ENDBRANCH   4  28
TORSDOF 6
ENDMDL