MODEL 2
REMARK VINA RESULT: -10.531446991      2.123      7.915
REMARK  6 active torsions:
REMARK  status: ('A' for Active; 'I' for Inactive)
REMARK    1  A    between atoms: C2_2  and  O1_3
REMARK    2  A    between atoms: C2_2  and  C3_5
REMARK    3  A    between atoms: C3_5  and  C4_6
REMARK    4  A    between atoms: C4_6  and  N1_7
REMARK    5  A    between atoms: C13_16  and  O2_17
REMARK    6  A    between atoms: C14_19  and  O3_20
ROOT
HETATM    1  N1  UNL     1       8.891 -27.677 -15.795  1.00  0.00     0.089 N
HETATM    2  C5  UNL     1       9.981 -27.275 -16.690  1.00  0.00     0.278 C
HETATM    3  C6  UNL     1       9.887 -28.276 -17.771  1.00  0.00     0.028 C
HETATM    4  C7  UNL     1      10.936 -28.354 -18.789  1.00  0.00    -0.003 C
HETATM    5  C8  UNL     1      12.334 -28.517 -18.320  1.00  0.00     0.006 C
HETATM    6  C9  UNL     1      13.295 -29.108 -19.305  1.00  0.00     0.006 C
HETATM    7  C10 UNL     1      12.701 -30.143 -20.211  1.00  0.00    -0.003 C
HETATM    8  C11 UNL     1      13.760 -30.410 -21.291  1.00  0.00     0.008 C
HETATM    9  C12 UNL     1      13.267 -31.373 -22.323  1.00  0.00     0.035 C
HETATM   10  C13 UNL     1      11.810 -31.734 -22.163  1.00  0.00     0.147 C
HETATM   11  C14 UNL     1      10.947 -30.509 -21.951  1.00  0.00     0.155 C
HETATM   12  C15 UNL     1      11.492 -29.601 -20.886  1.00  0.00    -0.008 C
HETATM   13  C16 UNL     1      11.741 -28.259 -21.545  1.00  0.00     0.019 C
HETATM   14  C17 UNL     1      10.452 -29.343 -19.805  1.00  0.00     0.001 C
HETATM   15  C18 UNL     1       9.773 -30.561 -19.307  1.00  0.00     0.007 C
HETATM   16  C19 UNL     1       9.260 -30.609 -17.936  1.00  0.00     0.012 C
HETATM   17  C20 UNL     1       9.548 -29.503 -17.011  1.00  0.00    -0.012 C
HETATM   18  C21 UNL     1      10.423 -29.885 -15.883  1.00  0.00     0.017 C
HETATM   19  C22 UNL     1       8.304 -28.899 -16.330  1.00  0.00     0.282 C
ENDROOT
BRANCH   1  20
HETATM   20  C4  UNL     1       7.830 -26.680 -15.809  1.00  0.00     0.275 C
BRANCH  20  21
HETATM   21  C3  UNL     1       7.198 -26.711 -14.424  1.00  0.00     0.061 C
BRANCH  21  22
HETATM   22  C2  UNL     1       8.283 -26.766 -13.350  1.00  0.00     0.115 C
HETATM   23  C1  UNL     1       8.166 -28.046 -12.588  1.00  0.00     0.039 C
BRANCH  22  24
HETATM   24  O1  UNL     1       8.084 -25.637 -12.534  1.00  0.00    -0.396 OA
ATOM     25  H1  UNL     1       8.052 -24.830 -13.035  1.00  0.00     0.210 HD
ENDBRANCH  22  24
ENDBRANCH  21  22
ENDBRANCH  20  21
ENDBRANCH   1  20
BRANCH  11  26
HETATM   26  O3  UNL     1      10.875 -29.874 -23.214  1.00  0.00    -0.392 OA
ATOM     27  H3  UNL     1      10.671 -28.966 -23.028  1.00  0.00     0.210 HD
ENDBRANCH  11  26
BRANCH  10  28
HETATM   28  O2  UNL     1      11.406 -32.355 -23.345  1.00  0.00    -0.393 OA
ATOM     29  H2  UNL     1      10.677 -31.854 -23.692  1.00  0.00     0.210 HD
ENDBRANCH  10  28
TORSDOF 6
ENDMDL