MODEL 5
REMARK VINA RESULT: -6.769432425      2.680      5.893
REMARK  6 active torsions:
REMARK  status: ('A' for Active; 'I' for Inactive)
REMARK    1  A    between atoms: O1_2  and  C2_3
REMARK    2  A    between atoms: C2_3  and  C3_4
REMARK    3  A    between atoms: C6_7  and  C7_8
REMARK    4  A    between atoms: C7_8  and  O2_11
REMARK    5  A    between atoms: C11_14  and  O3_15
REMARK    6  A    between atoms: C16_21  and  O4_22
ROOT
HETATM    1  C3  UNL     1      10.755 -29.145 -18.665  1.00  0.00    -0.005 C
HETATM    2  C4  UNL     1      10.198 -30.466 -18.272  1.00  0.00     0.013 C
HETATM    3  C5  UNL     1       9.477 -30.283 -16.925  1.00  0.00     0.009 C
HETATM    4  C6  UNL     1       9.305 -28.811 -16.878  1.00  0.00     0.027 C
HETATM    5  C10 UNL     1      10.550 -28.257 -17.466  1.00  0.00     0.033 C
HETATM    6  C11 UNL     1      11.677 -28.111 -16.519  1.00  0.00     0.124 C
HETATM    7  C12 UNL     1      13.046 -28.023 -17.204  1.00  0.00     0.038 C
HETATM    8  C13 UNL     1      13.152 -29.283 -17.982  1.00  0.00     0.001 C
HETATM    9  C14 UNL     1      14.446 -29.845 -18.310  1.00  0.00    -0.003 C
HETATM   10  C15 UNL     1      15.689 -29.289 -17.708  1.00  0.00     0.037 C
HETATM   11  C16 UNL     1      16.728 -30.214 -18.347  1.00  0.00     0.118 C
HETATM   12  C17 UNL     1      16.095 -30.740 -19.643  1.00  0.00     0.036 C
HETATM   13  C18 UNL     1      14.878 -29.804 -19.780  1.00  0.00    -0.008 C
HETATM   14  C19 UNL     1      13.827 -30.291 -20.691  1.00  0.00     0.006 C
HETATM   15  C20 UNL     1      12.477 -30.408 -19.961  1.00  0.00     0.011 C
HETATM   16  C21 UNL     1      12.177 -29.199 -19.166  1.00  0.00    -0.030 C
HETATM   17  C22 UNL     1      12.382 -27.883 -19.901  1.00  0.00     0.016 C
ENDROOT
BRANCH   4  18
HETATM   18  C7  UNL     1       8.700 -28.194 -15.699  1.00  0.00     0.055 C
HETATM   19  C8  UNL     1       9.168 -28.489 -14.340  1.00  0.00     0.045 C
HETATM   20  C9  UNL     1       8.631 -26.682 -15.968  1.00  0.00     0.045 C
BRANCH  18  21
HETATM   21  O2  UNL     1       7.324 -28.572 -15.721  1.00  0.00    -0.390 OA
ATOM     22  H2  UNL     1       6.911 -28.012 -16.368  1.00  0.00     0.210 HD
ENDBRANCH  18  21
ENDBRANCH   4  18
BRANCH   1  23
HETATM   23  C2  UNL     1       9.858 -28.587 -19.772  1.00  0.00     0.177 C
BRANCH  23  24
HETATM   24  O1  UNL     1       9.221 -29.582 -20.513  1.00  0.00    -0.395 OA
HETATM   25  C1  UNL     1       9.758 -29.615 -21.772  1.00  0.00     0.201 C
ENDBRANCH  23  24
ENDBRANCH   1  23
BRANCH   6  26
HETATM   26  O3  UNL     1      11.866 -29.250 -15.690  1.00  0.00    -0.395 OA
ATOM     27  H3  UNL     1      11.936 -29.036 -14.768  1.00  0.00     0.210 HD
ENDBRANCH   6  26
BRANCH  11  28
HETATM   28  O4  UNL     1      16.874 -31.301 -17.494  1.00  0.00    -0.396 OA
ATOM     29  H4  UNL     1      17.108 -30.952 -16.642  1.00  0.00     0.210 HD
ENDBRANCH  11  28
TORSDOF 6
ENDMDL