MODEL 5
REMARK VINA RESULT: -5.640852193      1.950      3.058
REMARK  5 active torsions:
REMARK  status: ('A' for Active; 'I' for Inactive)
REMARK    1  A    between atoms: C2_2  and  C3_3
REMARK    2  A    between atoms: C8_8  and  C9_9
REMARK    3  A    between atoms: C14_15  and  O1_16
REMARK    4  A    between atoms: C15_18  and  C17_20
REMARK    5  A    between atoms: C20_25  and  O4_26
ROOT
HETATM    1  C3  UNL     1       7.886 -26.229 -16.251  1.00  0.00    -0.018 C
HETATM    2  C4  UNL     1       7.706 -26.020 -14.732  1.00  0.00     0.018 C
HETATM    3  C5  UNL     1       9.329 -26.355 -16.482  1.00  0.00     0.021 C
HETATM    4  C6  UNL     1       9.848 -27.454 -17.344  1.00  0.00    -0.033 C
HETATM    5  C7  UNL     1       9.582 -27.046 -18.768  1.00  0.00     0.016 C
HETATM    6  C8  UNL     1      11.297 -27.727 -17.172  1.00  0.00     0.030 C
HETATM    7  C13 UNL     1      11.623 -28.817 -18.223  1.00  0.00     0.040 C
HETATM    8  C14 UNL     1      10.787 -30.005 -18.199  1.00  0.00     0.137 C
HETATM    9  C15 UNL     1       9.347 -29.885 -17.872  1.00  0.00     0.075 C
HETATM   10  C16 UNL     1       8.445 -29.854 -19.080  1.00  0.00     0.030 C
HETATM   11  C18 UNL     1       9.136 -28.728 -16.938  1.00  0.00     0.018 C
HETATM   12  C19 UNL     1       7.731 -28.628 -16.529  1.00  0.00     0.039 C
HETATM   13  C20 UNL     1       7.020 -27.332 -16.727  1.00  0.00     0.126 C
ENDROOT
BRANCH   6  14
HETATM   14  C9  UNL     1      12.381 -26.822 -17.182  1.00  0.00     0.229 C
HETATM   15  C10 UNL     1      13.808 -27.230 -17.444  1.00  0.00     0.066 C
HETATM   16  C11 UNL     1      13.946 -25.743 -17.033  1.00  0.00     0.274 C
HETATM   17  N1  UNL     1      12.660 -25.626 -17.781  1.00  0.00     0.089 N
HETATM   18  C12 UNL     1      12.950 -25.165 -19.027  1.00  0.00     0.310 C
ENDBRANCH   6  14
BRANCH   8  19
HETATM   19  O1  UNL     1      10.865 -30.599 -19.482  1.00  0.00    -0.394 OA
ATOM     20  H1  UNL     1      10.342 -31.392 -19.457  1.00  0.00     0.210 HD
ENDBRANCH   8  19
BRANCH   1  21
HETATM   21  C2  UNL     1       7.294 -24.945 -16.851  1.00  0.00     0.007 C
HETATM   22  C1  UNL     1       7.517 -23.743 -16.001  1.00  0.00     0.006 C
ENDBRANCH   1  21
BRANCH   9  23
HETATM   23  C17 UNL     1       8.958 -31.114 -17.116  1.00  0.00     0.184 C
HETATM   24  O2  UNL     1       8.189 -31.965 -17.571  1.00  0.00    -0.647 OA
HETATM   25  O3  UNL     1       9.491 -31.317 -15.826  1.00  0.00    -0.647 OA
ENDBRANCH   9  23
BRANCH  13  26
HETATM   26  O4  UNL     1       5.870 -27.338 -15.893  1.00  0.00    -0.395 OA
ATOM     27  H4  UNL     1       5.311 -26.630 -16.192  1.00  0.00     0.210 HD
ENDBRANCH  13  26
TORSDOF 5
ENDMDL