MODEL 5
REMARK VINA RESULT: -7.992487946      2.229      3.554
REMARK  6 active torsions:
REMARK  status: ('A' for Active; 'I' for Inactive)
REMARK    1  A    between atoms: C4_4  and  O1_5
REMARK    2  A    between atoms: C16_18  and  C17_19
REMARK    3  A    between atoms: C17_19  and  C18_20
REMARK    4  A    between atoms: C17_19  and  C19_22
REMARK    5  A    between atoms: C19_22  and  O3_23
REMARK    6  A    between atoms: C21_26  and  O4_27
ROOT
HETATM    1  C1  UNL     1      12.992 -30.009 -19.246  1.00  0.00     0.016 C
HETATM    2  C2  UNL     1      12.142 -28.864 -19.747  1.00  0.00    -0.035 C
HETATM    3  C3  UNL     1      12.591 -28.585 -21.172  1.00  0.00     0.041 C
HETATM    4  C4  UNL     1      11.797 -29.297 -22.204  1.00  0.00     0.118 C
HETATM    5  C5  UNL     1      11.239 -30.614 -21.767  1.00  0.00     0.032 C
HETATM    6  C6  UNL     1      10.527 -30.560 -20.455  1.00  0.00     0.008 C
HETATM    7  C7  UNL     1      10.687 -29.195 -19.821  1.00  0.00    -0.001 C
HETATM    8  C8  UNL     1       9.950 -29.143 -18.503  1.00  0.00     0.001 C
HETATM    9  C9  UNL     1       8.489 -29.067 -18.706  1.00  0.00     0.007 C
HETATM   10  C10 UNL     1       7.810 -27.787 -18.330  1.00  0.00     0.014 C
HETATM   11  C11 UNL     1       8.193 -27.207 -17.034  1.00  0.00    -0.016 C
HETATM   12  C12 UNL     1       8.338 -25.683 -17.229  1.00  0.00     0.020 C
HETATM   13  C13 UNL     1       9.544 -27.689 -16.579  1.00  0.00    -0.068 C
HETATM   14  C14 UNL     1       9.620 -27.644 -15.262  1.00  0.00    -0.022 C
HETATM   15  C15 UNL     1       8.335 -27.136 -14.720  1.00  0.00     0.034 C
HETATM   16  C16 UNL     1       7.339 -27.434 -15.853  1.00  0.00     0.014 C
HETATM   17  C20 UNL     1      10.528 -28.134 -17.569  1.00  0.00     0.048 C
HETATM   18  C21 UNL     1      11.158 -27.028 -18.343  1.00  0.00     0.127 C
HETATM   19  C22 UNL     1      12.424 -27.608 -18.959  1.00  0.00     0.042 C
ENDROOT
BRANCH  16  20
HETATM   20  C17 UNL     1       6.119 -26.627 -15.664  1.00  0.00     0.076 C
BRANCH  20  21
HETATM   21  C18 UNL     1       6.168 -25.750 -14.473  1.00  0.00     0.238 C
HETATM   22  O2  UNL     1       5.283 -24.952 -14.222  1.00  0.00    -0.306 OA
ENDBRANCH  20  21
BRANCH  20  23
HETATM   23  C19 UNL     1       5.777 -25.708 -16.838  1.00  0.00     0.176 C
BRANCH  23  24
HETATM   24  O3  UNL     1       5.010 -26.314 -17.811  1.00  0.00    -0.400 OA
ATOM     25  H3  UNL     1       5.504 -26.573 -18.580  1.00  0.00     0.209 HD
ENDBRANCH  23  24
ENDBRANCH  20  23
ENDBRANCH  16  20
BRANCH  18  26
HETATM   26  O4  UNL     1      11.584 -25.970 -17.543  1.00  0.00    -0.395 OA
ATOM     27  H4  UNL     1      10.892 -25.606 -17.002  1.00  0.00     0.210 HD
ENDBRANCH  18  26
BRANCH   4  28
HETATM   28  O1  UNL     1      12.640 -29.540 -23.309  1.00  0.00    -0.396 OA
ATOM     29  H1  UNL     1      13.004 -30.412 -23.212  1.00  0.00     0.210 HD
ENDBRANCH   4  28
TORSDOF 6
ENDMDL