MODEL 1
REMARK VINA RESULT: -9.742718536      0.000      0.000
REMARK  6 active torsions:
REMARK  status: ('A' for Active; 'I' for Inactive)
REMARK    1  A    between atoms: C11_11  and  O1_12
REMARK    2  A    between atoms: C13_15  and  O2_16
REMARK    3  A    between atoms: C19_23  and  C20_24
REMARK    4  A    between atoms: C20_24  and  C21_26
REMARK    5  A    between atoms: C21_26  and  C22_27
REMARK    6  A    between atoms: C22_27  and  O4_28
ROOT
HETATM    1  C1  UNL     1       8.310 -26.023 -14.623  1.00  0.00     0.016 C
HETATM    2  C2  UNL     1       7.939 -25.995 -16.047  1.00  0.00    -0.030 C
HETATM    3  C3  UNL     1       8.839 -25.286 -16.962  1.00  0.00     0.011 C
HETATM    4  C4  UNL     1      10.015 -26.057 -17.498  1.00  0.00     0.007 C
HETATM    5  C5  UNL     1       9.608 -27.413 -18.027  1.00  0.00     0.001 C
HETATM    6  C6  UNL     1       8.763 -28.196 -17.026  1.00  0.00    -0.005 C
HETATM    7  C7  UNL     1       9.693 -28.755 -16.014  1.00  0.00     0.006 C
HETATM    8  C8  UNL     1      10.389 -29.914 -16.750  1.00  0.00     0.006 C
HETATM    9  C9  UNL     1      11.284 -29.298 -17.770  1.00  0.00    -0.001 C
HETATM   10  C10 UNL     1      12.626 -28.887 -17.173  1.00  0.00     0.037 C
HETATM   11  C11 UNL     1      13.600 -28.792 -18.300  1.00  0.00     0.121 C
HETATM   12  C12 UNL     1      12.882 -28.511 -19.628  1.00  0.00     0.064 C
HETATM   13  C13 UNL     1      11.803 -27.477 -19.257  1.00  0.00     0.129 C
HETATM   14  C14 UNL     1      10.659 -28.238 -18.624  1.00  0.00    -0.010 C
HETATM   15  C15 UNL     1      10.001 -28.993 -19.803  1.00  0.00     0.018 C
HETATM   16  C16 UNL     1       7.647 -27.372 -16.625  1.00  0.00    -0.001 C
HETATM   17  C17 UNL     1       6.640 -27.886 -15.670  1.00  0.00     0.006 C
HETATM   18  C18 UNL     1       5.781 -26.632 -15.429  1.00  0.00     0.013 C
HETATM   19  C19 UNL     1       6.500 -25.512 -16.140  1.00  0.00     0.064 C
ENDROOT
BRANCH  19  20
HETATM   20  C20 UNL     1       6.274 -24.168 -15.699  1.00  0.00     0.133 C
HETATM   21  O3  UNL     1       5.730 -24.079 -14.558  1.00  0.00    -0.297 OA
BRANCH  20  22
HETATM   22  C21 UNL     1       6.553 -22.872 -16.311  1.00  0.00     0.104 C
BRANCH  22  23
HETATM   23  C22 UNL     1       5.626 -21.810 -15.731  1.00  0.00     0.171 C
BRANCH  23  24
HETATM   24  O4  UNL     1       6.227 -21.158 -14.656  1.00  0.00    -0.400 OA
ATOM     25  H4  UNL     1       6.577 -20.316 -14.922  1.00  0.00     0.209 HD
ENDBRANCH  23  24
ENDBRANCH  22  23
ENDBRANCH  20  22
ENDBRANCH  19  20
BRANCH  13  26
HETATM   26  O2  UNL     1      12.457 -26.591 -18.444  1.00  0.00    -0.395 OA
ATOM     27  H2  UNL     1      11.864 -26.466 -17.714  1.00  0.00     0.210 HD
ENDBRANCH  13  26
BRANCH  11  28
HETATM   28  O1  UNL     1      14.297 -29.997 -18.505  1.00  0.00    -0.395 OA
ATOM     29  H1  UNL     1      15.238 -29.878 -18.465  1.00  0.00     0.210 HD
ENDBRANCH  11  28
TORSDOF 6
ENDMDL