MODEL 2
REMARK VINA RESULT: -5.636196414      1.948      3.417
REMARK  5 active torsions:
REMARK  status: ('A' for Active; 'I' for Inactive)
REMARK    1  A    between atoms: C2_2  and  C4_4
REMARK    2  A    between atoms: C4_4  and  C5_5
REMARK    3  A    between atoms: C5_5  and  O1_6
REMARK    4  A    between atoms: C9_11  and  O2_12
REMARK    5  A    between atoms: C22_27  and  O4_28
ROOT
HETATM    1  C4  UNL     1       7.674 -26.214 -15.532  1.00  0.00     0.041 C
HETATM    2  C6  UNL     1       6.501 -26.903 -16.248  1.00  0.00     0.049 C
HETATM    3  C7  UNL     1       6.453 -28.362 -15.980  1.00  0.00    -0.020 C
HETATM    4  C8  UNL     1       7.246 -29.419 -15.931  1.00  0.00     0.001 C
HETATM    5  C9  UNL     1       8.666 -29.745 -16.122  1.00  0.00     0.148 C
HETATM    6  C10 UNL     1       9.536 -28.759 -16.713  1.00  0.00     0.064 C
HETATM    7  C11 UNL     1      10.130 -29.023 -18.092  1.00  0.00    -0.028 C
HETATM    8  C12 UNL     1       9.257 -29.731 -19.078  1.00  0.00     0.016 C
HETATM    9  C13 UNL     1      11.429 -29.706 -17.962  1.00  0.00     0.010 C
HETATM   10  C14 UNL     1      12.661 -28.936 -17.784  1.00  0.00     0.002 C
HETATM   11  C15 UNL     1      12.506 -27.517 -17.356  1.00  0.00     0.009 C
HETATM   12  C16 UNL     1      11.424 -26.916 -18.214  1.00  0.00    -0.040 C
HETATM   13  C17 UNL     1      12.052 -27.141 -19.631  1.00  0.00     0.015 C
HETATM   14  C18 UNL     1      11.504 -25.427 -18.067  1.00  0.00     0.015 C
HETATM   15  C19 UNL     1      10.117 -27.524 -18.260  1.00  0.00     0.040 C
HETATM   16  C20 UNL     1       9.021 -27.495 -17.272  1.00  0.00     0.100 C
HETATM   17  O3  UNL     1       7.804 -27.731 -17.907  1.00  0.00    -0.376 OA
HETATM   18  C21 UNL     1       6.868 -26.747 -17.720  1.00  0.00     0.178 C
HETATM   19  C22 UNL     1       8.960 -26.439 -16.233  1.00  0.00     0.169 C
ENDROOT
BRANCH   1  20
HETATM   20  C2  UNL     1       7.243 -24.782 -15.473  1.00  0.00    -0.079 C
HETATM   21  C1  UNL     1       6.094 -24.534 -14.828  1.00  0.00     0.015 C
HETATM   22  C3  UNL     1       7.978 -23.653 -16.102  1.00  0.00     0.043 C
ENDBRANCH   1  20
BRANCH   1  23
HETATM   23  C5  UNL     1       7.588 -26.704 -14.108  1.00  0.00     0.181 C
BRANCH  23  24
HETATM   24  O1  UNL     1       8.233 -25.802 -13.279  1.00  0.00    -0.400 OA
ATOM     25  H1  UNL     1       7.588 -25.362 -12.738  1.00  0.00     0.209 HD
ENDBRANCH  23  24
ENDBRANCH   1  23
BRANCH  19  26
HETATM   26  O4  UNL     1       9.932 -26.538 -15.244  1.00  0.00    -0.391 OA
ATOM     27  H4  UNL     1      10.537 -25.820 -15.392  1.00  0.00     0.210 HD
ENDBRANCH  19  26
BRANCH   5  28
HETATM   28  O2  UNL     1       8.794 -31.028 -16.713  1.00  0.00    -0.391 OA
ATOM     29  H2  UNL     1       9.608 -31.433 -16.439  1.00  0.00     0.210 HD
ENDBRANCH   5  28
TORSDOF 5
ENDMDL