MODEL 1
REMARK VINA RESULT: -10.473486764      0.000      0.000
REMARK  3 active torsions:
REMARK  status: ('A' for Active; 'I' for Inactive)
REMARK    1  A    between atoms: C11_11  and  N1_12
REMARK    2  A    between atoms: N1_12  and  S1_14
REMARK    3  A    between atoms: C18_24  and  O4_25
ROOT
HETATM    1  C1  UNL     1       6.369 -27.765 -15.568  1.00  0.00     0.018 C
HETATM    2  C2  UNL     1       7.224 -26.545 -15.686  1.00  0.00    -0.014 C
HETATM    3  C3  UNL     1       7.340 -26.005 -17.060  1.00  0.00     0.012 C
HETATM    4  C4  UNL     1       8.007 -27.082 -17.889  1.00  0.00     0.007 C
HETATM    5  C5  UNL     1       9.392 -27.416 -17.422  1.00  0.00    -0.002 C
HETATM    6  C6  UNL     1       9.550 -27.498 -15.936  1.00  0.00    -0.005 C
HETATM    7  C7  UNL     1       9.671 -28.927 -15.419  1.00  0.00     0.006 C
HETATM    8  C8  UNL     1      10.804 -29.655 -16.098  1.00  0.00     0.006 C
HETATM    9  C9  UNL     1      11.195 -29.040 -17.398  1.00  0.00    -0.004 C
HETATM   10  C10 UNL     1      11.819 -29.972 -18.377  1.00  0.00     0.031 C
HETATM   11  C11 UNL     1      11.484 -29.403 -19.764  1.00  0.00     0.096 C
HETATM   12  C12 UNL     1      10.509 -28.261 -19.496  1.00  0.00     0.035 C
HETATM   13  C13 UNL     1       9.910 -28.626 -18.129  1.00  0.00    -0.035 C
HETATM   14  C14 UNL     1       8.967 -29.730 -18.330  1.00  0.00     0.016 C
HETATM   15  C15 UNL     1       8.619 -26.676 -15.148  1.00  0.00     0.001 C
HETATM   16  C16 UNL     1       8.353 -27.092 -13.747  1.00  0.00     0.008 C
HETATM   17  C17 UNL     1       7.166 -26.215 -13.367  1.00  0.00     0.033 C
HETATM   18  C18 UNL     1       6.683 -25.552 -14.666  1.00  0.00     0.126 C
ENDROOT
BRANCH  11  19
HETATM   19  N1  UNL     1      10.907 -30.416 -20.619  1.00  0.00    -0.296 N
ATOM     20  H1  UNL     1      10.264 -31.136 -20.286  1.00  0.00     0.175 HD
BRANCH  19  21
HETATM   21  S1  UNL     1      11.414 -30.281 -22.244  1.00  0.00     0.204 S
HETATM   22  O1  UNL     1      11.353 -31.631 -22.891  1.00  0.00    -0.578 OA
HETATM   23  O2  UNL     1      10.466 -29.379 -22.968  1.00  0.00    -0.578 OA
HETATM   24  O3  UNL     1      12.950 -29.620 -22.304  1.00  0.00    -0.578 OA
ENDBRANCH  19  21
ENDBRANCH  11  19
BRANCH  18  25
HETATM   25  O4  UNL     1       5.309 -25.598 -14.682  1.00  0.00    -0.395 OA
ATOM     26  H4  UNL     1       4.973 -24.729 -14.872  1.00  0.00     0.210 HD
ENDBRANCH  18  25
TORSDOF 3
ENDMDL