MODEL 4
REMARK VINA RESULT: -7.154665637      3.498      5.980
REMARK  5 active torsions:
REMARK  status: ('A' for Active; 'I' for Inactive)
REMARK    1  A    between atoms: C2_2  and  O1_3
REMARK    2  A    between atoms: O1_3  and  C3_4
REMARK    3  A    between atoms: C8_9  and  O2_10
REMARK    4  A    between atoms: C10_13  and  O3_14
REMARK    5  A    between atoms: C17_22  and  O4_23
ROOT
HETATM    1  C3  UNL     1       8.397 -26.078 -14.082  1.00  0.00     0.127 C
HETATM    2  C4  UNL     1       7.287 -25.345 -13.288  1.00  0.00     0.042 C
HETATM    3  C5  UNL     1       6.379 -24.513 -14.145  1.00  0.00    -0.033 C
HETATM    4  C6  UNL     1       5.070 -25.185 -14.249  1.00  0.00     0.016 C
HETATM    5  C7  UNL     1       6.128 -23.159 -13.458  1.00  0.00     0.041 C
HETATM    6  C8  UNL     1       5.210 -22.292 -14.249  1.00  0.00     0.121 C
HETATM    7  C9  UNL     1       5.264 -22.456 -15.724  1.00  0.00     0.063 C
HETATM    8  C10 UNL     1       6.615 -22.971 -16.144  1.00  0.00     0.125 C
HETATM    9  C11 UNL     1       7.094 -24.177 -15.401  1.00  0.00     0.027 C
HETATM   10  C12 UNL     1       7.422 -25.351 -16.258  1.00  0.00     0.000 C
HETATM   11  C13 UNL     1       6.308 -25.961 -17.038  1.00  0.00     0.006 C
HETATM   12  C14 UNL     1       7.027 -26.816 -18.086  1.00  0.00     0.006 C
HETATM   13  C15 UNL     1       7.882 -27.829 -17.433  1.00  0.00    -0.004 C
HETATM   14  C16 UNL     1       8.615 -28.593 -18.472  1.00  0.00     0.037 C
HETATM   15  C17 UNL     1       9.936 -28.047 -18.880  1.00  0.00     0.118 C
HETATM   16  C18 UNL     1      10.286 -26.741 -18.225  1.00  0.00     0.032 C
HETATM   17  C19 UNL     1      10.006 -26.671 -16.776  1.00  0.00     0.012 C
HETATM   18  C20 UNL     1       8.759 -27.337 -16.285  1.00  0.00    -0.034 C
HETATM   19  C21 UNL     1       9.191 -28.641 -15.614  1.00  0.00     0.016 C
HETATM   20  C22 UNL     1       7.911 -26.512 -15.384  1.00  0.00     0.028 C
ENDROOT
BRANCH   1  21
HETATM   21  O1  UNL     1       8.885 -26.993 -13.207  1.00  0.00    -0.386 OA
BRANCH  21  22
HETATM   22  C2  UNL     1       8.112 -27.616 -12.308  1.00  0.00     0.163 C
HETATM   23  C1  UNL     1       8.187 -29.114 -12.206  1.00  0.00     0.033 C
ENDBRANCH  21  22
ENDBRANCH   1  21
BRANCH   6  24
HETATM   24  O2  UNL     1       3.889 -22.397 -13.755  1.00  0.00    -0.395 OA
ATOM     25  H2  UNL     1       3.268 -22.410 -14.474  1.00  0.00     0.210 HD
ENDBRANCH   6  24
BRANCH   8  26
HETATM   26  O3  UNL     1       6.669 -23.148 -17.549  1.00  0.00    -0.395 OA
ATOM     27  H3  UNL     1       6.538 -24.061 -17.779  1.00  0.00     0.210 HD
ENDBRANCH   8  26
BRANCH  15  28
HETATM   28  O4  UNL     1      10.954 -28.983 -18.581  1.00  0.00    -0.396 OA
ATOM     29  H4  UNL     1      10.571 -29.840 -18.436  1.00  0.00     0.210 HD
ENDBRANCH  15  28
TORSDOF 5
ENDMDL