MODEL 2
REMARK VINA RESULT: -5.721918201      1.187      1.328
REMARK  6 active torsions:
REMARK  status: ('A' for Active; 'I' for Inactive)
REMARK    1  A    between atoms: C2_2  and  N1_4
REMARK    2  A    between atoms: C7_15  and  C8_16
REMARK    3  A    between atoms: C8_16  and  C9_17
REMARK    4  A    between atoms: C8_16  and  S1_24
REMARK    5  A    between atoms: C9_17  and  N5_18
REMARK    6  A    between atoms: C9_17  and  O1_22
ROOT
HETATM    1  N1  UNL     1     -15.324  -0.800 -16.851  1.00  0.00    -0.369 N
ATOM      2  H1  UNL     1     -15.936  -1.191 -16.135  1.00  0.00     0.161 HD
HETATM    3  C4  UNL     1     -14.414   0.065 -16.533  1.00  0.00     0.147 A
HETATM    4  N2  UNL     1     -13.554   0.648 -17.385  1.00  0.00    -0.282 N
ATOM      5  H2  UNL     1     -13.491   0.498 -18.393  1.00  0.00     0.188 HD
HETATM    6  N3  UNL     1     -12.807   1.455 -16.654  1.00  0.00    -0.282 N
ATOM      7  H3  UNL     1     -12.057   2.037 -17.028  1.00  0.00     0.188 HD
HETATM    8  C5  UNL     1     -13.155   1.413 -15.358  1.00  0.00     0.154 A
HETATM    9  C6  UNL     1     -14.196   0.521 -15.240  1.00  0.00     0.125 A
HETATM   10  N4  UNL     1     -14.536   0.486 -13.950  1.00  0.00    -0.335 N
ATOM     11  H4  UNL     1     -15.282  -0.090 -13.560  1.00  0.00     0.168 HD
HETATM   12  C7  UNL     1     -13.734   1.341 -13.216  1.00  0.00     0.131 A
HETATM   13  N6  UNL     1     -12.899   1.895 -14.098  1.00  0.00    -0.320 N
HETATM   14  C11 UNL     1     -11.854   2.840 -13.886  1.00  0.00     0.159 C
ENDROOT
BRANCH  12  15
HETATM   15  C8  UNL     1     -13.820   1.540 -11.774  1.00  0.00     0.136 C
BRANCH  15  16
HETATM   16  C9  UNL     1     -14.407   2.842 -11.311  1.00  0.00     0.365 C
BRANCH  16  17
HETATM   17  N5  UNL     1     -15.789   2.642 -10.833  1.00  0.00    -0.048 N
ATOM     18  H53 UNL     1     -16.233   1.839 -11.278  1.00  0.00     0.277 HD
ATOM     19  H52 UNL     1     -15.813   2.313  -9.868  1.00  0.00     0.277 HD
ATOM     20  H51 UNL     1     -16.336   3.495 -10.957  1.00  0.00     0.277 HD
ENDBRANCH  16  17
BRANCH  16  21
HETATM   21  O1  UNL     1     -13.684   3.264 -10.176  1.00  0.00    -0.366 OA
ATOM     22  H1  UNL     1     -14.283   3.286  -9.439  1.00  0.00     0.212 HD
ENDBRANCH  16  21
ENDBRANCH  15  16
BRANCH  15  23
HETATM   23  S1  UNL     1     -14.371   0.141 -10.841  1.00  0.00     0.176 S
HETATM   24  C10 UNL     1     -13.335  -1.250 -10.857  1.00  0.00     0.166 C
HETATM   25  O2  UNL     1     -14.641   0.521  -9.400  1.00  0.00    -0.223 OA
HETATM   26  O3  UNL     1     -15.739  -0.234 -11.402  1.00  0.00    -0.223 OA
ENDBRANCH  15  23
ENDBRANCH  12  15
BRANCH   1  27
HETATM   27  C2  UNL     1     -15.464  -1.205 -18.233  1.00  0.00     0.075 C
HETATM   28  C1  UNL     1     -16.927  -1.377 -18.585  1.00  0.00     0.031 C
HETATM   29  C3  UNL     1     -14.688  -2.479 -18.524  1.00  0.00     0.031 C
ENDBRANCH   1  27
TORSDOF 6
ENDMDL