MODEL 2
REMARK VINA RESULT: -5.533040396      1.091      1.091
REMARK  4 active torsions:
REMARK  status: ('A' for Active; 'I' for Inactive)
REMARK    1  A    between atoms: C2_5  and  C3_6
REMARK    2  A    between atoms: C4_9  and  S1_10
REMARK    3  A    between atoms: S1_10  and  C5_11
REMARK    4  A    between atoms: C8_19  and  C9_20
ROOT
HETATM    1  S1  UNL     1     -13.509   2.178 -13.716  1.00  0.00    -0.122 SA
ENDROOT
BRANCH   1   2
HETATM    2  C4  UNL     1     -13.159   1.648 -15.402  1.00  0.00     0.022 C
HETATM    3  C2  UNL     1     -11.941   1.898 -15.849  1.00  0.00     0.125 C
HETATM    4  N2  UNL     1     -11.469   1.555 -17.127  1.00  0.00    -0.333 N
HETATM    5  C1  UNL     1     -12.124   0.956 -18.033  1.00  0.00     0.155 C
ATOM      6  H2  UNL     1     -10.507   1.813 -17.348  1.00  0.00     0.168 HD
HETATM    7  N1  UNL     1     -11.567   0.653 -19.308  1.00  0.00    -0.075 NA
HETATM    8  S2  UNL     1     -13.769   0.380 -17.712  1.00  0.00    -0.092 SA
HETATM    9  C10 UNL     1     -14.285   1.035 -16.120  1.00  0.00     0.130 C
BRANCH   3  10
HETATM   10  C3  UNL     1     -10.981   2.578 -14.966  1.00  0.00     0.228 C
HETATM   11  O1  UNL     1     -10.871   3.810 -15.018  1.00  0.00    -0.643 OA
HETATM   12  O2  UNL     1     -10.205   1.853 -14.086  1.00  0.00    -0.643 OA
ENDBRANCH   3  10
ENDBRANCH   1   2
BRANCH   1  13
HETATM   13  C5  UNL     1     -14.001   0.836 -12.628  1.00  0.00     0.099 C
HETATM   14  C6  UNL     1     -12.690   0.296 -12.038  1.00  0.00     0.142 C
HETATM   15  N3  UNL     1     -12.913  -0.816 -11.160  1.00  0.00    -0.342 N
HETATM   16  C7  UNL     1     -14.008  -0.738 -10.262  1.00  0.00     0.316 C
ATOM     17  H3  UNL     1     -12.305  -1.635 -11.180  1.00  0.00     0.164 HD
HETATM   18  O3  UNL     1     -14.239  -1.656  -9.406  1.00  0.00    -0.247 OA
HETATM   19  N4  UNL     1     -14.829   0.396 -10.353  1.00  0.00    -0.331 N
HETATM   20  C8  UNL     1     -14.912   1.279 -11.510  1.00  0.00     0.163 C
ATOM     21  H4  UNL     1     -15.414   0.620  -9.547  1.00  0.00     0.165 HD
BRANCH  20  22
HETATM   22  C9  UNL     1     -14.639   2.652 -11.024  1.00  0.00     0.257 C
HETATM   23  O4  UNL     1     -13.857   2.891 -10.126  1.00  0.00    -0.305 OA
ENDBRANCH  20  22
ENDBRANCH   1  13
TORSDOF 4
ENDMDL