MODEL 2
REMARK VINA RESULT: -5.534678821      1.594      2.178
REMARK  7 active torsions:
REMARK  status: ('A' for Active; 'I' for Inactive)
REMARK    1  A    between atoms: C5_12  and  C6_13
REMARK    2  A    between atoms: C6_13  and  N4_14
REMARK    3  A    between atoms: N4_14  and  C7_15
REMARK    4  A    between atoms: C7_15  and  C8_16
REMARK    5  A    between atoms: C8_16  and  N5_17
REMARK       I    between atoms: N5_17  and  C9_19
REMARK    6  A    between atoms: C9_19  and  C10_21
REMARK    7  A    between atoms: C10_21  and  N6_24
ROOT
HETATM    1  C1  UNL     1     -12.568   2.769 -13.251  1.00  0.00     0.163 C
HETATM    2  N1  UNL     1     -13.500   1.985 -12.477  1.00  0.00    -0.288 N
HETATM    3  C2  UNL     1     -13.960   2.318 -11.269  1.00  0.00     0.330 A
HETATM    4  O1  UNL     1     -13.529   3.414 -10.781  1.00  0.00    -0.246 OA
HETATM    5  N2  UNL     1     -14.829   1.590 -10.553  1.00  0.00    -0.273 N
ATOM      6  H2  UNL     1     -15.138   1.907  -9.635  1.00  0.00     0.173 HD
HETATM    7  C3  UNL     1     -15.285   0.431 -11.070  1.00  0.00     0.280 A
HETATM    8  O2  UNL     1     -16.092  -0.327 -10.497  1.00  0.00    -0.265 OA
HETATM    9  C4  UNL     1     -14.841   0.038 -12.317  1.00  0.00     0.147 A
HETATM   10  N3  UNL     1     -15.077  -1.024 -13.110  1.00  0.00    -0.333 N
ATOM     11  H3  UNL     1     -15.700  -1.799 -12.886  1.00  0.00     0.168 HD
HETATM   12  C5  UNL     1     -14.368  -0.903 -14.241  1.00  0.00     0.136 A
HETATM   13  N7  UNL     1     -13.680   0.227 -14.174  1.00  0.00    -0.324 N
ATOM     14  H7  UNL     1     -13.049   0.581 -14.893  1.00  0.00     0.169 HD
HETATM   15  C13 UNL     1     -13.951   0.829 -13.002  1.00  0.00     0.145 A
ENDROOT
BRANCH  12  16
HETATM   16  C6  UNL     1     -14.358  -1.873 -15.360  1.00  0.00     0.230 C
BRANCH  16  17
HETATM   17  N4  UNL     1     -14.937  -1.740 -16.367  1.00  0.00    -0.425 NA
BRANCH  17  18
HETATM   18  C7  UNL     1     -15.487  -1.442 -17.519  1.00  0.00     0.198 C
BRANCH  18  19
HETATM   19  C8  UNL     1     -15.549  -0.218 -18.102  1.00  0.00     0.122 C
BRANCH  19  20
HETATM   20  N5  UNL     1     -14.395   0.446 -18.541  1.00  0.00    -0.333 N
HETATM   21  C9  UNL     1     -13.751   1.424 -17.773  1.00  0.00     0.257 C
HETATM   22  O3  UNL     1     -14.220   1.728 -16.640  1.00  0.00    -0.270 OA
ATOM     23  H5  UNL     1     -14.009   0.208 -19.455  1.00  0.00     0.168 HD
BRANCH  21  24
HETATM   24  C10 UNL     1     -12.527   2.144 -18.210  1.00  0.00     0.196 C
HETATM   25  C11 UNL     1     -11.940   2.831 -16.983  1.00  0.00     0.056 C
HETATM   26  C12 UNL     1     -12.849   3.236 -19.207  1.00  0.00     0.056 C
BRANCH  24  27
HETATM   27  N6  UNL     1     -11.520   1.242 -18.718  1.00  0.00    -0.062 N
ATOM     28  H63 UNL     1     -10.608   1.434 -18.302  1.00  0.00     0.275 HD
ATOM     29  H62 UNL     1     -11.660   0.295 -18.366  1.00  0.00     0.275 HD
ATOM     30  H61 UNL     1     -11.472   1.255 -19.736  1.00  0.00     0.275 HD
ENDBRANCH  24  27
ENDBRANCH  21  24
ENDBRANCH  19  20
ENDBRANCH  18  19
ENDBRANCH  17  18
ENDBRANCH  16  17
ENDBRANCH  12  16
TORSDOF 7
ENDMDL