MODEL 2
REMARK VINA RESULT: -5.680766251      1.594      2.110
REMARK  5 active torsions:
REMARK  status: ('A' for Active; 'I' for Inactive)
REMARK    1  A    between atoms: C2_2  and  N1_4
REMARK       I    between atoms: N1_4  and  C5_6
REMARK       I    between atoms: C5_6  and  N2_8
REMARK    2  A    between atoms: N2_8  and  S1_10
REMARK    3  A    between atoms: S1_10  and  C6_13
REMARK    4  A    between atoms: C8_17  and  C9_18
REMARK       I    between atoms: C9_18  and  N4_20
REMARK    5  A    between atoms: N4_20  and  N5_22
ROOT
HETATM    1  C6  UNL     1     -13.771   0.535 -14.610  1.00  0.00     0.097 A
HETATM    2  C7  UNL     1     -14.142  -0.748 -14.296  1.00  0.00     0.113 A
HETATM    3  N3  UNL     1     -14.249  -1.154 -13.041  1.00  0.00    -0.358 N
ATOM      4  H3  UNL     1     -14.529  -2.118 -12.859  1.00  0.00     0.165 HD
HETATM    5  C8  UNL     1     -13.999  -0.332 -11.981  1.00  0.00     0.126 A
HETATM    6  C10 UNL     1     -13.629   0.951 -12.269  1.00  0.00     0.080 A
HETATM    7  N6  UNL     1     -13.332   1.883 -11.238  1.00  0.00    -0.100 NA
HETATM    8  C11 UNL     1     -13.507   1.406 -13.580  1.00  0.00     0.055 A
ENDROOT
BRANCH   1   9
HETATM    9  S1  UNL     1     -13.591   1.098 -16.282  1.00  0.00     0.268 S
HETATM   10  O2  UNL     1     -14.930   1.560 -16.802  1.00  0.00    -0.200 OA
HETATM   11  O3  UNL     1     -13.085  -0.101 -17.069  1.00  0.00    -0.200 OA
BRANCH   9  12
HETATM   12  N2  UNL     1     -12.504   2.405 -16.323  1.00  0.00    -0.232 N
HETATM   13  C5  UNL     1     -11.117   2.366 -16.050  1.00  0.00     0.332 C
HETATM   14  N1  UNL     1     -10.280   3.498 -16.103  1.00  0.00    -0.334 N
HETATM   15  O1  UNL     1     -10.629   1.228 -15.741  1.00  0.00    -0.246 OA
HETATM   16  C4  UNL     1     -10.853   4.775 -16.465  1.00  0.00     0.154 C
ATOM     17  H2  UNL     1     -12.894   3.314 -16.570  1.00  0.00     0.183 HD
BRANCH  14  18
HETATM   18  C2  UNL     1      -8.879   3.402 -15.797  1.00  0.00     0.080 C
HETATM   19  C1  UNL     1      -8.119   4.277 -16.784  1.00  0.00     0.032 C
HETATM   20  C3  UNL     1      -8.584   3.824 -14.368  1.00  0.00     0.032 C
ENDBRANCH  14  18
ENDBRANCH   9  12
ENDBRANCH   1   9
BRANCH   5  21
HETATM   21  C9  UNL     1     -14.127  -0.824 -10.618  1.00  0.00     0.288 C
HETATM   22  O4  UNL     1     -15.233  -0.778 -10.025  1.00  0.00    -0.264 OA
HETATM   23  N4  UNL     1     -13.009  -1.365  -9.930  1.00  0.00    -0.271 N
ATOM     24  H4  UNL     1     -12.109  -1.408 -10.407  1.00  0.00     0.189 HD
BRANCH  23  25
HETATM   25  N5  UNL     1     -13.105  -1.840  -8.615  1.00  0.00    -0.342 N
ATOM     26  H52 UNL     1     -13.517  -2.762  -8.468  1.00  0.00     0.176 HD
ATOM     27  H51 UNL     1     -12.777  -1.295  -7.817  1.00  0.00     0.176 HD
ENDBRANCH  23  25
ENDBRANCH   5  21
TORSDOF 5
ENDMDL