MODEL 4
REMARK VINA RESULT: -5.152668247      1.254      5.459
REMARK  6 active torsions:
REMARK  status: ('A' for Active; 'I' for Inactive)
REMARK    1  A    between atoms: C2_2  and  N1_4
REMARK    2  A    between atoms: C5_9  and  N3_10
REMARK    3  A    between atoms: N5_19  and  C11_21
REMARK    4  A    between atoms: C11_21  and  C13_23
REMARK    5  A    between atoms: C13_23  and  N6_24
REMARK    6  A    between atoms: C14_28  and  N7_29
ROOT
HETATM    1  N1  UNL     1     -11.858   2.784 -16.370  1.00  0.00    -0.222 N
ATOM      2  H1  UNL     1     -11.487   3.363 -15.616  1.00  0.00     0.178 HD
HETATM    3  C4  UNL     1     -12.522   1.750 -16.038  1.00  0.00     0.694 C
HETATM    4  N2  UNL     1     -12.673   1.518 -14.700  1.00  0.00    -0.022 N
ATOM      5  H2  UNL     1     -12.000   1.997 -14.102  1.00  0.00     0.203 HD
HETATM    6  C5  UNL     1     -13.564   0.761 -14.050  1.00  0.00     0.696 C
HETATM    7  N4  UNL     1     -14.037  -0.424 -14.492  1.00  0.00    -0.173 N
ATOM      8  H4  UNL     1     -14.460  -1.012 -13.774  1.00  0.00     0.186 HD
HETATM    9  C10 UNL     1     -14.040  -0.950 -15.726  1.00  0.00     0.162 C
HETATM   10  N5  UNL     1     -14.258  -2.139 -15.979  1.00  0.00    -0.367 N
ATOM     11  H5  UNL     1     -14.223  -2.366 -16.973  1.00  0.00     0.161 HD
HETATM   12  C14 UNL     1     -13.781  -0.170 -16.871  1.00  0.00     0.159 C
HETATM   13  N8  UNL     1     -13.026   0.961 -16.996  1.00  0.00    -0.173 N
ATOM     14  H8  UNL     1     -12.815   1.244 -17.954  1.00  0.00     0.186 HD
ENDROOT
BRANCH  10  15
HETATM   15  C11 UNL     1     -14.543  -3.233 -15.157  1.00  0.00     0.104 C
HETATM   16  C12 UNL     1     -15.374  -4.332 -15.773  1.00  0.00     0.034 C
BRANCH  15  17
HETATM   17  C13 UNL     1     -13.294  -3.866 -14.542  1.00  0.00     0.254 C
BRANCH  17  18
HETATM   18  N6  UNL     1     -13.198  -3.644 -13.139  1.00  0.00    -0.077 N
ATOM     19  H63 UNL     1     -13.994  -3.104 -12.799  1.00  0.00     0.274 HD
ATOM     20  H62 UNL     1     -13.352  -4.508 -12.620  1.00  0.00     0.274 HD
ATOM     21  H61 UNL     1     -12.318  -3.206 -12.868  1.00  0.00     0.274 HD
ENDBRANCH  17  18
ENDBRANCH  15  17
ENDBRANCH  10  15
BRANCH  12  22
HETATM   22  N7  UNL     1     -14.322  -0.559 -17.972  1.00  0.00    -0.382 N
ATOM     23  H72 UNL     1     -15.327  -0.721 -17.903  1.00  0.00     0.157 HD
ATOM     24  H71 UNL     1     -13.704  -0.662 -18.777  1.00  0.00     0.157 HD
ENDBRANCH  12  22
BRANCH   6  25
HETATM   25  N3  UNL     1     -14.048   1.250 -12.822  1.00  0.00    -0.213 N
HETATM   26  C6  UNL     1     -13.534   2.456 -12.195  1.00  0.00     0.167 C
HETATM   27  C7  UNL     1     -14.458   2.839 -11.039  1.00  0.00     0.188 C
HETATM   28  O1  UNL     1     -14.536   1.846 -10.087  1.00  0.00    -0.388 OA
HETATM   29  C8  UNL     1     -14.724   0.591 -10.603  1.00  0.00     0.188 C
HETATM   30  C9  UNL     1     -15.102   0.573 -12.073  1.00  0.00     0.167 C
ENDBRANCH   6  25
BRANCH   1  31
HETATM   31  C2  UNL     1     -11.589   3.200 -17.705  1.00  0.00     0.091 C
HETATM   32  C1  UNL     1     -10.278   2.733 -18.240  1.00  0.00     0.032 C
HETATM   33  C3  UNL     1     -11.544   4.745 -17.673  1.00  0.00     0.032 C
ENDBRANCH   1  31
TORSDOF 6
ENDMDL