MODEL 3
REMARK VINA RESULT: -5.334121164      1.686      2.994
REMARK  4 active torsions:
REMARK  status: ('A' for Active; 'I' for Inactive)
REMARK    1  A    between atoms: N1_2  and  N2_3
REMARK       I    between atoms: N1_2  and  C11_26
REMARK    2  A    between atoms: N3_5  and  C2_7
REMARK    3  A    between atoms: C3_8  and  C4_9
REMARK    4  A    between atoms: C5_14  and  N5_15
ROOT
HETATM    1  C2  UNL     1     -13.404   1.222 -14.562  1.00  0.00     0.152 A
HETATM    2  C3  UNL     1     -13.985   0.927 -15.785  1.00  0.00     0.159 A
HETATM    3  N4  UNL     1     -13.558   1.561 -16.903  1.00  0.00    -0.182 N
ATOM      4  H4  UNL     1     -13.984   1.347 -17.805  1.00  0.00     0.184 HD
HETATM    5  C5  UNL     1     -12.562   2.484 -16.823  1.00  0.00     0.684 A
HETATM    6  N7  UNL     1     -11.973   2.796 -15.650  1.00  0.00    -0.154 N
ATOM      7  H7  UNL     1     -11.228   3.491 -15.607  1.00  0.00     0.187 HD
HETATM    8  C10 UNL     1     -12.396   2.168 -14.538  1.00  0.00     0.290 A
HETATM    9  O3  UNL     1     -11.878   2.422 -13.408  1.00  0.00    -0.265 OA
ENDROOT
BRANCH   1  10
HETATM   10  N3  UNL     1     -13.866   0.545 -13.419  1.00  0.00    -0.279 N
HETATM   11  N2  UNL     1     -13.316   0.467 -12.303  1.00  0.00    -0.237 N
ATOM     12  H2  UNL     1     -12.423   0.923 -12.118  1.00  0.00     0.208 HD
ATOM     13  H3  UNL     1     -14.757   0.058 -13.515  1.00  0.00     0.189 HD
BRANCH  11  14
HETATM   14  N1  UNL     1     -13.973  -0.270 -11.317  1.00  0.00    -0.235 N
HETATM   15  C1  UNL     1     -13.252  -1.337 -10.658  1.00  0.00     0.184 C
HETATM   16  C11 UNL     1     -15.314  -0.030 -10.925  1.00  0.00     0.350 C
HETATM   17  N8  UNL     1     -16.047   1.009 -11.552  1.00  0.00    -0.038 NA
HETATM   18  O4  UNL     1     -15.891  -0.701 -10.038  1.00  0.00    -0.249 OA
ENDBRANCH  11  14
ENDBRANCH   1  10
BRANCH   2  19
HETATM   19  C4  UNL     1     -15.049  -0.064 -15.830  1.00  0.00     0.230 C
HETATM   20  O1  UNL     1     -16.185   0.179 -16.297  1.00  0.00    -0.643 OA
HETATM   21  O2  UNL     1     -14.794  -1.331 -15.334  1.00  0.00    -0.643 OA
ENDBRANCH   2  19
BRANCH   5  22
HETATM   22  N5  UNL     1     -12.157   3.108 -18.030  1.00  0.00    -0.214 N
HETATM   23  C6  UNL     1     -12.876   2.982 -19.274  1.00  0.00     0.160 C
HETATM   24  C7  UNL     1     -12.334   4.003 -20.228  1.00  0.00     0.134 C
HETATM   25  N6  UNL     1     -12.112   5.293 -19.655  1.00  0.00    -0.418 N
HETATM   26  C8  UNL     1     -11.376   5.314 -18.430  1.00  0.00     0.134 C
ATOM     27  H6  UNL     1     -12.457   6.147 -20.094  1.00  0.00     0.153 HD
HETATM   28  C9  UNL     1     -10.961   3.922 -18.034  1.00  0.00     0.160 C
ENDBRANCH   5  22
TORSDOF 4
ENDMDL