MODEL 1
REMARK VINA RESULT: -5.120072928      0.000      0.000
REMARK  6 active torsions:
REMARK  status: ('A' for Active; 'I' for Inactive)
REMARK       I    between atoms: C2_2  and  N1_4
REMARK    1  A    between atoms: N1_4  and  C3_6
REMARK    2  A    between atoms: C4_11  and  C5_12
REMARK       I    between atoms: C5_12  and  N4_14
REMARK    3  A    between atoms: N4_14  and  N5_16
REMARK       I    between atoms: N5_16  and  C6_18
REMARK    4  A    between atoms: C6_18  and  C7_20
REMARK    5  A    between atoms: C7_20  and  S1_22
REMARK    6  A    between atoms: S1_22  and  C9_23
ROOT
HETATM    1  C5  UNL     1     -11.920   2.782 -15.341  1.00  0.00     0.312 C
HETATM    2  O2  UNL     1     -11.848   2.954 -16.580  1.00  0.00    -0.262 OA
HETATM    3  N4  UNL     1     -11.046   3.451 -14.466  1.00  0.00    -0.260 N
ATOM      4  H4  UNL     1     -11.137   3.281 -13.464  1.00  0.00     0.190 HD
ENDROOT
BRANCH   1   5
HETATM    5  C4  UNL     1     -12.933   1.869 -14.807  1.00  0.00     0.236 A
HETATM    6  N3  UNL     1     -13.838   1.164 -15.533  1.00  0.00    -0.272 N
HETATM    7  N2  UNL     1     -14.541   0.481 -14.662  1.00  0.00    -0.263 N
ATOM      8  H3  UNL     1     -13.948   1.166 -16.547  1.00  0.00     0.189 HD
HETATM    9  C3  UNL     1     -14.086   0.752 -13.417  1.00  0.00     0.247 A
ATOM     10  H2  UNL     1     -15.308  -0.154 -14.887  1.00  0.00     0.190 HD
HETATM   11  O4  UNL     1     -13.104   1.603 -13.538  1.00  0.00    -0.254 OA
BRANCH   9  12
HETATM   12  N1  UNL     1     -14.575   0.230 -12.323  1.00  0.00    -0.292 N
HETATM   13  C2  UNL     1     -15.141   0.925 -11.257  1.00  0.00     0.220 C
HETATM   14  C1  UNL     1     -15.109   2.365 -10.982  1.00  0.00     0.117 C
HETATM   15  O1  UNL     1     -15.777   0.209 -10.398  1.00  0.00    -0.274 OA
ATOM     16  H1  UNL     1     -14.539  -0.786 -12.242  1.00  0.00     0.172 HD
ENDBRANCH   9  12
ENDBRANCH   1   5
BRANCH   3  17
HETATM   17  N5  UNL     1     -10.052   4.344 -14.908  1.00  0.00    -0.266 N
HETATM   18  C6  UNL     1      -8.717   4.065 -14.549  1.00  0.00     0.250 C
HETATM   19  O3  UNL     1      -8.443   3.061 -13.870  1.00  0.00    -0.271 OA
ATOM     20  H5  UNL     1     -10.289   5.164 -15.467  1.00  0.00     0.190 HD
BRANCH  18  21
HETATM   21  C7  UNL     1      -7.643   4.975 -14.989  1.00  0.00     0.144 C
HETATM   22  C8  UNL     1      -7.495   6.165 -14.062  1.00  0.00     0.031 C
BRANCH  21  23
HETATM   23  S1  UNL     1      -8.107   5.641 -16.635  1.00  0.00    -0.089 SA
BRANCH  23  24
HETATM   24  C9  UNL     1      -8.917   7.223 -16.432  1.00  0.00     0.150 C
HETATM   25  N6  UNL     1     -10.286   7.265 -16.013  1.00  0.00    -0.082 NA
HETATM   26  S2  UNL     1      -8.091   8.599 -16.727  1.00  0.00    -0.056 SA
ENDBRANCH  23  24
ENDBRANCH  21  23
ENDBRANCH  18  21
ENDBRANCH   3  17
TORSDOF 6
ENDMDL