MODEL 4
REMARK VINA RESULT: -6.102849537      1.927      2.376
REMARK  3 active torsions:
REMARK  status: ('A' for Active; 'I' for Inactive)
REMARK    1  A    between atoms: N1_2  and  C3_4
REMARK    2  A    between atoms: N2_7  and  C6_8
REMARK    3  A    between atoms: C8_16  and  C9_17
ROOT
HETATM    1  C6  UNL     1     -12.532   1.676 -15.126  1.00  0.00     0.683 A
HETATM    2  N3  UNL     1     -12.482   0.361 -14.851  1.00  0.00    -0.174 N
ATOM      3  H3  UNL     1     -12.184  -0.289 -15.578  1.00  0.00     0.186 HD
HETATM    4  C7  UNL     1     -12.812  -0.111 -13.655  1.00  0.00     0.153 A
HETATM    5  N4  UNL     1     -12.768  -1.437 -13.390  1.00  0.00    -0.283 N
ATOM      6  H4  UNL     1     -12.468  -2.081 -14.122  1.00  0.00     0.188 HD
HETATM    7  N5  UNL     1     -13.098  -1.911 -12.225  1.00  0.00    -0.291 N
ATOM      8  H5  UNL     1     -13.044  -2.920 -12.087  1.00  0.00     0.187 HD
HETATM    9  C8  UNL     1     -13.500  -1.165 -11.204  1.00  0.00     0.164 A
HETATM   10  C10 UNL     1     -13.571   0.214 -11.398  1.00  0.00     0.222 A
HETATM   11  O2  UNL     1     -13.948   0.934 -10.442  1.00  0.00    -0.285 OA
HETATM   12  C11 UNL     1     -13.228   0.727 -12.618  1.00  0.00     0.106 A
HETATM   13  C12 UNL     1     -13.283   2.068 -12.885  1.00  0.00     0.133 A
HETATM   14  N7  UNL     1     -13.630   2.932 -12.058  1.00  0.00    -0.384 N
ATOM     15  H71 UNL     1     -13.670   3.932 -12.258  1.00  0.00     0.157 HD
ATOM     16  H72 UNL     1     -13.894   2.624 -11.122  1.00  0.00     0.157 HD
HETATM   17  N8  UNL     1     -12.928   2.482 -14.141  1.00  0.00    -0.176 N
ATOM     18  H8  UNL     1     -12.971   3.482 -14.338  1.00  0.00     0.186 HD
ENDROOT
BRANCH   1  19
HETATM   19  N2  UNL     1     -12.181   2.189 -16.402  1.00  0.00    -0.217 N
HETATM   20  C5  UNL     1     -12.450   1.396 -17.576  1.00  0.00     0.143 C
HETATM   21  C4  UNL     1     -13.176   2.346 -18.530  1.00  0.00     0.056 C
HETATM   22  C3  UNL     1     -12.191   3.363 -18.972  1.00  0.00     0.225 C
HETATM   23  C14 UNL     1     -11.449   4.016 -17.878  1.00  0.00     0.056 C
HETATM   24  C13 UNL     1     -11.587   3.475 -16.505  1.00  0.00     0.143 C
BRANCH  22  25
HETATM   25  N1  UNL     1     -12.836   4.285 -19.884  1.00  0.00     0.084 N
HETATM   26  C1  UNL     1     -13.167   3.683 -21.154  1.00  0.00     0.309 C
HETATM   27  C2  UNL     1     -12.113   5.525 -20.037  1.00  0.00     0.309 C
ENDBRANCH  22  25
ENDBRANCH   1  19
BRANCH   9  28
HETATM   28  C9  UNL     1     -13.879  -1.706  -9.909  1.00  0.00     0.286 C
HETATM   29  N6  UNL     1     -12.931  -2.015  -8.912  1.00  0.00    -0.056 NA
HETATM   30  O1  UNL     1     -15.104  -1.916  -9.656  1.00  0.00    -0.269 OA
ENDBRANCH   9  28
TORSDOF 3
ENDMDL