MODEL 4
REMARK VINA RESULT: -6.201543161      3.653      5.087
REMARK  5 active torsions:
REMARK  status: ('A' for Active; 'I' for Inactive)
REMARK    1  A    between atoms: C2_2  and  N1_3
REMARK    2  A    between atoms: C6_13  and  S1_14
REMARK    3  A    between atoms: S1_14  and  C7_15
REMARK    4  A    between atoms: C7_15  and  C8_16
REMARK       I    between atoms: C8_16  and  N4_18
REMARK    5  A    between atoms: N4_18  and  N5_20
REMARK       I    between atoms: N5_20  and  C9_22
ROOT
HETATM    1  N1  UNL     1     -14.044  -0.091 -11.152  1.00  0.00    -0.283 N
HETATM    2  C3  UNL     1     -15.193   0.464 -10.658  1.00  0.00     0.331 A
HETATM    3  O1  UNL     1     -16.037  -0.193 -10.010  1.00  0.00    -0.246 OA
HETATM    4  N2  UNL     1     -15.380   1.776 -10.902  1.00  0.00    -0.273 N
ATOM      5  H2  UNL     1     -16.226   2.221 -10.546  1.00  0.00     0.173 HD
HETATM    6  C4  UNL     1     -14.511   2.517 -11.585  1.00  0.00     0.280 A
HETATM    7  O2  UNL     1     -14.662   3.757 -11.830  1.00  0.00    -0.265 OA
HETATM    8  C5  UNL     1     -13.333   1.966 -12.095  1.00  0.00     0.148 A
HETATM    9  N3  UNL     1     -12.309   2.471 -12.793  1.00  0.00    -0.329 N
ATOM     10  H3  UNL     1     -12.204   3.437 -13.105  1.00  0.00     0.168 HD
HETATM   11  C6  UNL     1     -11.445   1.460 -13.004  1.00  0.00     0.147 A
HETATM   12  N6  UNL     1     -11.951   0.343 -12.430  1.00  0.00    -0.321 N
ATOM     13  H6  UNL     1     -11.504  -0.573 -12.437  1.00  0.00     0.169 HD
HETATM   14  C11 UNL     1     -13.152   0.627 -11.841  1.00  0.00     0.146 A
ENDROOT
BRANCH  11  15
HETATM   15  S1  UNL     1      -9.866   1.626 -13.865  1.00  0.00    -0.084 SA
BRANCH  15  16
HETATM   16  C7  UNL     1      -9.790   0.301 -15.136  1.00  0.00     0.186 C
BRANCH  16  17
HETATM   17  C8  UNL     1     -11.131   0.096 -15.733  1.00  0.00     0.245 C
HETATM   18  O3  UNL     1     -11.749  -0.951 -15.472  1.00  0.00    -0.271 OA
HETATM   19  N4  UNL     1     -11.686   1.067 -16.574  1.00  0.00    -0.267 N
ATOM     20  H4  UNL     1     -11.166   1.921 -16.776  1.00  0.00     0.190 HD
BRANCH  19  21
HETATM   21  N5  UNL     1     -12.949   0.872 -17.138  1.00  0.00    -0.268 N
HETATM   22  C9  UNL     1     -14.162   1.212 -16.480  1.00  0.00     0.232 C
HETATM   23  C10 UNL     1     -15.469   0.966 -17.179  1.00  0.00     0.119 C
HETATM   24  O4  UNL     1     -14.151   1.709 -15.336  1.00  0.00    -0.272 OA
ATOM     25  H5  UNL     1     -13.004   0.465 -18.071  1.00  0.00     0.190 HD
ENDBRANCH  19  21
ENDBRANCH  16  17
ENDBRANCH  15  16
ENDBRANCH  11  15
BRANCH   1  26
HETATM   26  C2  UNL     1     -13.851  -1.485 -10.856  1.00  0.00     0.131 C
HETATM   27  C1  UNL     1     -13.211  -1.769  -9.535  1.00  0.00     0.027 C
ENDBRANCH   1  26
TORSDOF 5
ENDMDL