MODEL 3
REMARK VINA RESULT: -8.449107260      1.983      7.282
REMARK  3 active torsions:
REMARK  status: ('A' for Active; 'I' for Inactive)
REMARK    1  A    between atoms: C2_5  and  C3_6
REMARK    2  A    between atoms: C3_6  and  O2_7
REMARK    3  A    between atoms: N2_17  and  C11_18
ROOT
HETATM    1  O1  UNL     1      -4.469  30.614  47.914  1.00  0.00    -0.244 OA
HETATM    2  C1  UNL     1      -5.456  29.930  48.251  1.00  0.00     0.348 A
HETATM    3  N1  UNL     1      -6.283  30.264  49.276  1.00  0.00    -0.286 N
ATOM      4  H1  UNL     1      -6.221  31.079  49.885  1.00  0.00     0.172 HD
HETATM    5  C2  UNL     1      -7.202  29.284  49.310  1.00  0.00     0.186 A
HETATM    6  O3  UNL     1      -6.954  28.424  48.384  1.00  0.00    -0.214 OA
HETATM    7  N2  UNL     1      -5.898  28.791  47.721  1.00  0.00    -0.195 N
ENDROOT
BRANCH   5   8
HETATM    8  C3  UNL     1      -8.361  29.157  50.257  1.00  0.00     0.125 C
HETATM    9  C4  UNL     1      -7.846  28.790  51.607  1.00  0.00     0.051 C
HETATM   10  C5  UNL     1      -8.896  28.174  52.501  1.00  0.00    -0.011 C
HETATM   11  C6  UNL     1     -10.137  28.998  52.601  1.00  0.00     0.005 C
HETATM   12  C9  UNL     1      -9.355  26.903  51.776  1.00  0.00     0.009 C
HETATM   13  C7  UNL     1     -11.049  28.510  51.490  1.00  0.00     0.005 C
HETATM   14  C8  UNL     1     -10.236  27.524  50.689  1.00  0.00    -0.011 C
HETATM   15  C10 UNL     1      -9.339  28.169  49.683  1.00  0.00     0.051 C
BRANCH   8  16
HETATM   16  O2  UNL     1      -8.973  30.402  50.274  1.00  0.00    -0.381 OA
ATOM     17  H2  UNL     1      -9.636  30.373  49.593  1.00  0.00     0.211 HD
ENDBRANCH   8  16
ENDBRANCH   5   8
BRANCH   7  18
HETATM   18  C11 UNL     1      -5.367  28.025  46.618  1.00  0.00     0.120 C
HETATM   19  C12 UNL     1      -4.160  28.710  46.043  1.00  0.00     0.028 C
HETATM   20  C13 UNL     1      -4.155  28.786  44.551  1.00  0.00     0.002 C
HETATM   21  C14 UNL     1      -4.549  27.501  43.871  1.00  0.00     0.000 C
HETATM   22  C15 UNL     1      -5.668  26.778  44.549  1.00  0.00     0.002 C
HETATM   23  C16 UNL     1      -6.375  27.594  45.609  1.00  0.00     0.028 C
ENDBRANCH   7  18
TORSDOF 3
ENDMDL