MODEL 4
REMARK VINA RESULT: -8.313828028      4.263      7.665
REMARK  6 active torsions:
REMARK  status: ('A' for Active; 'I' for Inactive)
REMARK    1  A    between atoms: C2_2  and  N1_4
REMARK    2  A    between atoms: C6_7  and  N2_8
REMARK    3  A    between atoms: N2_8  and  N3_10
REMARK    4  A    between atoms: N3_10  and  C7_12
REMARK    5  A    between atoms: C9_14  and  C10_15
REMARK    6  A    between atoms: N5_21  and  O1_22
ROOT
HETATM    1  N3  UNL     1      -9.856  25.748  46.490  1.00  0.00    -0.282 N
ATOM      2  H3  UNL     1     -10.108  26.404  45.750  1.00  0.00     0.188 HD
ENDROOT
BRANCH   1   3
HETATM    3  N2  UNL     1      -9.159  26.332  47.485  1.00  0.00    -0.307 N
ATOM      4  H2  UNL     1      -9.581  26.549  48.388  1.00  0.00     0.186 HD
BRANCH   3   5
HETATM    5  C6  UNL     1      -7.894  26.605  47.218  1.00  0.00     0.007 C
HETATM    6  C5  UNL     1      -7.064  25.655  46.427  1.00  0.00     0.084 C
HETATM    7  C4  UNL     1      -6.368  26.379  45.287  1.00  0.00     0.278 C
HETATM    8  N1  UNL     1      -6.036  27.714  45.673  1.00  0.00     0.093 N
HETATM    9  C15 UNL     1      -5.888  27.902  47.093  1.00  0.00     0.278 C
HETATM   10  C14 UNL     1      -7.295  27.842  47.712  1.00  0.00     0.084 C
BRANCH   8  11
HETATM   11  C2  UNL     1      -4.986  28.295  44.899  1.00  0.00     0.215 C
HETATM   12  C1  UNL     1      -4.131  29.119  45.841  1.00  0.00     0.042 C
HETATM   13  C3  UNL     1      -4.137  27.288  44.191  1.00  0.00     0.042 C
ENDBRANCH   8  11
ENDBRANCH   3   5
ENDBRANCH   1   3
BRANCH   1  14
HETATM   14  C7  UNL     1     -10.267  24.583  46.262  1.00  0.00     0.168 A
HETATM   15  C8  UNL     1     -10.902  23.792  47.237  1.00  0.00     0.081 A
HETATM   16  C9  UNL     1     -11.231  22.571  46.684  1.00  0.00     0.039 A
HETATM   17  N4  UNL     1     -10.805  22.636  45.414  1.00  0.00    -0.276 N
HETATM   18  N5  UNL     1     -10.238  23.823  45.171  1.00  0.00    -0.145 N
ATOM     19  H4  UNL     1     -10.901  21.886  44.730  1.00  0.00     0.189 HD
BRANCH  16  20
HETATM   20  C10 UNL     1     -11.920  21.438  47.395  1.00  0.00    -0.007 C
HETATM   21  C11 UNL     1     -13.319  21.809  47.779  1.00  0.00     0.021 C
HETATM   22  C12 UNL     1     -11.778  20.194  46.598  1.00  0.00     0.021 C
HETATM   23  C13 UNL     1     -11.144  21.281  48.710  1.00  0.00     0.021 C
ENDBRANCH  16  20
BRANCH  18  24
HETATM   24  O1  UNL     1      -9.703  24.193  43.954  1.00  0.00    -0.266 OA
ATOM     25  H1  UNL     1      -9.604  23.622  43.200  1.00  0.00     0.247 HD
ENDBRANCH  18  24
ENDBRANCH   1  14
TORSDOF 6
ENDMDL