MODEL 1
REMARK VINA RESULT: -6.099400574      0.000      0.000
REMARK  5 active torsions:
REMARK  status: ('A' for Active; 'I' for Inactive)
REMARK    1  A    between atoms: C2_2  and  N1_5
REMARK       I    between atoms: N1_5  and  C5_7
REMARK    2  A    between atoms: C5_7  and  C6_9
REMARK    3  A    between atoms: C6_9  and  S1_10
REMARK    4  A    between atoms: S1_10  and  C7_11
REMARK    5  A    between atoms: C7_11  and  N2_13
ROOT
HETATM    1  C6  UNL     1      -8.328  29.369  50.301  1.00  0.00     0.184 C
ENDROOT
BRANCH   1   2
HETATM    2  C5  UNL     1      -9.412  28.860  51.169  1.00  0.00     0.227 C
HETATM    3  N1  UNL     1      -9.309  28.779  52.574  1.00  0.00    -0.352 N
ATOM      4  H1  UNL     1      -8.436  29.090  52.999  1.00  0.00     0.163 HD
HETATM    5  O1  UNL     1     -10.481  28.480  50.632  1.00  0.00    -0.273 OA
BRANCH   3   6
HETATM    6  C2  UNL     1     -10.328  28.297  53.446  1.00  0.00     0.022 C
HETATM    7  C1  UNL     1     -10.826  26.918  53.072  1.00  0.00     0.037 C
HETATM    8  C3  UNL     1     -11.465  29.267  53.525  1.00  0.00     0.037 C
HETATM    9  C4  UNL     1      -9.721  28.194  54.841  1.00  0.00     0.037 C
ENDBRANCH   3   6
ENDBRANCH   1   2
BRANCH   1  10
HETATM   10  S1  UNL     1      -7.959  28.211  48.978  1.00  0.00    -0.091 SA
BRANCH  10  11
HETATM   11  C7  UNL     1      -6.529  28.756  48.072  1.00  0.00     0.137 C
HETATM   12  S2  UNL     1      -5.795  30.161  48.422  1.00  0.00    -0.053 SA
BRANCH  11  13
HETATM   13  N2  UNL     1      -6.033  27.950  47.035  1.00  0.00    -0.356 N
HETATM   14  C8  UNL     1      -6.619  26.661  46.784  1.00  0.00     0.136 C
HETATM   15  C9  UNL     1      -7.708  26.737  45.723  1.00  0.00     0.106 C
HETATM   16  S3  UNL     1      -6.965  27.230  44.125  1.00  0.00    -0.094 SA
HETATM   17  S4  UNL     1      -4.928  27.758  44.568  1.00  0.00    -0.078 SA
HETATM   18  C10 UNL     1      -4.931  28.454  46.240  1.00  0.00     0.210 C
ENDBRANCH  11  13
ENDBRANCH  10  11
ENDBRANCH   1  10
TORSDOF 5
ENDMDL