MODEL 1
REMARK VINA RESULT: -6.612782548      0.000      0.000
REMARK  2 active torsions:
REMARK  status: ('A' for Active; 'I' for Inactive)
REMARK    1  A    between atoms: C2_2  and  C3_3
REMARK    2  A    between atoms: C3_3  and  N1_4
ROOT
HETATM    1  N1  UNL     1      -6.705  29.469  49.130  1.00  0.00    -0.296 N
HETATM    2  N2  UNL     1      -6.860  29.604  50.513  1.00  0.00    -0.306 N
ATOM      3  H2  UNL     1      -6.165  30.111  51.061  1.00  0.00     0.186 HD
HETATM    4  C4  UNL     1      -7.874  29.088  51.082  1.00  0.00     0.038 C
HETATM    5  C5  UNL     1      -8.370  29.021  52.507  1.00  0.00     0.095 C
HETATM    6  C6  UNL     1      -9.392  27.912  52.417  1.00  0.00     0.067 C
HETATM    7  C7  UNL     1      -9.156  26.973  53.577  1.00  0.00     0.038 C
HETATM    8  C8  UNL     1     -10.494  26.406  53.953  1.00  0.00     0.003 C
HETATM    9  C9  UNL     1     -11.526  27.361  53.428  1.00  0.00     0.003 C
HETATM   10  C10 UNL     1     -10.800  28.408  52.619  1.00  0.00     0.038 C
HETATM   11  O1  UNL     1      -9.228  27.277  51.186  1.00  0.00    -0.366 OA
HETATM   12  C11 UNL     1      -8.925  28.354  50.353  1.00  0.00     0.203 C
HETATM   13  C12 UNL     1      -8.570  28.077  48.985  1.00  0.00     0.210 C
HETATM   14  O2  UNL     1      -8.783  26.825  48.446  1.00  0.00    -0.343 OA
HETATM   15  C13 UNL     1      -8.074  26.909  47.226  1.00  0.00     0.160 C
HETATM   16  C14 UNL     1      -9.096  27.132  46.154  1.00  0.00     0.078 C
HETATM   17  C15 UNL     1      -7.293  25.640  46.972  1.00  0.00     0.078 C
HETATM   18  O3  UNL     1      -7.154  27.949  47.331  1.00  0.00    -0.327 OA
HETATM   19  C16 UNL     1      -7.063  28.147  48.672  1.00  0.00     0.274 C
ENDROOT
BRANCH   1  20
HETATM   20  C3  UNL     1      -6.252  30.486  48.233  1.00  0.00     0.145 C
BRANCH  20  21
HETATM   21  C2  UNL     1      -4.747  30.480  48.133  1.00  0.00     0.017 C
HETATM   22  C1  UNL     1      -4.330  29.836  46.839  1.00  0.00     0.007 C
ENDBRANCH  20  21
ENDBRANCH   1  20
TORSDOF 2
ENDMDL