MODEL 3
REMARK VINA RESULT: -5.335356119      1.203      1.364
REMARK  3 active torsions:
REMARK  status: ('A' for Active; 'I' for Inactive)
REMARK    1  A    between atoms: C4_4  and  C5_5
REMARK    2  A    between atoms: N1_6  and  O1_8
REMARK    3  A    between atoms: C6_11  and  C7_12
ROOT
HETATM    1  C1  UNL     1     -11.115  28.346  50.935  1.00  0.00     0.011 C
HETATM    2  C2  UNL     1     -10.370  27.267  51.744  1.00  0.00    -0.005 C
HETATM    3  C3  UNL     1     -11.261  26.844  52.838  1.00  0.00     0.049 C
HETATM    4  C4  UNL     1     -10.575  26.992  54.168  1.00  0.00     0.108 C
HETATM    5  O2  UNL     1     -11.340  26.822  55.313  1.00  0.00    -0.337 OA
HETATM    6  C6  UNL     1     -10.692  27.963  55.851  1.00  0.00     0.176 C
HETATM    7  O3  UNL     1      -9.408  27.839  56.275  1.00  0.00    -0.348 OA
HETATM    8  C10 UNL     1      -8.634  28.815  55.612  1.00  0.00     0.133 C
HETATM    9  C11 UNL     1      -7.166  28.610  55.724  1.00  0.00     0.040 C
HETATM   10  C12 UNL     1      -9.209  29.063  54.287  1.00  0.00     0.097 C
HETATM   11  C13 UNL     1      -8.605  28.507  53.090  1.00  0.00     0.138 C
HETATM   12  O4  UNL     1      -7.433  28.845  52.981  1.00  0.00    -0.297 OA
HETATM   13  C14 UNL     1      -8.991  27.651  51.961  1.00  0.00     0.055 C
HETATM   14  C15 UNL     1      -8.519  28.427  50.710  1.00  0.00     0.018 C
HETATM   15  C16 UNL     1     -10.541  28.405  54.447  1.00  0.00     0.102 C
ENDROOT
BRANCH   4  16
HETATM   16  C5  UNL     1      -9.499  26.028  54.264  1.00  0.00     0.125 C
HETATM   17  N1  UNL     1      -9.862  24.902  54.794  1.00  0.00    -0.281 N
ATOM     18  H1  UNL     1     -10.826  24.760  55.098  1.00  0.00     0.193 HD
BRANCH  17  19
HETATM   19  O1  UNL     1      -8.938  23.908  54.941  1.00  0.00    -0.290 OA
ATOM     20  H1  UNL     1      -9.062  23.088  54.478  1.00  0.00     0.244 HD
ENDBRANCH  17  19
ENDBRANCH   4  16
BRANCH   6  21
HETATM   21  C7  UNL     1     -11.684  28.670  56.730  1.00  0.00     0.041 C
HETATM   22  C8  UNL     1     -11.984  30.080  56.353  1.00  0.00     0.015 C
HETATM   23  C9  UNL     1     -11.223  28.526  58.156  1.00  0.00     0.015 C
ENDBRANCH   6  21
TORSDOF 3
ENDMDL