MODEL 5
REMARK VINA RESULT: -6.375675959      3.910      5.592
REMARK  2 active torsions:
REMARK  status: ('A' for Active; 'I' for Inactive)
REMARK    1  A    between atoms: S1_2  and  C2_3
REMARK    2  A    between atoms: C3_6  and  C4_7
ROOT
HETATM    1  C4  UNL     1      -7.971  28.409  49.915  1.00  0.00     0.057 C
HETATM    2  C5  UNL     1      -7.776  29.801  49.432  1.00  0.00     0.022 C
HETATM    3  C6  UNL     1      -6.447  30.028  48.755  1.00  0.00     0.075 C
HETATM    4  S2  UNL     1      -6.147  28.643  47.642  1.00  0.00    -0.159 SA
HETATM    5  C7  UNL     1      -7.466  27.428  47.650  1.00  0.00     0.012 C
HETATM    6  C8  UNL     1      -8.387  27.753  46.464  1.00  0.00     0.050 C
HETATM    7  C9  UNL     1      -9.086  26.440  46.127  1.00  0.00     0.273 C
HETATM    8  N2  UNL     1      -8.175  25.686  45.312  1.00  0.00     0.084 N
HETATM    9  C10 UNL     1      -8.637  24.386  44.951  1.00  0.00     0.309 C
HETATM   10  C11 UNL     1      -6.879  25.726  45.903  1.00  0.00     0.273 C
HETATM   11  C12 UNL     1      -6.873  26.075  47.365  1.00  0.00     0.050 C
HETATM   12  C13 UNL     1      -8.307  27.412  48.863  1.00  0.00     0.032 C
ENDROOT
BRANCH   1  13
HETATM   13  C3  UNL     1      -9.147  28.443  50.851  1.00  0.00     0.102 A
HETATM   14  N1  UNL     1      -9.230  28.889  52.088  1.00  0.00    -0.324 N
HETATM   15  C2  UNL     1     -10.518  28.687  52.484  1.00  0.00     0.160 A
ATOM     16  H1  UNL     1      -8.479  29.304  52.639  1.00  0.00     0.169 HD
HETATM   17  N4  UNL     1     -11.207  28.118  51.481  1.00  0.00    -0.278 N
HETATM   18  N3  UNL     1     -10.351  27.974  50.485  1.00  0.00    -0.287 N
ATOM     19  H4  UNL     1     -12.191  27.851  51.487  1.00  0.00     0.189 HD
ATOM     20  H3  UNL     1     -10.571  27.568  49.575  1.00  0.00     0.188 HD
BRANCH  15  21
HETATM   21  S1  UNL     1     -11.216  29.096  54.069  1.00  0.00    -0.097 SA
HETATM   22  C1  UNL     1      -9.927  29.061  55.327  1.00  0.00     0.099 C
ENDBRANCH  15  21
ENDBRANCH   1  13
TORSDOF 2
ENDMDL