MODEL 5
REMARK VINA RESULT: -7.002167421      2.324      7.196
REMARK  3 active torsions:
REMARK  status: ('A' for Active; 'I' for Inactive)
REMARK    1  A    between atoms: C2_2  and  O1_3
REMARK    2  A    between atoms: O1_3  and  C3_4
REMARK       I    between atoms: C3_4  and  N1_6
REMARK    3  A    between atoms: N3_12  and  N4_14
ROOT
HETATM    1  C3  UNL     1      -5.608  28.383  47.419  1.00  0.00     0.385 C
HETATM    2  O2  UNL     1      -5.809  29.337  48.210  1.00  0.00    -0.237 OA
HETATM    3  N1  UNL     1      -6.646  27.408  47.231  1.00  0.00    -0.098 N
HETATM    4  C4  UNL     1      -6.565  26.328  46.410  1.00  0.00     0.138 A
HETATM    5  C5  UNL     1      -7.749  25.650  46.509  1.00  0.00     0.124 A
HETATM    6  N2  UNL     1      -8.499  26.329  47.373  1.00  0.00    -0.199 N
ATOM      7  H2  UNL     1      -9.444  26.065  47.652  1.00  0.00     0.183 HD
HETATM    8  C6  UNL     1      -7.846  27.405  47.826  1.00  0.00     0.707 A
HETATM    9  N3  UNL     1      -8.318  28.254  48.676  1.00  0.00    -0.131 N
ATOM     10  H3  UNL     1      -7.728  29.039  48.951  1.00  0.00     0.205 HD
ENDROOT
BRANCH   9  11
HETATM   11  N4  UNL     1      -9.579  28.158  49.233  1.00  0.00    -0.294 N
HETATM   12  C7  UNL     1      -9.795  27.991  50.492  1.00  0.00     0.009 C
HETATM   13  C8  UNL     1     -11.218  27.908  50.935  1.00  0.00     0.054 C
HETATM   14  C15 UNL     1      -8.673  27.891  51.416  1.00  0.00     0.037 C
HETATM   15  C9  UNL     1     -11.306  28.721  52.208  1.00  0.00     0.006 C
HETATM   16  C10 UNL     1     -10.364  28.279  53.268  1.00  0.00     0.006 C
HETATM   17  C11 UNL     1      -8.988  27.942  52.852  1.00  0.00    -0.001 C
HETATM   18  C12 UNL     1      -7.971  29.052  53.080  1.00  0.00    -0.013 C
HETATM   19  C13 UNL     1      -6.663  28.559  53.632  1.00  0.00     0.010 C
HETATM   20  C14 UNL     1      -7.973  29.244  51.557  1.00  0.00     0.015 C
ATOM     21  H4  UNL     1     -10.385  28.222  48.612  1.00  0.00     0.186 HD
ENDBRANCH   9  11
BRANCH   1  22
HETATM   22  O1  UNL     1      -4.405  28.321  46.772  1.00  0.00    -0.303 OA
BRANCH  22  23
HETATM   23  C2  UNL     1      -4.113  29.006  45.565  1.00  0.00     0.176 C
HETATM   24  C1  UNL     1      -2.971  28.267  44.896  1.00  0.00     0.034 C
ENDBRANCH  22  23
ENDBRANCH   1  22
TORSDOF 3
ENDMDL