MODEL 4
REMARK VINA RESULT: -5.645550661      1.875      4.856
REMARK  4 active torsions:
REMARK  status: ('A' for Active; 'I' for Inactive)
REMARK    1  A    between atoms: C2_2  and  O2_4
REMARK    2  A    between atoms: O2_4  and  C3_5
REMARK    3  A    between atoms: C8_12  and  C9_13
REMARK    4  A    between atoms: C14_18  and  O5_20
ROOT
HETATM    1  C3  UNL     1      -7.964  25.841  45.774  1.00  0.00     0.070 C
HETATM    2  C4  UNL     1      -7.352  24.459  45.688  1.00  0.00     0.047 C
HETATM    3  C5  UNL     1      -7.831  26.212  47.239  1.00  0.00     0.048 C
HETATM    4  C6  UNL     1      -8.534  27.441  47.667  1.00  0.00     0.114 C
HETATM    5  C7  UNL     1      -7.789  28.157  48.737  1.00  0.00     0.259 C
HETATM    6  O3  UNL     1      -8.176  27.941  49.914  1.00  0.00    -0.265 OA
HETATM    7  O4  UNL     1      -6.766  28.976  48.410  1.00  0.00    -0.316 OA
HETATM    8  C8  UNL     1      -5.559  28.753  47.755  1.00  0.00     0.135 C
HETATM    9  C12 UNL     1      -5.638  28.793  46.251  1.00  0.00     0.036 C
HETATM   10  C13 UNL     1      -5.196  27.545  45.578  1.00  0.00     0.040 C
HETATM   11  C14 UNL     1      -6.081  27.015  44.524  1.00  0.00     0.057 C
HETATM   12  C15 UNL     1      -6.016  28.000  43.339  1.00  0.00     0.045 C
HETATM   13  C16 UNL     1      -7.516  26.819  44.807  1.00  0.00     0.075 C
ENDROOT
BRANCH   1  14
HETATM   14  O2  UNL     1      -9.366  25.645  45.630  1.00  0.00    -0.311 OA
BRANCH  14  15
HETATM   15  C2  UNL     1     -10.010  24.451  45.572  1.00  0.00     0.255 C
HETATM   16  C1  UNL     1     -10.684  23.915  46.778  1.00  0.00     0.126 C
HETATM   17  O1  UNL     1     -10.046  23.795  44.519  1.00  0.00    -0.266 OA
ENDBRANCH  14  15
ENDBRANCH   1  14
BRANCH  11  18
HETATM   18  O5  UNL     1      -5.569  25.828  43.988  1.00  0.00    -0.390 OA
ATOM     19  H5  UNL     1      -5.948  25.647  43.136  1.00  0.00     0.210 HD
ENDBRANCH  11  18
BRANCH   8  20
HETATM   20  C9  UNL     1      -4.610  29.834  48.275  1.00  0.00     0.007 C
HETATM   21  C10 UNL     1      -4.467  30.950  47.262  1.00  0.00     0.012 C
HETATM   22  C11 UNL     1      -5.036  30.418  49.571  1.00  0.00     0.012 C
ENDBRANCH   8  20
TORSDOF 4
ENDMDL