MODEL 4
REMARK VINA RESULT: -4.455934689      2.535      4.868
REMARK  3 active torsions:
REMARK  status: ('A' for Active; 'I' for Inactive)
REMARK    1  A    between atoms: O1_2  and  C2_3
REMARK    2  A    between atoms: C8_10  and  S1_11
REMARK    3  A    between atoms: N1_14  and  O3_16
ROOT
HETATM    1  C2  UNL     1     -11.367  29.929  55.389  1.00  0.00     0.129 C
HETATM    2  C3  UNL     1     -11.995  29.500  54.078  1.00  0.00     0.034 C
HETATM    3  C4  UNL     1     -10.890  29.045  53.182  1.00  0.00     0.020 C
HETATM    4  C5  UNL     1      -9.972  28.047  53.735  1.00  0.00     0.032 C
HETATM    5  C6  UNL     1      -8.619  28.204  53.050  1.00  0.00     0.025 C
HETATM    6  C7  UNL     1     -10.454  26.671  53.336  1.00  0.00     0.155 C
HETATM    7  O2  UNL     1     -11.239  26.402  52.445  1.00  0.00    -0.295 OA
HETATM    8  C8  UNL     1      -9.739  25.775  54.283  1.00  0.00     0.165 C
HETATM    9  C10 UNL     1      -9.849  26.530  55.549  1.00  0.00     0.041 C
HETATM   10  N1  UNL     1      -9.958  25.987  56.711  1.00  0.00    -0.275 N
ATOM     11  H1  UNL     1     -10.027  26.596  57.527  1.00  0.00     0.193 HD
HETATM   12  C11 UNL     1      -9.797  27.969  55.190  1.00  0.00     0.022 C
HETATM   13  C12 UNL     1      -8.421  28.455  55.659  1.00  0.00     0.024 C
HETATM   14  C13 UNL     1     -10.820  28.675  56.025  1.00  0.00    -0.008 C
HETATM   15  C14 UNL     1     -12.018  27.792  56.350  1.00  0.00     0.018 C
HETATM   16  C15 UNL     1     -10.236  29.102  57.373  1.00  0.00     0.018 C
ENDROOT
BRANCH   8  17
HETATM   17  S1  UNL     1     -10.568  24.171  54.433  1.00  0.00    -0.155 SA
HETATM   18  C9  UNL     1     -10.264  23.125  53.020  1.00  0.00     0.091 C
ENDBRANCH   8  17
BRANCH  10  19
HETATM   19  O3  UNL     1      -9.987  24.636  56.903  1.00  0.00    -0.290 OA
ATOM     20  H3  UNL     1     -10.792  24.144  57.007  1.00  0.00     0.244 HD
ENDBRANCH  10  19
BRANCH   1  21
HETATM   21  O1  UNL     1     -12.306  30.476  56.251  1.00  0.00    -0.390 OA
HETATM   22  C1  UNL     1     -12.471  31.836  56.101  1.00  0.00     0.202 C
ENDBRANCH   1  21
TORSDOF 3
ENDMDL