MODEL 4
REMARK VINA RESULT: -5.531659924      1.552      4.348
REMARK  4 active torsions:
REMARK  status: ('A' for Active; 'I' for Inactive)
REMARK    1  A    between atoms: C2_2  and  O1_3
REMARK    2  A    between atoms: C2_2  and  C3_5
REMARK    3  A    between atoms: C10_12  and  C11_13
REMARK    4  A    between atoms: C11_13  and  O2_14
ROOT
HETATM    1  C3  UNL     1      25.187  34.797  -4.521  1.00  0.00    -0.014 C
HETATM    2  C4  UNL     1      26.322  35.775  -4.587  1.00  0.00     0.018 C
HETATM    3  C5  UNL     1      25.580  33.381  -4.824  1.00  0.00     0.012 C
HETATM    4  C6  UNL     1      25.250  32.806  -6.122  1.00  0.00     0.002 C
HETATM    5  C7  UNL     1      24.095  33.391  -6.904  1.00  0.00     0.010 C
HETATM    6  C8  UNL     1      24.159  34.847  -6.777  1.00  0.00    -0.034 C
HETATM    7  C9  UNL     1      25.422  35.385  -7.398  1.00  0.00     0.016 C
HETATM    8  C10 UNL     1      23.057  35.776  -6.987  1.00  0.00     0.018 C
HETATM    9  C12 UNL     1      23.457  36.397  -5.634  1.00  0.00     0.013 C
HETATM   10  C13 UNL     1      23.989  35.098  -5.288  1.00  0.00     0.005 C
ENDROOT
BRANCH   1  11
HETATM   11  C2  UNL     1      24.757  34.821  -3.035  1.00  0.00     0.122 C
HETATM   12  C1  UNL     1      25.554  33.854  -2.221  1.00  0.00     0.040 C
BRANCH  11  13
HETATM   13  O1  UNL     1      24.856  36.117  -2.558  1.00  0.00    -0.395 OA
ATOM     14  H1  UNL     1      24.275  36.276  -1.823  1.00  0.00     0.210 HD
ENDBRANCH  11  13
ENDBRANCH   1  11
BRANCH   8  15
HETATM   15  C11 UNL     1      21.669  35.343  -7.128  1.00  0.00     0.169 C
BRANCH  15  16
HETATM   16  O2  UNL     1      20.827  36.003  -7.952  1.00  0.00    -0.400 OA
ATOM     17  H2  UNL     1      20.824  36.953  -7.977  1.00  0.00     0.209 HD
ENDBRANCH  15  16
ENDBRANCH   8  15
TORSDOF 4
ENDMDL