MODEL 4
REMARK VINA RESULT: -4.384520729      4.831      7.256
REMARK  4 active torsions:
REMARK  status: ('A' for Active; 'I' for Inactive)
REMARK    1  A    between atoms: C8_8  and  C9_9
REMARK    2  A    between atoms: C9_9  and  O1_10
REMARK    3  A    between atoms: C9_9  and  C10_12
REMARK    4  A    between atoms: C10_12  and  O2_13
ROOT
HETATM    1  C1  UNL     1      19.314  39.170  -3.331  1.00  0.00     0.010 C
HETATM    2  C2  UNL     1      19.769  40.185  -4.396  1.00  0.00    -0.014 C
HETATM    3  C3  UNL     1      18.559  40.577  -5.159  1.00  0.00     0.005 C
HETATM    4  C4  UNL     1      18.375  39.592  -6.289  1.00  0.00     0.010 C
HETATM    5  C5  UNL     1      19.543  39.828  -7.223  1.00  0.00    -0.041 C
HETATM    6  C6  UNL     1      19.446  41.329  -7.584  1.00  0.00     0.015 C
HETATM    7  C7  UNL     1      19.232  39.084  -8.490  1.00  0.00     0.015 C
HETATM    8  C8  UNL     1      20.865  39.525  -6.607  1.00  0.00     0.028 C
HETATM    9  C11 UNL     1      20.954  39.731  -5.135  1.00  0.00    -0.008 C
HETATM   10  C12 UNL     1      22.158  40.620  -4.793  1.00  0.00     0.011 C
ENDROOT
BRANCH   8  11
HETATM   11  C9  UNL     1      21.474  38.201  -7.006  1.00  0.00     0.147 C
BRANCH  11  12
HETATM   12  O1  UNL     1      22.725  38.488  -7.621  1.00  0.00    -0.393 OA
ATOM     13  H1  UNL     1      22.546  38.687  -8.532  1.00  0.00     0.210 HD
ENDBRANCH  11  12
BRANCH  11  14
HETATM   14  C10 UNL     1      21.821  37.290  -5.866  1.00  0.00     0.196 C
BRANCH  14  15
HETATM   15  O2  UNL     1      20.892  36.249  -5.858  1.00  0.00    -0.398 OA
ATOM     16  H2  UNL     1      20.215  36.471  -5.230  1.00  0.00     0.209 HD
ENDBRANCH  14  15
ENDBRANCH  11  14
ENDBRANCH   8  11
TORSDOF 4
ENDMDL