MODEL 1
REMARK VINA RESULT: -4.643073851      0.000      0.000
REMARK  4 active torsions:
REMARK  status: ('A' for Active; 'I' for Inactive)
REMARK    1  A    between atoms: C2_2  and  O1_3
REMARK    2  A    between atoms: C2_2  and  C3_5
REMARK    3  A    between atoms: C3_5  and  C4_6
REMARK    4  A    between atoms: C4_6  and  O2_7
ROOT
HETATM    1  C3  UNL     1      23.628  35.452  -5.684  1.00  0.00     0.014 C
HETATM    2  C5  UNL     1      23.884  34.955  -7.068  1.00  0.00     0.015 C
HETATM    3  C6  UNL     1      24.410  33.590  -7.220  1.00  0.00     0.006 C
HETATM    4  C7  UNL     1      25.143  33.012  -6.073  1.00  0.00    -0.005 A
HETATM    5  C8  UNL     1      26.520  33.502  -5.730  1.00  0.00     0.015 A
HETATM    6  C9  UNL     1      25.334  33.767  -4.877  1.00  0.00    -0.032 A
HETATM    7  C10 UNL     1      25.384  32.988  -3.551  1.00  0.00     0.016 C
HETATM    8  C11 UNL     1      24.770  35.158  -4.767  1.00  0.00    -0.028 C
HETATM    9  C12 UNL     1      25.974  36.071  -5.055  1.00  0.00     0.016 C
HETATM   10  C13 UNL     1      24.476  35.485  -3.322  1.00  0.00     0.016 C
ENDROOT
BRANCH   1  11
HETATM   11  C2  UNL     1      22.280  35.136  -5.154  1.00  0.00     0.125 C
HETATM   12  C1  UNL     1      21.255  34.557  -6.059  1.00  0.00     0.040 C
BRANCH  11  13
HETATM   13  O1  UNL     1      21.696  36.300  -4.604  1.00  0.00    -0.395 OA
ATOM     14  H1  UNL     1      20.843  36.035  -4.281  1.00  0.00     0.210 HD
ENDBRANCH  11  13
ENDBRANCH   1  11
BRANCH   1  15
HETATM   15  C4  UNL     1      23.652  36.994  -5.847  1.00  0.00     0.177 C
BRANCH  15  16
HETATM   16  O2  UNL     1      22.931  37.383  -6.975  1.00  0.00    -0.400 OA
ATOM     17  H2  UNL     1      23.385  37.125  -7.769  1.00  0.00     0.209 HD
ENDBRANCH  15  16
ENDBRANCH   1  15
TORSDOF 4
ENDMDL