MODEL 4
REMARK VINA RESULT: -5.187094642      1.780      3.388
REMARK  4 active torsions:
REMARK  status: ('A' for Active; 'I' for Inactive)
REMARK    1  A    between atoms: C3_3  and  O1_4
REMARK    2  A    between atoms: C8_10  and  C10_12
REMARK    3  A    between atoms: C10_12  and  O2_13
REMARK    4  A    between atoms: C10_12  and  C11_15
ROOT
HETATM    1  C1  UNL     1      24.363  35.594  -4.091  1.00  0.00     0.015 C
HETATM    2  C2  UNL     1      23.927  35.686  -5.219  1.00  0.00    -0.078 C
HETATM    3  C3  UNL     1      23.419  35.815  -6.583  1.00  0.00     0.130 C
HETATM    4  C4  UNL     1      23.680  34.482  -7.280  1.00  0.00     0.052 C
HETATM    5  C5  UNL     1      23.065  34.458  -8.657  1.00  0.00     0.004 C
HETATM    6  C6  UNL     1      22.279  35.680  -9.006  1.00  0.00     0.001 C
HETATM    7  C7  UNL     1      21.357  36.176  -7.949  1.00  0.00     0.016 C
HETATM    8  C8  UNL     1      21.924  36.103  -6.555  1.00  0.00     0.025 C
HETATM    9  C9  UNL     1      21.312  34.825  -5.940  1.00  0.00     0.022 C
ENDROOT
BRANCH   3  10
HETATM   10  O1  UNL     1      24.162  36.752  -7.246  1.00  0.00    -0.377 OA
ATOM     11  H1  UNL     1      23.884  36.780  -8.154  1.00  0.00     0.211 HD
ENDBRANCH   3  10
BRANCH   8  12
HETATM   12  C10 UNL     1      21.529  37.200  -5.643  1.00  0.00     0.134 C
BRANCH  12  13
HETATM   13  O2  UNL     1      20.775  36.651  -4.591  1.00  0.00    -0.394 OA
ATOM     14  H2  UNL     1      21.370  36.403  -3.893  1.00  0.00     0.210 HD
ENDBRANCH  12  13
BRANCH  12  15
HETATM   15  C11 UNL     1      20.852  38.383  -6.212  1.00  0.00     0.015 A
HETATM   16  C12 UNL     1      21.838  39.448  -6.715  1.00  0.00     0.007 A
HETATM   17  C13 UNL     1      21.028  39.743  -5.467  1.00  0.00     0.007 A
ENDBRANCH  12  15
ENDBRANCH   8  12
TORSDOF 4
ENDMDL