MODEL 4
REMARK VINA RESULT: -6.293502928      0.563      1.033
REMARK  4 active torsions:
REMARK  status: ('A' for Active; 'I' for Inactive)
REMARK    1  A    between atoms: C2_2  and  N1_3
REMARK    2  A    between atoms: N1_3  and  C3_5
REMARK    3  A    between atoms: C5_7  and  C6_8
REMARK    4  A    between atoms: C6_8  and  O1_9
ROOT
HETATM    1  C3  UNL     1      23.611  35.729  -5.748  1.00  0.00    -0.013 C
HETATM    2  C4  UNL     1      23.232  37.123  -5.779  1.00  0.00     0.064 C
HETATM    3  C5  UNL     1      22.034  37.316  -6.726  1.00  0.00    -0.014 C
HETATM    4  C7  UNL     1      22.229  36.748  -8.091  1.00  0.00     0.012 C
HETATM    5  C8  UNL     1      22.853  35.371  -8.051  1.00  0.00     0.011 C
HETATM    6  C9  UNL     1      22.672  34.879  -6.645  1.00  0.00     0.031 C
HETATM    7  C10 UNL     1      21.260  35.048  -6.166  1.00  0.00     0.011 C
HETATM    8  C11 UNL     1      20.896  36.522  -6.057  1.00  0.00     0.012 C
ENDROOT
BRANCH   1   9
HETATM    9  N1  UNL     1      23.963  34.959  -4.658  1.00  0.00    -0.387 N
ATOM     10  H1  UNL     1      23.277  34.837  -3.912  1.00  0.00     0.160 HD
BRANCH   9  11
HETATM   11  C2  UNL     1      25.223  34.330  -4.517  1.00  0.00     0.026 A
HETATM   12  C1  UNL     1      25.632  33.167  -5.315  1.00  0.00     0.038 C
HETATM   13  C12 UNL     1      25.726  34.283  -3.065  1.00  0.00     0.033 A
HETATM   14  C13 UNL     1      26.338  35.262  -4.031  1.00  0.00     0.033 A
ENDBRANCH   9  11
ENDBRANCH   1   9
BRANCH   3  15
HETATM   15  C6  UNL     1      21.756  38.780  -6.796  1.00  0.00     0.173 C
BRANCH  15  16
HETATM   16  O1  UNL     1      20.869  39.117  -7.829  1.00  0.00    -0.400 OA
ATOM     17  H1  UNL     1      20.921  38.524  -8.569  1.00  0.00     0.209 HD
ENDBRANCH  15  16
ENDBRANCH   3  15
TORSDOF 4
ENDMDL