MODEL 2
REMARK VINA RESULT: -5.920446456      0.120      1.894
REMARK  4 active torsions:
REMARK  status: ('A' for Active; 'I' for Inactive)
REMARK    1  A    between atoms: C2_2  and  C3_3
REMARK    2  A    between atoms: C2_2  and  N1_14
REMARK    3  A    between atoms: C3_3  and  C4_4
REMARK    4  A    between atoms: N1_14  and  N2_15
ROOT
HETATM    1  C4  UNL     1      23.663  35.125  -6.128  1.00  0.00    -0.038 C
HETATM    2  C5  UNL     1      23.626  36.440  -5.306  1.00  0.00     0.014 C
HETATM    3  C6  UNL     1      22.507  37.309  -5.754  1.00  0.00    -0.013 C
HETATM    4  C7  UNL     1      21.158  36.667  -5.574  1.00  0.00     0.009 C
HETATM    5  C8  UNL     1      21.167  35.353  -6.323  1.00  0.00    -0.013 C
HETATM    6  C9  UNL     1      21.371  35.563  -7.798  1.00  0.00     0.009 C
HETATM    7  C10 UNL     1      22.617  36.374  -7.978  1.00  0.00    -0.013 C
HETATM    8  C11 UNL     1      22.634  37.664  -7.237  1.00  0.00     0.009 C
HETATM    9  C12 UNL     1      23.815  35.528  -7.536  1.00  0.00     0.014 C
HETATM   10  C13 UNL     1      22.305  34.482  -5.835  1.00  0.00     0.014 C
ENDROOT
BRANCH   1  11
HETATM   11  C3  UNL     1      24.701  34.316  -5.478  1.00  0.00     0.032 C
BRANCH  11  12
HETATM   12  C2  UNL     1      25.504  34.821  -4.371  1.00  0.00     0.095 C
HETATM   13  C1  UNL     1      25.526  33.889  -3.187  1.00  0.00     0.029 C
BRANCH  12  14
HETATM   14  N1  UNL     1      26.896  35.038  -4.818  1.00  0.00    -0.144 NA
BRANCH  14  15
HETATM   15  N2  UNL     1      27.346  36.298  -4.491  1.00  0.00    -0.348 N
ATOM     16  H22 UNL     1      26.752  37.013  -4.073  1.00  0.00     0.172 HD
ATOM     17  H21 UNL     1      28.334  36.417  -4.717  1.00  0.00     0.172 HD
ENDBRANCH  14  15
ENDBRANCH  12  14
ENDBRANCH  11  12
ENDBRANCH   1  11
TORSDOF 4
ENDMDL