MODEL 3
REMARK VINA RESULT: -6.200320484      3.507      5.165
REMARK  4 active torsions:
REMARK  status: ('A' for Active; 'I' for Inactive)
REMARK    1  A    between atoms: C2_2  and  O1_4
REMARK    2  A    between atoms: C2_2  and  N1_6
REMARK    3  A    between atoms: N1_6  and  C4_8
REMARK    4  A    between atoms: C4_8  and  C5_9
ROOT
HETATM    1  C5  UNL     1      21.678  36.409  -8.118  1.00  0.00     0.008 C
HETATM    2  C6  UNL     1      21.283  35.037  -7.579  1.00  0.00     0.012 C
HETATM    3  C7  UNL     1      21.913  35.074  -6.223  1.00  0.00    -0.006 C
HETATM    4  C8  UNL     1      21.436  36.326  -5.527  1.00  0.00     0.006 C
HETATM    5  C9  UNL     1      22.288  37.472  -6.072  1.00  0.00     0.006 C
HETATM    6  C10 UNL     1      22.879  36.780  -7.301  1.00  0.00    -0.001 C
HETATM    7  C11 UNL     1      23.332  35.507  -6.589  1.00  0.00    -0.040 C
HETATM    8  C12 UNL     1      24.127  35.838  -5.342  1.00  0.00     0.015 C
HETATM    9  C13 UNL     1      24.041  34.542  -7.459  1.00  0.00     0.015 C
ENDROOT
BRANCH   1  10
HETATM   10  C4  UNL     1      21.907  36.400  -9.599  1.00  0.00     0.121 C
BRANCH  10  11
HETATM   11  N1  UNL     1      20.789  35.673 -10.150  1.00  0.00    -0.392 N
ATOM     12  H1  UNL     1      19.902  35.585  -9.655  1.00  0.00     0.156 HD
BRANCH  11  13
HETATM   13  C2  UNL     1      21.003  35.089 -11.428  1.00  0.00     0.120 C
HETATM   14  C1  UNL     1      19.968  35.681 -12.377  1.00  0.00     0.070 C
HETATM   15  C3  UNL     1      22.352  35.594 -11.930  1.00  0.00     0.070 C
BRANCH  13  16
HETATM   16  O1  UNL     1      20.885  33.723 -11.497  1.00  0.00    -0.372 OA
ATOM     17  H1  UNL     1      21.335  33.441 -12.284  1.00  0.00     0.212 HD
ENDBRANCH  13  16
ENDBRANCH  11  13
ENDBRANCH  10  11
ENDBRANCH   1  10
TORSDOF 4
ENDMDL