MODEL 4
REMARK VINA RESULT: -5.379975107      0.957      2.387
REMARK  4 active torsions:
REMARK  status: ('A' for Active; 'I' for Inactive)
REMARK    1  A    between atoms: C2_2  and  O1_3
REMARK    2  A    between atoms: C2_2  and  C3_5
REMARK    3  A    between atoms: C3_5  and  C4_6
REMARK    4  A    between atoms: C4_6  and  O2_7
ROOT
HETATM    1  C4  UNL     1      23.397  35.824  -5.675  1.00  0.00     0.067 C
HETATM    2  C5  UNL     1      23.614  36.328  -7.048  1.00  0.00     0.021 C
HETATM    3  C6  UNL     1      22.983  35.293  -8.000  1.00  0.00     0.012 C
HETATM    4  C7  UNL     1      21.524  35.158  -7.704  1.00  0.00    -0.013 C
HETATM    5  C8  UNL     1      20.852  36.479  -7.981  1.00  0.00     0.009 C
HETATM    6  C9  UNL     1      21.465  37.555  -7.120  1.00  0.00    -0.013 C
HETATM    7  C10 UNL     1      22.940  37.644  -7.352  1.00  0.00     0.012 C
HETATM    8  C11 UNL     1      21.267  37.173  -5.667  1.00  0.00     0.012 C
HETATM    9  C12 UNL     1      21.877  35.843  -5.405  1.00  0.00     0.021 C
HETATM   10  C13 UNL     1      21.274  34.773  -6.261  1.00  0.00     0.012 C
ENDROOT
BRANCH   1  11
HETATM   11  C3  UNL     1      24.053  36.504  -4.550  1.00  0.00     0.070 C
BRANCH  11  12
HETATM   12  C2  UNL     1      25.087  35.830  -3.760  1.00  0.00     0.117 C
HETATM   13  C1  UNL     1      26.374  35.487  -4.455  1.00  0.00     0.039 C
BRANCH  12  14
HETATM   14  O1  UNL     1      24.665  34.664  -3.121  1.00  0.00    -0.396 OA
ATOM     15  H1  UNL     1      24.233  34.139  -3.786  1.00  0.00     0.210 HD
ENDBRANCH  12  14
ENDBRANCH  11  12
ENDBRANCH   1  11
BRANCH   1  16
HETATM   16  O2  UNL     1      23.658  34.428  -5.700  1.00  0.00    -0.389 OA
ATOM     17  H2  UNL     1      23.465  34.004  -4.872  1.00  0.00     0.210 HD
ENDBRANCH   1  16
TORSDOF 4
ENDMDL