MODEL 5
REMARK VINA RESULT: -5.812020486      1.637      2.337
REMARK  4 active torsions:
REMARK  status: ('A' for Active; 'I' for Inactive)
REMARK    1  A    between atoms: C3_3  and  C4_4
REMARK    2  A    between atoms: C4_4  and  C5_5
REMARK    3  A    between atoms: C6_6  and  O1_7
REMARK    4  A    between atoms: C12_14  and  O2_16
ROOT
HETATM    1  C5  UNL     1      23.722  34.695  -5.891  1.00  0.00     0.024 C
HETATM    2  C6  UNL     1      22.954  35.705  -5.070  1.00  0.00     0.134 C
HETATM    3  C7  UNL     1      21.963  35.742  -6.239  1.00  0.00     0.017 C
HETATM    4  C8  UNL     1      20.957  34.643  -6.237  1.00  0.00     0.021 C
HETATM    5  C9  UNL     1      23.170  35.352  -7.106  1.00  0.00     0.006 C
HETATM    6  C10 UNL     1      23.720  36.661  -7.530  1.00  0.00     0.009 C
HETATM    7  C11 UNL     1      22.645  37.700  -7.451  1.00  0.00     0.038 C
HETATM    8  C12 UNL     1      21.524  37.091  -6.664  1.00  0.00     0.064 C
HETATM    9  C13 UNL     1      21.160  38.002  -5.515  1.00  0.00     0.047 C
ENDROOT
BRANCH   1  10
HETATM   10  C4  UNL     1      25.193  34.645  -5.690  1.00  0.00     0.034 C
BRANCH  10  11
HETATM   11  C3  UNL     1      25.528  33.364  -5.009  1.00  0.00    -0.031 C
HETATM   12  C2  UNL     1      25.642  33.202  -3.716  1.00  0.00    -0.035 C
HETATM   13  C1  UNL     1      25.463  34.241  -2.700  1.00  0.00     0.036 C
ENDBRANCH  10  11
ENDBRANCH   1  10
BRANCH   2  14
HETATM   14  O1  UNL     1      23.585  36.888  -4.798  1.00  0.00    -0.394 OA
ATOM     15  H1  UNL     1      23.223  37.416  -4.096  1.00  0.00     0.210 HD
ENDBRANCH   2  14
BRANCH   8  16
HETATM   16  O2  UNL     1      20.403  36.952  -7.482  1.00  0.00    -0.389 OA
ATOM     17  H2  UNL     1      19.910  36.194  -7.193  1.00  0.00     0.210 HD
ENDBRANCH   8  16
TORSDOF 4
ENDMDL