MODEL 3
REMARK VINA RESULT: -5.434180299      2.622      4.075
REMARK  5 active torsions:
REMARK  status: ('A' for Active; 'I' for Inactive)
REMARK    1  A    between atoms: O1_2  and  C2_3
REMARK    2  A    between atoms: C2_3  and  C3_5
REMARK    3  A    between atoms: C4_6  and  N1_7
REMARK    4  A    between atoms: C10_16  and  N4_17
REMARK    5  A    between atoms: C11_22  and  N6_23
REMARK       I    between atoms: N6_23  and  C12_25
REMARK       I    between atoms: C12_25  and  N7_26
REMARK       I    between atoms: C12_25  and  N8_30
ROOT
HETATM    1  C3  UNL     1      16.026  -0.352  14.031  1.00  0.00     0.128 A
HETATM    2  C4  UNL     1      15.441  -0.427  15.258  1.00  0.00     0.139 A
HETATM    3  N3  UNL     1      14.362   0.349  15.536  1.00  0.00    -0.176 N
ATOM      4  H3  UNL     1      13.921   0.295  16.453  1.00  0.00     0.186 HD
HETATM    5  C10 UNL     1      13.873   1.185  14.611  1.00  0.00     0.679 A
HETATM    6  N5  UNL     1      14.466   1.244  13.404  1.00  0.00    -0.176 N
ATOM      7  H5  UNL     1      14.071   1.890  12.720  1.00  0.00     0.186 HD
HETATM    8  C11 UNL     1      15.535   0.524  13.024  1.00  0.00     0.140 A
ENDROOT
BRANCH   8   9
HETATM    9  N6  UNL     1      16.145   0.512  11.948  1.00  0.00    -0.326 N
HETATM   10  C12 UNL     1      16.648   1.423  11.053  1.00  0.00     0.481 C
HETATM   11  N7  UNL     1      18.065   1.027  10.746  1.00  0.00    -0.033 N
HETATM   12  N8  UNL     1      16.634   2.791  11.479  1.00  0.00    -0.033 N
ATOM     13  H73 UNL     1      18.641   0.934  11.582  1.00  0.00     0.278 HD
ATOM     14  H72 UNL     1      18.146   0.064  10.419  1.00  0.00     0.278 HD
ATOM     15  H71 UNL     1      18.439   1.704  10.080  1.00  0.00     0.278 HD
ATOM     16  H83 UNL     1      15.689   3.060  11.753  1.00  0.00     0.278 HD
ATOM     17  H82 UNL     1      17.116   2.881  12.374  1.00  0.00     0.278 HD
ATOM     18  H81 UNL     1      17.009   3.468  10.813  1.00  0.00     0.278 HD
ATOM     19  H6  UNL     1      16.324  -0.443  11.638  1.00  0.00     0.164 HD
ENDBRANCH   8   9
BRANCH   1  20
HETATM   20  C2  UNL     1      17.166  -1.173  13.718  1.00  0.00     0.300 C
HETATM   21  O2  UNL     1      18.266  -0.535  13.561  1.00  0.00    -0.259 OA
BRANCH  20  22
HETATM   22  O1  UNL     1      17.157  -2.553  13.581  1.00  0.00    -0.322 OA
HETATM   23  C1  UNL     1      16.239  -3.097  12.637  1.00  0.00     0.213 C
ENDBRANCH  20  22
ENDBRANCH   1  20
BRANCH   2  24
HETATM   24  N1  UNL     1      15.976  -1.324  16.212  1.00  0.00    -0.363 N
HETATM   25  C5  UNL     1      15.428  -2.644  16.452  1.00  0.00     0.154 C
HETATM   26  C6  UNL     1      15.058  -2.682  17.928  1.00  0.00     0.291 C
HETATM   27  N2  UNL     1      16.207  -2.348  18.705  1.00  0.00     0.087 N
HETATM   28  C7  UNL     1      15.825  -2.389  20.108  1.00  0.00     0.310 C
HETATM   29  C8  UNL     1      16.747  -1.038  18.456  1.00  0.00     0.291 C
HETATM   30  C9  UNL     1      17.128  -0.944  17.005  1.00  0.00     0.154 C
ENDBRANCH   2  24
BRANCH   5  31
HETATM   31  N4  UNL     1      12.830   1.935  14.881  1.00  0.00    -0.234 N
ATOM     32  H42 UNL     1      12.945   2.925  15.096  1.00  0.00     0.174 HD
ATOM     33  H41 UNL     1      11.893   1.533  14.877  1.00  0.00     0.174 HD
ENDBRANCH   5  31
TORSDOF 5
ENDMDL