MODEL 2
REMARK VINA RESULT: -5.918106871      3.252      5.132
REMARK  4 active torsions:
REMARK  status: ('A' for Active; 'I' for Inactive)
REMARK    1  A    between atoms: N1_1  and  C1_4
REMARK    2  A    between atoms: C3_9  and  C4_10
REMARK    3  A    between atoms: C4_10  and  C5_12
REMARK    4  A    between atoms: C5_12  and  C6_13
REMARK       I    between atoms: C6_13  and  N5_15
ROOT
HETATM    1  C1  UNL     1      16.609   2.096  11.508  1.00  0.00     0.680 A
HETATM    2  N2  UNL     1      17.584   1.407  10.897  1.00  0.00    -0.178 N
ATOM      3  H2  UNL     1      18.405   1.899  10.543  1.00  0.00     0.185 HD
HETATM    4  C2  UNL     1      17.492   0.095  10.750  1.00  0.00     0.149 A
HETATM    5  N3  UNL     1      18.545  -0.575  10.104  1.00  0.00    -0.081 NA
HETATM    6  C3  UNL     1      16.347  -0.604  11.240  1.00  0.00     0.098 A
HETATM    7  C11 UNL     1      15.386   0.131  11.862  1.00  0.00     0.275 A
HETATM    8  O3  UNL     1      14.372  -0.370  12.356  1.00  0.00    -0.267 OA
HETATM    9  N6  UNL     1      15.520   1.479  11.992  1.00  0.00    -0.155 N
ATOM     10  H6  UNL     1      14.792   2.021  12.457  1.00  0.00     0.187 HD
ENDROOT
BRANCH   6  11
HETATM   11  C4  UNL     1      16.366  -2.060  11.029  1.00  0.00     0.070 C
HETATM   12  N4  UNL     1      15.712  -2.425   9.803  1.00  0.00    -0.101 NA
BRANCH  11  13
HETATM   13  C5  UNL     1      16.121  -2.984  12.146  1.00  0.00     0.102 C
BRANCH  13  14
HETATM   14  C6  UNL     1      16.741  -3.091  13.416  1.00  0.00     0.252 C
HETATM   15  O1  UNL     1      16.942  -2.105  14.160  1.00  0.00    -0.268 OA
HETATM   16  N5  UNL     1      17.210  -4.329  14.000  1.00  0.00    -0.283 N
HETATM   17  C7  UNL     1      17.990  -4.286  15.227  1.00  0.00     0.145 C
HETATM   18  C10 UNL     1      16.777  -5.536  13.409  1.00  0.00     0.235 C
HETATM   19  C8  UNL     1      18.404  -5.690  15.626  1.00  0.00     0.095 C
HETATM   20  S1  UNL     1      16.851  -6.612  15.840  1.00  0.00    -0.158 SA
HETATM   21  C9  UNL     1      16.074  -6.616  14.175  1.00  0.00     0.177 C
HETATM   22  O2  UNL     1      16.997  -5.720  12.189  1.00  0.00    -0.272 OA
ENDBRANCH  13  14
ENDBRANCH  11  13
ENDBRANCH   6  11
BRANCH   1  23
HETATM   23  N1  UNL     1      16.660   3.374  11.580  1.00  0.00    -0.234 N
ATOM     24  H12 UNL     1      17.499   3.799  11.974  1.00  0.00     0.174 HD
ATOM     25  H11 UNL     1      15.859   3.942  11.304  1.00  0.00     0.174 HD
ENDBRANCH   1  23
TORSDOF 4
ENDMDL