MODEL 4
REMARK VINA RESULT: -5.345265414      1.747      3.184
REMARK  5 active torsions:
REMARK  status: ('A' for Active; 'I' for Inactive)
REMARK    1  A    between atoms: C4_5  and  C5_6
REMARK    2  A    between atoms: C4_5  and  S2_21
REMARK       I    between atoms: C5_6  and  N2_8
REMARK    3  A    between atoms: N2_8  and  N3_9
REMARK    4  A    between atoms: C7_16  and  N6_17
REMARK    5  A    between atoms: S2_21  and  N7_23
ROOT
HETATM    1  C5  UNL     1      14.944  -0.295  12.873  1.00  0.00     0.336 C
HETATM    2  O1  UNL     1      14.283  -0.322  11.819  1.00  0.00    -0.253 OA
HETATM    3  N2  UNL     1      14.611   0.230  14.083  1.00  0.00    -0.283 NA
ENDROOT
BRANCH   1   4
HETATM    4  C4  UNL     1      16.313  -0.955  12.748  1.00  0.00     0.167 C
HETATM    5  C3  UNL     1      16.129  -2.422  12.684  1.00  0.00     0.067 C
HETATM    6  C2  UNL     1      16.818  -3.034  13.859  1.00  0.00     0.274 C
HETATM    7  N1  UNL     1      17.515  -1.992  14.546  1.00  0.00     0.086 N
HETATM    8  C1  UNL     1      17.568  -2.116  15.973  1.00  0.00     0.310 C
HETATM    9  C9  UNL     1      17.075  -0.740  14.042  1.00  0.00     0.306 C
BRANCH   4  10
HETATM   10  S2  UNL     1      17.256  -0.251  11.445  1.00  0.00     0.035 S
HETATM   11  C8  UNL     1      17.172  -1.115   9.922  1.00  0.00     0.137 C
HETATM   12  O2  UNL     1      18.695  -0.062  11.902  1.00  0.00    -0.249 OA
BRANCH  10  13
HETATM   13  N7  UNL     1      16.754   1.228  11.186  1.00  0.00    -0.359 N
ATOM     14  H72 UNL     1      16.083   1.725  11.771  1.00  0.00     0.165 HD
ATOM     15  H71 UNL     1      17.209   1.591  10.348  1.00  0.00     0.165 HD
ENDBRANCH  10  13
ENDBRANCH   4  10
ENDBRANCH   1   4
BRANCH   3  16
HETATM   16  N3  UNL     1      14.297   0.725  15.225  1.00  0.00    -0.208 N
HETATM   17  C6  UNL     1      13.509   1.573  15.735  1.00  0.00     0.192 A
HETATM   18  N4  UNL     1      12.586   2.377  15.208  1.00  0.00    -0.276 N
HETATM   19  S1  UNL     1      13.374   1.985  17.420  1.00  0.00    -0.013 SA
HETATM   20  N5  UNL     1      11.912   3.156  15.956  1.00  0.00    -0.278 N
ATOM     21  H4  UNL     1      12.420   2.369  14.201  1.00  0.00     0.189 HD
HETATM   22  C7  UNL     1      12.143   3.154  17.270  1.00  0.00     0.160 A
ATOM     23  H5  UNL     1      11.205   3.773  15.556  1.00  0.00     0.189 HD
ATOM     24  H3  UNL     1      14.865   0.298  15.956  1.00  0.00     0.204 HD
BRANCH  22  25
HETATM   25  N6  UNL     1      11.549   3.884  18.192  1.00  0.00    -0.378 N
ATOM     26  H62 UNL     1      11.427   4.895  18.251  1.00  0.00     0.158 HD
ATOM     27  H61 UNL     1      11.090   3.560  19.043  1.00  0.00     0.158 HD
ENDBRANCH  22  25
ENDBRANCH   3  16
TORSDOF 5
ENDMDL