MODEL 4
REMARK VINA RESULT: -5.020929491      2.757      3.131
REMARK  4 active torsions:
REMARK  status: ('A' for Active; 'I' for Inactive)
REMARK    1  A    between atoms: S1_2  and  C2_3
REMARK       I    between atoms: N3_9  and  C4_11
REMARK       I    between atoms: C4_11  and  N7_22
REMARK    2  A    between atoms: N4_12  and  N5_14
REMARK    3  A    between atoms: N5_14  and  S2_16
REMARK    4  A    between atoms: S2_16  and  N6_17
ROOT
HETATM    1  C2  UNL     1      13.402   1.645  16.485  1.00  0.00     0.129 A
HETATM    2  N1  UNL     1      14.368   0.740  16.498  1.00  0.00    -0.286 N
ATOM      3  H1  UNL     1      14.919   0.597  17.345  1.00  0.00     0.188 HD
HETATM    4  N2  UNL     1      14.611   0.049  15.459  1.00  0.00    -0.278 N
ATOM      5  H2  UNL     1      15.353  -0.650  15.461  1.00  0.00     0.189 HD
HETATM    6  C3  UNL     1      13.874   0.257  14.366  1.00  0.00     0.180 A
HETATM    7  N3  UNL     1      13.968  -0.348  13.204  1.00  0.00    -0.167 N
ATOM      8  H3  UNL     1      13.346  -0.103  12.434  1.00  0.00     0.186 HD
HETATM    9  C4  UNL     1      14.955  -1.347  13.050  1.00  0.00     0.708 C
HETATM   10  N4  UNL     1      16.141  -1.006  12.715  1.00  0.00    -0.121 N
ATOM     11  H4  UNL     1      16.868  -1.713  12.600  1.00  0.00     0.206 HD
HETATM   12  N7  UNL     1      14.676  -2.725  13.257  1.00  0.00    -0.124 N
ATOM     13  H7  UNL     1      15.128  -3.423  12.666  1.00  0.00     0.197 HD
HETATM   14  C5  UNL     1      13.788  -3.140  14.263  1.00  0.00     0.196 C
HETATM   15  N8  UNL     1      13.033  -3.487  15.090  1.00  0.00    -0.171 NA
HETATM   16  S3  UNL     1      12.813   1.492  14.892  1.00  0.00    -0.026 SA
ENDROOT
BRANCH  10  17
HETATM   17  N5  UNL     1      16.431   0.341  12.509  1.00  0.00    -0.196 N
ATOM     18  H5  UNL     1      16.151   1.031  13.206  1.00  0.00     0.202 HD
BRANCH  17  19
HETATM   19  S2  UNL     1      17.267   0.852  11.077  1.00  0.00     0.330 S
HETATM   20  O1  UNL     1      16.913  -0.022   9.903  1.00  0.00    -0.181 OA
HETATM   21  O2  UNL     1      18.751   0.811  11.286  1.00  0.00    -0.181 OA
BRANCH  19  22
HETATM   22  N6  UNL     1      16.793   2.498  10.789  1.00  0.00    -0.310 N
ATOM     23  H62 UNL     1      15.855   2.818  10.546  1.00  0.00     0.170 HD
ATOM     24  H61 UNL     1      17.630   3.066  10.911  1.00  0.00     0.170 HD
ENDBRANCH  19  22
ENDBRANCH  17  19
ENDBRANCH  10  17
BRANCH   1  25
HETATM   25  S1  UNL     1      12.879   2.736  17.831  1.00  0.00    -0.108 SA
HETATM   26  C1  UNL     1      11.839   4.058  17.198  1.00  0.00     0.097 C
ENDBRANCH   1  25
TORSDOF 4
ENDMDL