MODEL 3
REMARK VINA RESULT: -4.809590759      1.933      5.757
REMARK  4 active torsions:
REMARK  status: ('A' for Active; 'I' for Inactive)
REMARK    1  A    between atoms: N1_1  and  C1_4
REMARK    2  A    between atoms: C2_7  and  N3_8
REMARK    3  A    between atoms: C7_16  and  C8_17
REMARK    4  A    between atoms: C9_20  and  N6_21
ROOT
HETATM    1  C1  UNL     1      16.637  -3.851  13.108  1.00  0.00     0.679 A
HETATM    2  N2  UNL     1      16.459  -4.049  14.409  1.00  0.00    -0.176 N
ATOM      3  H2  UNL     1      16.440  -4.990  14.804  1.00  0.00     0.186 HD
HETATM    4  C2  UNL     1      16.301  -2.938  15.200  1.00  0.00     0.138 A
HETATM    5  C7  UNL     1      16.331  -1.659  14.624  1.00  0.00     0.117 A
HETATM    6  C9  UNL     1      16.516  -1.472  13.285  1.00  0.00     0.138 A
HETATM    7  N8  UNL     1      16.666  -2.645  12.571  1.00  0.00    -0.176 N
ATOM      8  H8  UNL     1      16.809  -2.575  11.564  1.00  0.00     0.186 HD
ENDROOT
BRANCH   4   9
HETATM    9  N3  UNL     1      16.110  -3.175  16.561  1.00  0.00    -0.363 N
HETATM   10  C3  UNL     1      14.824  -3.334  17.181  1.00  0.00     0.152 C
HETATM   11  C4  UNL     1      14.900  -2.484  18.475  1.00  0.00     0.252 C
HETATM   12  N4  UNL     1      15.753  -3.192  19.389  1.00  0.00    -0.072 N
HETATM   13  C5  UNL     1      16.915  -3.758  18.800  1.00  0.00     0.252 C
ATOM     14  H42 UNL     1      16.010  -2.589  20.171  1.00  0.00     0.277 HD
ATOM     15  H41 UNL     1      15.223  -3.908  19.885  1.00  0.00     0.277 HD
HETATM   16  C6  UNL     1      17.259  -3.259  17.440  1.00  0.00     0.152 C
ENDBRANCH   4   9
BRANCH   5  17
HETATM   17  C8  UNL     1      16.117  -0.569  15.522  1.00  0.00     0.272 C
HETATM   18  N5  UNL     1      14.860  -0.017  15.832  1.00  0.00    -0.057 NA
HETATM   19  O1  UNL     1      17.148  -0.065  16.075  1.00  0.00    -0.271 OA
ENDBRANCH   5  17
BRANCH   1  20
HETATM   20  N1  UNL     1      16.786  -4.929  12.373  1.00  0.00    -0.234 N
ATOM     21  H12 UNL     1      17.448  -4.953  11.598  1.00  0.00     0.174 HD
ATOM     22  H11 UNL     1      16.206  -5.729  12.626  1.00  0.00     0.174 HD
ENDBRANCH   1  20
BRANCH   6  23
HETATM   23  N6  UNL     1      16.601  -0.235  12.611  1.00  0.00    -0.363 N
HETATM   24  C10 UNL     1      15.538   0.687  12.332  1.00  0.00     0.152 C
HETATM   25  C11 UNL     1      16.136   1.992  11.726  1.00  0.00     0.252 C
HETATM   26  N7  UNL     1      16.736   1.525  10.485  1.00  0.00    -0.072 N
HETATM   27  C12 UNL     1      17.994   0.941  10.904  1.00  0.00     0.252 C
ATOM     28  H72 UNL     1      16.142   0.899   9.941  1.00  0.00     0.277 HD
ATOM     29  H71 UNL     1      16.825   2.243   9.766  1.00  0.00     0.277 HD
HETATM   30  C13 UNL     1      17.951   0.117  12.126  1.00  0.00     0.152 C
ENDBRANCH   6  23
TORSDOF 4
ENDMDL