MODEL 2
REMARK VINA RESULT: -6.385141044      1.365      2.144
REMARK  4 active torsions:
REMARK  status: ('A' for Active; 'I' for Inactive)
REMARK    1  A    between atoms: C2_2  and  C4_4
REMARK    2  A    between atoms: C2_2  and  S1_7
REMARK    3  A    between atoms: S1_7  and  C5_10
REMARK    4  A    between atoms: C7_16  and  N3_17
ROOT
HETATM    1  C5  UNL     1      17.068  -1.943  13.894  1.00  0.00     0.206 A
HETATM    2  N1  UNL     1      16.434  -0.761  13.941  1.00  0.00    -0.317 N
ATOM      3  H1  UNL     1      15.885  -0.431  14.734  1.00  0.00     0.169 HD
HETATM    4  C6  UNL     1      16.618  -0.071  12.798  1.00  0.00     0.155 A
HETATM    5  N2  UNL     1      16.216   1.126  12.338  1.00  0.00    -0.174 N
ATOM      6  H2  UNL     1      15.630   1.701  12.944  1.00  0.00     0.186 HD
HETATM    7  C7  UNL     1      16.538   1.610  11.132  1.00  0.00     0.680 A
HETATM    8  N4  UNL     1      17.312   0.836  10.348  1.00  0.00    -0.154 N
ATOM      9  H4  UNL     1      17.573   1.178   9.423  1.00  0.00     0.187 HD
HETATM   10  C8  UNL     1      17.752  -0.373  10.743  1.00  0.00     0.290 A
HETATM   11  O5  UNL     1      18.479  -1.105  10.011  1.00  0.00    -0.265 OA
HETATM   12  C9  UNL     1      17.409  -0.858  11.992  1.00  0.00     0.148 A
HETATM   13  N5  UNL     1      17.666  -1.983  12.678  1.00  0.00    -0.325 N
ATOM     14  H5  UNL     1      18.232  -2.759  12.333  1.00  0.00     0.168 HD
ENDROOT
BRANCH   1  15
HETATM   15  S1  UNL     1      17.103  -3.160  15.150  1.00  0.00     0.225 S
HETATM   16  O3  UNL     1      18.518  -3.469  15.572  1.00  0.00    -0.218 OA
HETATM   17  O4  UNL     1      16.403  -2.614  16.362  1.00  0.00    -0.218 OA
BRANCH  15  18
HETATM   18  C2  UNL     1      16.303  -4.657  14.609  1.00  0.00     0.152 C
HETATM   19  C1  UNL     1      16.284  -5.603  15.781  1.00  0.00     0.044 C
HETATM   20  C3  UNL     1      14.903  -4.366  14.106  1.00  0.00     0.044 C
BRANCH  18  21
HETATM   21  C4  UNL     1      17.040  -5.289  13.496  1.00  0.00     0.197 C
HETATM   22  O1  UNL     1      16.720  -5.012  12.318  1.00  0.00    -0.647 OA
HETATM   23  O2  UNL     1      18.078  -6.181  13.692  1.00  0.00    -0.647 OA
ENDBRANCH  18  21
ENDBRANCH  15  18
ENDBRANCH   1  15
BRANCH   7  24
HETATM   24  N3  UNL     1      16.151   2.755  10.698  1.00  0.00    -0.234 N
ATOM     25  H32 UNL     1      15.989   3.511  11.363  1.00  0.00     0.174 HD
ATOM     26  H31 UNL     1      15.991   2.961   9.712  1.00  0.00     0.174 HD
ENDBRANCH   7  24
TORSDOF 4
ENDMDL