MODEL 2
REMARK VINA RESULT: -6.019213819      1.494      1.504
REMARK  4 active torsions:
REMARK  status: ('A' for Active; 'I' for Inactive)
REMARK    1  A    between atoms: C2_3  and  S1_4
REMARK    2  A    between atoms: S1_4  and  N2_5
REMARK    3  A    between atoms: C4_11  and  N3_12
REMARK    4  A    between atoms: N3_12  and  C5_14
ROOT
HETATM    1  N1  UNL     1      14.146   1.259  13.603  1.00  0.00    -0.100 NA
HETATM    2  C1  UNL     1      14.740   0.013  13.298  1.00  0.00     0.087 A
HETATM    3  C2  UNL     1      14.274  -1.142  13.883  1.00  0.00     0.106 A
HETATM    4  C3  UNL     1      14.912  -2.311  13.525  1.00  0.00     0.059 A
HETATM    5  C4  UNL     1      15.959  -2.419  12.649  1.00  0.00     0.064 A
HETATM    6  C6  UNL     1      16.392  -1.215  12.084  1.00  0.00     0.081 A
HETATM    7  N4  UNL     1      17.408  -1.162  11.207  1.00  0.00    -0.305 N
ATOM      8  H4  UNL     1      17.890  -2.019  10.935  1.00  0.00     0.171 HD
HETATM    9  C7  UNL     1      17.797   0.031  10.682  1.00  0.00     0.327 A
HETATM   10  O4  UNL     1      18.758   0.063   9.855  1.00  0.00    -0.247 OA
HETATM   11  N5  UNL     1      17.218   1.199  10.988  1.00  0.00    -0.275 N
ATOM     12  H5  UNL     1      17.548   2.068  10.566  1.00  0.00     0.173 HD
HETATM   13  C8  UNL     1      16.203   1.206  11.853  1.00  0.00     0.263 A
HETATM   14  O5  UNL     1      15.622   2.268  12.179  1.00  0.00    -0.267 OA
HETATM   15  C9  UNL     1      15.790   0.002  12.401  1.00  0.00     0.087 A
ENDROOT
BRANCH   3  16
HETATM   16  S1  UNL     1      12.946  -1.099  15.010  1.00  0.00     0.258 S
HETATM   17  O1  UNL     1      13.416  -0.636  16.380  1.00  0.00    -0.201 OA
HETATM   18  O2  UNL     1      12.384  -2.475  15.210  1.00  0.00    -0.201 OA
BRANCH  16  19
HETATM   19  N2  UNL     1      11.652  -0.102  14.437  1.00  0.00    -0.324 N
ATOM     20  H22 UNL     1      11.475   0.072  13.448  1.00  0.00     0.169 HD
ATOM     21  H21 UNL     1      11.102   0.280  15.206  1.00  0.00     0.169 HD
ENDBRANCH  16  19
ENDBRANCH   3  16
BRANCH   5  22
HETATM   22  N3  UNL     1      16.610  -3.614  12.285  1.00  0.00    -0.332 N
ATOM     23  H3  UNL     1      17.103  -3.622  11.393  1.00  0.00     0.168 HD
BRANCH  22  24
HETATM   24  C5  UNL     1      16.638  -4.790  13.040  1.00  0.00     0.353 C
HETATM   25  O3  UNL     1      17.156  -5.855  12.701  1.00  0.00    -0.283 OA
ENDBRANCH  22  24
ENDBRANCH   5  22
TORSDOF 4
ENDMDL