MODEL 3
REMARK VINA RESULT: -6.755497885      1.930      4.308
REMARK  3 active torsions:
REMARK  status: ('A' for Active; 'I' for Inactive)
REMARK       I    between atoms: C1_4  and  N3_6
REMARK    1  A    between atoms: N4_10  and  C5_11
REMARK    2  A    between atoms: C6_14  and  C7_15
REMARK    3  A    between atoms: C9_27  and  N11_28
ROOT
HETATM    1  C5  UNL     1      15.374   0.600  14.600  1.00  0.00     0.156 A
HETATM    2  N5  UNL     1      16.192  -0.043  15.500  1.00  0.00    -0.335 N
ATOM      3  H5  UNL     1      17.043  -0.486  15.152  1.00  0.00     0.168 HD
HETATM    4  C6  UNL     1      15.928  -0.115  16.808  1.00  0.00     0.096 A
HETATM    5  C8  UNL     1      14.756   0.501  17.248  1.00  0.00     0.123 A
HETATM    6  N10 UNL     1      13.926   1.138  16.414  1.00  0.00    -0.347 N
ATOM      7  H10 UNL     1      13.076   1.580  16.764  1.00  0.00     0.167 HD
HETATM    8  C9  UNL     1      14.240   1.186  15.082  1.00  0.00     0.144 A
ENDROOT
BRANCH   1   9
HETATM    9  N4  UNL     1      15.732   0.627  13.225  1.00  0.00    -0.282 N
HETATM   10  C4  UNL     1      16.056   1.789  12.480  1.00  0.00     0.137 C
HETATM   11  C3  UNL     1      16.426   1.499  11.037  1.00  0.00     0.041 C
HETATM   12  C2  UNL     1      17.405   0.323  10.995  1.00  0.00     0.138 C
HETATM   13  N3  UNL     1      16.550  -0.826  11.338  1.00  0.00    -0.273 N
HETATM   14  C1  UNL     1      16.479  -2.005  10.597  1.00  0.00     0.192 C
HETATM   15  C10 UNL     1      15.775  -0.640  12.513  1.00  0.00     0.332 C
HETATM   16  N1  UNL     1      16.788  -3.130  11.130  1.00  0.00    -0.373 N
HETATM   17  N2  UNL     1      16.066  -1.979   9.245  1.00  0.00    -0.063 NA
ATOM     18  H12 UNL     1      16.737  -3.992  10.587  1.00  0.00     0.158 HD
ATOM     19  H11 UNL     1      17.086  -3.149  12.105  1.00  0.00     0.158 HD
HETATM   20  O1  UNL     1      15.095  -1.606  12.961  1.00  0.00    -0.246 OA
ENDBRANCH   1   9
BRANCH   8  21
HETATM   21  N11 UNL     1      13.440   1.801  14.290  1.00  0.00    -0.382 N
ATOM     22 2H11 UNL     1      13.382   1.487  13.321  1.00  0.00     0.157 HD
ATOM     23 1H11 UNL     1      12.878   2.582  14.628  1.00  0.00     0.157 HD
ENDBRANCH   8  21
BRANCH   4  24
HETATM   24  C7  UNL     1      16.810  -0.796  17.748  1.00  0.00     0.165 A
HETATM   25  N6  UNL     1      17.694  -1.782  17.536  1.00  0.00    -0.267 N
HETATM   26  N7  UNL     1      18.286  -2.090  18.685  1.00  0.00    -0.227 N
ATOM     27  H6  UNL     1      17.881  -2.224  16.636  1.00  0.00     0.190 HD
HETATM   28  N8  UNL     1      17.790  -1.313  19.625  1.00  0.00    -0.227 N
ATOM     29  H7  UNL     1      19.001  -2.805  18.815  1.00  0.00     0.210 HD
HETATM   30  N9  UNL     1      16.890  -0.522  19.064  1.00  0.00    -0.267 N
ATOM     31  H8  UNL     1      18.053  -1.319  20.611  1.00  0.00     0.210 HD
ATOM     32  H9  UNL     1      16.342   0.186  19.553  1.00  0.00     0.190 HD
ENDBRANCH   4  24
TORSDOF 3
ENDMDL