MODEL 1
REMARK VINA RESULT: -6.561297468      0.000      0.000
REMARK  4 active torsions:
REMARK  status: ('A' for Active; 'I' for Inactive)
REMARK    1  A    between atoms: N1_2  and  N2_4
REMARK    2  A    between atoms: N2_4  and  C2_6
REMARK    3  A    between atoms: C6_16  and  C7_17
REMARK    4  A    between atoms: C8_18  and  C10_20
ROOT
HETATM    1  C2  UNL     1      16.488  -2.226  11.945  1.00  0.00     0.143 A
HETATM    2  N3  UNL     1      17.396  -1.744  11.086  1.00  0.00    -0.292 N
ATOM      3  H3  UNL     1      17.996  -2.401  10.587  1.00  0.00     0.172 HD
HETATM    4  C3  UNL     1      17.547  -0.416  10.854  1.00  0.00     0.329 A
HETATM    5  O1  UNL     1      18.402   0.027  10.046  1.00  0.00    -0.246 OA
HETATM    6  N4  UNL     1      16.769   0.448  11.500  1.00  0.00    -0.289 N
HETATM    7  C4  UNL     1      16.894   1.861  11.284  1.00  0.00     0.163 C
HETATM    8  C5  UNL     1      15.845   0.005  12.370  1.00  0.00     0.132 A
HETATM    9  N5  UNL     1      15.049   0.846  13.035  1.00  0.00    -0.327 N
ATOM     10  H5  UNL     1      15.165   1.843  12.858  1.00  0.00     0.169 HD
HETATM   11  C6  UNL     1      14.089   0.473  13.934  1.00  0.00     0.110 A
HETATM   12  N6  UNL     1      13.965  -0.848  14.142  1.00  0.00    -0.309 N
ATOM     13  H6  UNL     1      13.261  -1.172  14.805  1.00  0.00     0.170 HD
HETATM   14  C11 UNL     1      14.725  -1.762  13.516  1.00  0.00     0.264 A
HETATM   15  O4  UNL     1      14.598  -2.991  13.721  1.00  0.00    -0.267 OA
HETATM   16  C12 UNL     1      15.682  -1.355  12.616  1.00  0.00     0.122 A
ENDROOT
BRANCH  11  17
HETATM   17  C7  UNL     1      13.325   1.485  14.632  1.00  0.00     0.062 C
HETATM   18  C8  UNL     1      13.143   1.696  15.898  1.00  0.00     0.018 C
HETATM   19  C9  UNL     1      12.270   2.872  16.336  1.00  0.00     0.056 C
BRANCH  18  20
HETATM   20  C10 UNL     1      13.653   0.894  16.950  1.00  0.00     0.204 C
HETATM   21  O2  UNL     1      13.158  -0.267  17.160  1.00  0.00    -0.644 OA
HETATM   22  O3  UNL     1      14.663   1.262  17.785  1.00  0.00    -0.644 OA
ENDBRANCH  18  20
ENDBRANCH  11  17
BRANCH   1  23
HETATM   23  N2  UNL     1      16.360  -3.510  12.159  1.00  0.00    -0.289 N
ATOM     24  H2  UNL     1      15.580  -4.003  11.725  1.00  0.00     0.188 HD
BRANCH  23  25
HETATM   25  N1  UNL     1      17.247  -4.231  12.957  1.00  0.00    -0.339 N
HETATM   26  C1  UNL     1      17.161  -5.673  12.951  1.00  0.00     0.167 C
ATOM     27  H1  UNL     1      17.940  -3.751  13.532  1.00  0.00     0.179 HD
ENDBRANCH  23  25
ENDBRANCH   1  23
TORSDOF 4
ENDMDL