MODEL 5
REMARK VINA RESULT: -5.193944231      2.961      5.415
REMARK  6 active torsions:
REMARK  status: ('A' for Active; 'I' for Inactive)
REMARK    1  A    between atoms: C2_2  and  N1_4
REMARK    2  A    between atoms: N1_4  and  C4_6
REMARK    3  A    between atoms: C5_9  and  N3_10
REMARK    4  A    between atoms: C6_15  and  C7_16
REMARK    5  A    between atoms: C8_25  and  S1_26
REMARK    6  A    between atoms: S1_26  and  N9_27
ROOT
HETATM    1  C4  UNL     1      15.153  -0.351  13.063  1.00  0.00     0.143 A
HETATM    2  N2  UNL     1      15.832   0.404  12.184  1.00  0.00    -0.176 N
ATOM      3  H2  UNL     1      15.499   1.345  11.979  1.00  0.00     0.186 HD
HETATM    4  C5  UNL     1      16.940  -0.045  11.565  1.00  0.00     0.678 A
HETATM    5  N4  UNL     1      17.340  -1.281  11.860  1.00  0.00    -0.186 N
ATOM      6  H4  UNL     1      18.179  -1.631  11.396  1.00  0.00     0.184 HD
HETATM    7  C6  UNL     1      16.707  -2.109  12.739  1.00  0.00     0.123 A
HETATM    8  C8  UNL     1      15.581  -1.667  13.378  1.00  0.00     0.154 A
ENDROOT
BRANCH   7   9
HETATM    9  C7  UNL     1      17.191  -3.458  12.966  1.00  0.00     0.166 A
HETATM   10  N5  UNL     1      16.842  -4.473  12.138  1.00  0.00    -0.267 N
HETATM   11  N6  UNL     1      17.381  -5.589  12.569  1.00  0.00    -0.227 N
ATOM     12  H5  UNL     1      16.253  -4.383  11.311  1.00  0.00     0.190 HD
HETATM   13  N7  UNL     1      18.064  -5.300  13.652  1.00  0.00    -0.227 N
ATOM     14  H6  UNL     1      17.288  -6.510  12.141  1.00  0.00     0.210 HD
HETATM   15  N8  UNL     1      17.943  -4.021  13.880  1.00  0.00    -0.267 N
ATOM     16  H7  UNL     1      18.597  -5.962  14.217  1.00  0.00     0.210 HD
ATOM     17  H8  UNL     1      18.374  -3.527  14.662  1.00  0.00     0.190 HD
ENDBRANCH   7   9
BRANCH   8  18
HETATM   18  S1  UNL     1      14.655  -2.584  14.522  1.00  0.00     0.262 S
HETATM   19  O1  UNL     1      13.178  -2.492  14.374  1.00  0.00    -0.201 OA
HETATM   20  O2  UNL     1      14.921  -4.096  14.260  1.00  0.00    -0.201 OA
BRANCH  18  21
HETATM   21  N9  UNL     1      15.224  -2.369  16.135  1.00  0.00    -0.324 N
ATOM     22  H92 UNL     1      14.616  -2.425  16.952  1.00  0.00     0.169 HD
ATOM     23  H91 UNL     1      16.226  -2.184  16.165  1.00  0.00     0.169 HD
ENDBRANCH  18  21
ENDBRANCH   8  18
BRANCH   4  24
HETATM   24  N3  UNL     1      17.590   0.700  10.714  1.00  0.00    -0.234 N
ATOM     25  H32 UNL     1      17.385   0.673   9.715  1.00  0.00     0.174 HD
ATOM     26  H31 UNL     1      18.327   1.335  11.019  1.00  0.00     0.174 HD
ENDBRANCH   4  24
BRANCH   1  27
HETATM   27  N1  UNL     1      14.102   0.032  13.667  1.00  0.00    -0.371 N
ATOM     28  H1  UNL     1      13.251  -0.510  13.515  1.00  0.00     0.161 HD
BRANCH  27  29
HETATM   29  C2  UNL     1      14.013   1.143  14.527  1.00  0.00     0.075 C
HETATM   30  C1  UNL     1      12.602   1.520  14.950  1.00  0.00     0.031 C
HETATM   31  C3  UNL     1      14.876   1.096  15.759  1.00  0.00     0.031 C
ENDBRANCH  27  29
ENDBRANCH   1  27
TORSDOF 6
ENDMDL