MODEL 2
REMARK VINA RESULT: -5.252898705      3.084      5.349
REMARK  7 active torsions:
REMARK  status: ('A' for Active; 'I' for Inactive)
REMARK       I    between atoms: C2_2  and  N1_4
REMARK    1  A    between atoms: N1_4  and  N2_6
REMARK    2  A    between atoms: N2_6  and  C3_8
REMARK    3  A    between atoms: C3_8  and  N3_10
REMARK    4  A    between atoms: N3_10  and  N4_12
REMARK       I    between atoms: N4_12  and  C4_14
REMARK    5  A    between atoms: C4_14  and  C5_16
REMARK    6  A    between atoms: C5_16  and  N5_17
REMARK    7  A    between atoms: C6_18  and  O3_19
ROOT
HETATM    1  N4  UNL     1     -14.916  -1.137 -13.334  1.00  0.00    -0.266 N
ATOM      2  H4  UNL     1     -15.862  -0.757 -13.351  1.00  0.00     0.190 HD
HETATM    3  C4  UNL     1     -14.362  -1.763 -14.489  1.00  0.00     0.254 C
HETATM    4  O2  UNL     1     -13.221  -2.253 -14.547  1.00  0.00    -0.270 OA
ENDROOT
BRANCH   1   5
HETATM    5  N3  UNL     1     -14.135  -1.055 -12.184  1.00  0.00    -0.272 N
ATOM      6  H3  UNL     1     -13.132  -1.233 -12.230  1.00  0.00     0.189 HD
BRANCH   5   7
HETATM    7  C3  UNL     1     -14.749  -0.724 -10.949  1.00  0.00     0.205 C
HETATM    8  S1  UNL     1     -14.068  -1.158  -9.517  1.00  0.00    -0.038 SA
BRANCH   7   9
HETATM    9  N2  UNL     1     -15.971   0.000 -10.959  1.00  0.00    -0.273 N
ATOM     10  H2  UNL     1     -16.852  -0.472 -11.163  1.00  0.00     0.189 HD
BRANCH   9  11
HETATM   11  N1  UNL     1     -15.945   1.391 -10.682  1.00  0.00    -0.268 N
HETATM   12  C2  UNL     1     -15.558   2.294 -11.687  1.00  0.00     0.232 C
HETATM   13  C1  UNL     1     -15.524   3.765 -11.411  1.00  0.00     0.119 C
HETATM   14  O1  UNL     1     -15.241   1.862 -12.814  1.00  0.00    -0.272 OA
ATOM     15  H1  UNL     1     -16.206   1.734  -9.758  1.00  0.00     0.190 HD
ENDBRANCH   9  11
ENDBRANCH   7   9
ENDBRANCH   5   7
ENDBRANCH   1   5
BRANCH   3  16
HETATM   16  C5  UNL     1     -15.218  -1.837 -15.700  1.00  0.00     0.239 C
BRANCH  16  17
HETATM   17  N5  UNL     1     -15.094  -0.559 -16.448  1.00  0.00    -0.280 N
HETATM   18  C6  UNL     1     -15.834   0.470 -16.163  1.00  0.00     0.152 A
HETATM   19  C7  UNL     1     -15.671   1.614 -16.904  1.00  0.00     0.111 A
HETATM   20  S2  UNL     1     -14.432   1.139 -17.997  1.00  0.00    -0.036 SA
HETATM   21  C8  UNL     1     -14.213  -0.454 -17.446  1.00  0.00     0.292 A
HETATM   22  O4  UNL     1     -13.404  -1.355 -17.868  1.00  0.00    -0.259 OA
BRANCH  18  23
HETATM   23  O3  UNL     1     -16.819   0.497 -15.121  1.00  0.00    -0.345 OA
ATOM     24  H3  UNL     1     -17.715   0.791 -15.235  1.00  0.00     0.219 HD
ENDBRANCH  18  23
ENDBRANCH  16  17
ENDBRANCH   3  16
TORSDOF 7
ENDMDL