MODEL 1
REMARK VINA RESULT: -5.677051306      0.000      0.000
REMARK  5 active torsions:
REMARK  status: ('A' for Active; 'I' for Inactive)
REMARK    1  A    between atoms: C1_2  and  C2_4
REMARK    2  A    between atoms: C2_4  and  N2_5
REMARK    3  A    between atoms: C4_10  and  O3_11
REMARK    4  A    between atoms: C5_13  and  C6_14
REMARK    5  A    between atoms: N4_15  and  N5_17
ROOT
HETATM    1  N2  UNL     1     -14.466   0.909 -12.979  1.00  0.00    -0.257 N
HETATM    2  C3  UNL     1     -15.304   0.869 -14.031  1.00  0.00     0.331 A
HETATM    3  O2  UNL     1     -16.426   0.295 -13.931  1.00  0.00    -0.246 OA
HETATM    4  N3  UNL     1     -14.910   1.453 -15.177  1.00  0.00    -0.288 N
ATOM      5  H3  UNL     1     -15.534   1.431 -15.983  1.00  0.00     0.172 HD
HETATM    6  C4  UNL     1     -13.704   2.072 -15.293  1.00  0.00     0.161 A
HETATM    7  C5  UNL     1     -12.841   2.116 -14.220  1.00  0.00     0.100 A
HETATM    8  C11 UNL     1     -13.248   1.518 -13.047  1.00  0.00     0.268 A
HETATM    9  O4  UNL     1     -12.485   1.542 -12.053  1.00  0.00    -0.267 OA
ENDROOT
BRANCH   7  10
HETATM   10  C6  UNL     1     -11.554   2.773 -14.331  1.00  0.00     0.128 C
HETATM   11  N4  UNL     1     -11.420   4.015 -14.649  1.00  0.00    -0.313 N
ATOM     12  H4  UNL     1     -12.262   4.562 -14.832  1.00  0.00     0.185 HD
BRANCH  11  13
HETATM   13  N5  UNL     1     -10.186   4.646 -14.756  1.00  0.00    -0.325 N
HETATM   14  C7  UNL     1      -9.113   4.237 -13.881  1.00  0.00     0.170 C
HETATM   15  C8  UNL     1      -8.157   5.347 -13.586  1.00  0.00     0.253 C
HETATM   16  N6  UNL     1      -7.808   6.158 -14.711  1.00  0.00    -0.072 N
HETATM   17  C9  UNL     1      -8.421   5.717 -15.931  1.00  0.00     0.253 C
ATOM     18  H62 UNL     1      -8.020   7.140 -14.531  1.00  0.00     0.277 HD
ATOM     19  H61 UNL     1      -6.796   6.221 -14.814  1.00  0.00     0.277 HD
HETATM   20  C10 UNL     1      -9.938   5.697 -15.709  1.00  0.00     0.170 C
ENDBRANCH  11  13
ENDBRANCH   7  10
BRANCH   6  21
HETATM   21  O3  UNL     1     -13.297   2.673 -16.472  1.00  0.00    -0.345 OA
ATOM     22  H3  UNL     1     -12.564   3.276 -16.503  1.00  0.00     0.219 HD
ENDBRANCH   6  21
BRANCH   1  23
HETATM   23  C2  UNL     1     -14.838   0.296 -11.718  1.00  0.00     0.236 C
BRANCH  23  24
HETATM   24  C1  UNL     1     -15.774   1.150 -10.973  1.00  0.00     0.249 C
HETATM   25  N1  UNL     1     -15.368   2.462 -10.628  1.00  0.00    -0.061 NA
HETATM   26  O1  UNL     1     -16.909   0.683 -10.667  1.00  0.00    -0.275 OA
ENDBRANCH  23  24
ENDBRANCH   1  23
TORSDOF 5
ENDMDL