MODEL 4
REMARK VINA RESULT: -6.163197879      0.596      2.062
REMARK  4 active torsions:
REMARK  status: ('A' for Active; 'I' for Inactive)
REMARK    1  A    between atoms: C2_2  and  N1_3
REMARK    2  A    between atoms: C2_2  and  C5_10
REMARK    3  A    between atoms: N1_3  and  N2_4
REMARK    4  A    between atoms: N2_4  and  S1_6
ROOT
HETATM    1  C5  UNL     1     -13.671   2.470 -14.211  1.00  0.00     0.089 A
HETATM    2  C6  UNL     1     -14.288   3.275 -13.275  1.00  0.00     0.150 A
HETATM    3  N3  UNL     1     -14.798   2.488 -12.286  1.00  0.00    -0.136 N
HETATM    4  C7  UNL     1     -15.484   2.739 -11.150  1.00  0.00     0.698 A
HETATM    5  N4  UNL     1     -15.756   3.968 -10.867  1.00  0.00    -0.233 N
ATOM      6  H41 UNL     1     -16.274   4.157 -10.009  1.00  0.00     0.174 HD
ATOM      7  H42 UNL     1     -15.453   4.712 -11.496  1.00  0.00     0.174 HD
HETATM    8  N5  UNL     1     -15.884   1.758 -10.322  1.00  0.00    -0.130 N
ATOM      9  H5  UNL     1     -16.401   1.988  -9.473  1.00  0.00     0.205 HD
HETATM   10  N6  UNL     1     -15.610   0.488 -10.604  1.00  0.00    -0.268 N
ATOM     11  H6  UNL     1     -15.909  -0.263  -9.981  1.00  0.00     0.189 HD
HETATM   12  C8  UNL     1     -14.927   0.218 -11.732  1.00  0.00     0.160 A
HETATM   13  N7  UNL     1     -14.650  -0.986 -12.028  1.00  0.00    -0.381 N
ATOM     14  H71 UNL     1     -14.133  -1.191 -12.883  1.00  0.00     0.157 HD
ATOM     15  H72 UNL     1     -14.961  -1.719 -11.390  1.00  0.00     0.157 HD
HETATM   16  C9  UNL     1     -14.505   1.214 -12.600  1.00  0.00     0.174 A
HETATM   17  N8  UNL     1     -13.827   1.216 -13.761  1.00  0.00    -0.335 N
ATOM     18  H8  UNL     1     -13.479   0.381 -14.232  1.00  0.00     0.168 HD
ENDROOT
BRANCH   1  19
HETATM   19  C2  UNL     1     -12.983   2.927 -15.454  1.00  0.00     0.134 C
HETATM   20  C1  UNL     1     -13.604   2.419 -16.745  1.00  0.00     0.090 C
BRANCH  19  21
HETATM   21  N1  UNL     1     -12.032   3.628 -15.418  1.00  0.00    -0.317 NA
BRANCH  21  22
HETATM   22  N2  UNL     1     -10.990   4.397 -15.379  1.00  0.00    -0.157 N
HETATM   23  C3  UNL     1      -9.890   4.208 -14.408  1.00  0.00     0.207 C
BRANCH  22  24
HETATM   24  S1  UNL     1     -10.850   5.727 -16.517  1.00  0.00     0.251 S
HETATM   25  C4  UNL     1      -9.315   5.681 -17.366  1.00  0.00     0.188 C
HETATM   26  O1  UNL     1     -11.014   7.026 -15.790  1.00  0.00    -0.204 OA
HETATM   27  O2  UNL     1     -11.969   5.618 -17.535  1.00  0.00    -0.204 OA
ENDBRANCH  22  24
ENDBRANCH  21  22
ENDBRANCH  19  21
ENDBRANCH   1  19
TORSDOF 4
ENDMDL