MODEL 1
REMARK VINA RESULT: -4.656568538      0.000      0.000
REMARK  7 active torsions:
REMARK  status: ('A' for Active; 'I' for Inactive)
REMARK    1  A    between atoms: N1_2  and  C2_4
REMARK    2  A    between atoms: C2_4  and  N2_6
REMARK    3  A    between atoms: N2_6  and  N3_8
REMARK       I    between atoms: N3_8  and  C3_10
REMARK    4  A    between atoms: C3_10  and  C4_12
REMARK    5  A    between atoms: C4_12  and  N4_13
REMARK    6  A    between atoms: C6_18  and  S2_19
REMARK    7  A    between atoms: C8_23  and  N7_24
ROOT
HETATM    1  N4  UNL     1     -14.211   0.849 -16.502  1.00  0.00    -0.124 N
HETATM    2  C5  UNL     1     -13.036   1.272 -15.994  1.00  0.00     0.343 A
HETATM    3  O2  UNL     1     -12.448   0.703 -15.045  1.00  0.00    -0.246 OA
HETATM    4  N5  UNL     1     -12.461   2.361 -16.532  1.00  0.00    -0.288 N
ATOM      5  H5  UNL     1     -11.572   2.684 -16.151  1.00  0.00     0.172 HD
HETATM    6  C6  UNL     1     -13.012   3.042 -17.555  1.00  0.00     0.163 A
HETATM    7  N6  UNL     1     -14.178   2.622 -18.058  1.00  0.00    -0.170 N
ATOM      8  H6  UNL     1     -14.617   3.120 -18.832  1.00  0.00     0.186 HD
HETATM    9  C8  UNL     1     -14.772   1.519 -17.521  1.00  0.00     0.684 A
ENDROOT
BRANCH   1  10
HETATM   10  C4  UNL     1     -14.815  -0.321 -15.904  1.00  0.00     0.257 C
BRANCH  10  11
HETATM   11  C3  UNL     1     -15.682  -0.030 -14.751  1.00  0.00     0.255 C
HETATM   12  N3  UNL     1     -15.204  -0.159 -13.436  1.00  0.00    -0.266 N
ATOM     13  H3  UNL     1     -14.247  -0.458 -13.250  1.00  0.00     0.190 HD
HETATM   14  O1  UNL     1     -16.861   0.337 -14.949  1.00  0.00    -0.270 OA
BRANCH  12  15
HETATM   15  N2  UNL     1     -16.096   0.139 -12.378  1.00  0.00    -0.274 N
ATOM     16  H2  UNL     1     -17.099   0.150 -12.562  1.00  0.00     0.189 HD
BRANCH  15  17
HETATM   17  C2  UNL     1     -15.632   0.423 -11.070  1.00  0.00     0.189 C
HETATM   18  S1  UNL     1     -14.779  -0.632 -10.182  1.00  0.00    -0.039 SA
BRANCH  17  19
HETATM   19  N1  UNL     1     -15.942   1.706 -10.526  1.00  0.00    -0.352 N
HETATM   20  C1  UNL     1     -15.639   2.813 -11.099  1.00  0.00     0.120 C
ATOM     21  H1  UNL     1     -16.430   1.745  -9.632  1.00  0.00     0.166 HD
ENDBRANCH  17  19
ENDBRANCH  15  17
ENDBRANCH  12  15
ENDBRANCH  10  11
ENDBRANCH   1  10
BRANCH   9  22
HETATM   22  N7  UNL     1     -15.894   1.136 -18.015  1.00  0.00    -0.234 N
ATOM     23  H72 UNL     1     -16.300   0.267 -17.668  1.00  0.00     0.174 HD
ATOM     24  H71 UNL     1     -16.359   1.688 -18.736  1.00  0.00     0.174 HD
ENDBRANCH   9  22
BRANCH   6  25
HETATM   25  S2  UNL     1     -12.243   4.487 -18.261  1.00  0.00    -0.098 SA
HETATM   26  C7  UNL     1     -11.438   5.500 -16.989  1.00  0.00     0.099 C
ENDBRANCH   6  25
TORSDOF 7
ENDMDL