MODEL 4
REMARK VINA RESULT: -5.674719993      1.889      2.074
REMARK  5 active torsions:
REMARK  status: ('A' for Active; 'I' for Inactive)
REMARK    1  A    between atoms: C2_2  and  N1_3
REMARK       I    between atoms: N1_3  and  C3_5
REMARK    2  A    between atoms: C3_5  and  C4_7
REMARK    3  A    between atoms: C4_7  and  N2_9
REMARK    4  A    between atoms: N2_9  and  C6_11
REMARK    5  A    between atoms: N4_20  and  N5_21
ROOT
HETATM    1  C6  UNL     1     -14.619   1.735 -14.252  1.00  0.00     0.683 A
HETATM    2  N3  UNL     1     -15.499   0.801 -14.628  1.00  0.00    -0.155 N
ATOM      3  H3  UNL     1     -16.053   0.278 -13.951  1.00  0.00     0.187 HD
HETATM    4  C7  UNL     1     -15.610   0.590 -15.957  1.00  0.00     0.280 A
HETATM    5  O2  UNL     1     -16.403  -0.259 -16.419  1.00  0.00    -0.266 OA
HETATM    6  C8  UNL     1     -14.826   1.333 -16.853  1.00  0.00     0.125 A
HETATM    7  S1  UNL     1     -14.659   1.384 -18.551  1.00  0.00    -0.018 SA
HETATM    8  C9  UNL     1     -13.472   2.600 -18.646  1.00  0.00     0.311 A
HETATM    9  O3  UNL     1     -12.940   3.072 -19.698  1.00  0.00    -0.258 OA
HETATM   10  N4  UNL     1     -13.250   2.919 -17.375  1.00  0.00    -0.202 N
HETATM   11  C10 UNL     1     -13.934   2.282 -16.446  1.00  0.00     0.168 A
HETATM   12  N6  UNL     1     -13.859   2.457 -15.086  1.00  0.00    -0.173 N
ATOM     13  H6  UNL     1     -13.214   3.148 -14.705  1.00  0.00     0.186 HD
ENDROOT
BRANCH   1  14
HETATM   14  N2  UNL     1     -14.496   1.952 -12.987  1.00  0.00    -0.213 N
ATOM     15  H2  UNL     1     -13.556   1.888 -12.596  1.00  0.00     0.178 HD
BRANCH  14  16
HETATM   16  C4  UNL     1     -15.543   2.269 -12.091  1.00  0.00     0.187 C
HETATM   17  C5  UNL     1     -15.220   3.407 -11.134  1.00  0.00     0.043 C
BRANCH  16  18
HETATM   18  C3  UNL     1     -15.760   1.054 -11.226  1.00  0.00     0.240 C
HETATM   19  N1  UNL     1     -14.784   0.038 -11.093  1.00  0.00    -0.360 N
ATOM     20  H1  UNL     1     -13.903   0.130 -11.598  1.00  0.00     0.162 HD
HETATM   21  O1  UNL     1     -16.837   0.920 -10.594  1.00  0.00    -0.271 OA
BRANCH  19  22
HETATM   22  C2  UNL     1     -14.997  -1.121 -10.266  1.00  0.00     0.118 C
HETATM   23  C1  UNL     1     -13.851  -1.206  -9.281  1.00  0.00     0.026 C
ENDBRANCH  19  22
ENDBRANCH  16  18
ENDBRANCH  14  16
ENDBRANCH   1  14
BRANCH  10  24
HETATM   24  N5  UNL     1     -12.273   3.945 -17.110  1.00  0.00    -0.334 N
ATOM     25  H52 UNL     1     -12.447   4.776 -16.544  1.00  0.00     0.177 HD
ATOM     26  H51 UNL     1     -11.346   3.827 -17.518  1.00  0.00     0.177 HD
ENDBRANCH  10  24
TORSDOF 5
ENDMDL