MODEL 1
REMARK VINA RESULT: -5.857200810      0.000      0.000
REMARK  4 active torsions:
REMARK  status: ('A' for Active; 'I' for Inactive)
REMARK    1  A    between atoms: C2_2  and  C3_3
REMARK    2  A    between atoms: C3_3  and  C4_4
REMARK    3  A    between atoms: C4_4  and  S1_5
REMARK    4  A    between atoms: C8_15  and  N3_16
ROOT
HETATM    1  C3  UNL     1     -13.501   0.003 -14.723  1.00  0.00     0.150 C
HETATM    2  N1  UNL     1     -14.538  -0.070 -13.712  1.00  0.00    -0.360 N
ATOM      3  H1  UNL     1     -15.037  -0.950 -13.579  1.00  0.00     0.161 HD
HETATM    4  C6  UNL     1     -14.885   1.052 -12.896  1.00  0.00     0.151 A
HETATM    5  C7  UNL     1     -13.954   2.063 -12.776  1.00  0.00     0.198 A
HETATM    6  N2  UNL     1     -14.281   3.120 -12.007  1.00  0.00    -0.168 N
ATOM      7  H2  UNL     1     -13.611   3.882 -11.902  1.00  0.00     0.186 HD
HETATM    8  C8  UNL     1     -15.476   3.202 -11.366  1.00  0.00     0.680 A
HETATM    9  N4  UNL     1     -16.374   2.208 -11.493  1.00  0.00    -0.154 N
ATOM     10  H4  UNL     1     -17.270   2.276 -11.010  1.00  0.00     0.187 HD
HETATM   11  C9  UNL     1     -16.109   1.123 -12.248  1.00  0.00     0.290 A
HETATM   12  O3  UNL     1     -16.958   0.193 -12.363  1.00  0.00    -0.265 OA
HETATM   13  O4  UNL     1     -12.739   1.956 -13.439  1.00  0.00    -0.256 OA
HETATM   14  C10 UNL     1     -12.422   0.860 -14.225  1.00  0.00     0.298 C
HETATM   15  O5  UNL     1     -11.207   0.590 -14.521  1.00  0.00    -0.262 OA
ENDROOT
BRANCH   1  16
HETATM   16  C2  UNL     1     -12.981  -1.407 -14.859  1.00  0.00     0.005 C
HETATM   17  C1  UNL     1     -13.237  -2.300 -13.933  1.00  0.00     0.010 C
ENDBRANCH   1  16
BRANCH   1  18
HETATM   18  C4  UNL     1     -14.127   0.460 -15.993  1.00  0.00     0.185 C
BRANCH  18  19
HETATM   19  S1  UNL     1     -15.712  -0.196 -16.338  1.00  0.00     0.143 S
HETATM   20  C5  UNL     1     -15.995  -0.055 -18.109  1.00  0.00     0.161 C
HETATM   21  O1  UNL     1     -15.884  -1.621 -15.983  1.00  0.00    -0.228 OA
HETATM   22  O2  UNL     1     -16.821   0.583 -15.689  1.00  0.00    -0.228 OA
ENDBRANCH  18  19
ENDBRANCH   1  18
BRANCH   8  23
HETATM   23  N3  UNL     1     -15.765   4.240 -10.627  1.00  0.00    -0.234 N
ATOM     24  H32 UNL     1     -15.030   4.684 -10.076  1.00  0.00     0.174 HD
ATOM     25  H31 UNL     1     -16.716   4.608 -10.597  1.00  0.00     0.174 HD
ENDBRANCH   8  23
TORSDOF 4
ENDMDL