MODEL 4
REMARK VINA RESULT: -5.895744684      3.522      8.504
REMARK  5 active torsions:
REMARK  status: ('A' for Active; 'I' for Inactive)
REMARK       I    between atoms: C2_2  and  N1_4
REMARK    1  A    between atoms: N1_4  and  N2_5
REMARK    2  A    between atoms: C3_7  and  C4_8
REMARK    3  A    between atoms: C4_8  and  N3_9
REMARK    4  A    between atoms: N3_9  and  N4_11
REMARK    5  A    between atoms: N4_11  and  C5_13
ROOT
HETATM    1  C5  UNL     1     -13.171   2.615 -13.880  1.00  0.00     0.701 A
HETATM    2  N5  UNL     1     -13.792   3.075 -12.783  1.00  0.00    -0.154 N
ATOM      3  H5  UNL     1     -13.858   4.073 -12.582  1.00  0.00     0.187 HD
HETATM    4  C6  UNL     1     -14.330   2.137 -11.949  1.00  0.00     0.279 A
HETATM    5  O2  UNL     1     -14.925   2.549 -10.906  1.00  0.00    -0.266 OA
HETATM    6  C7  UNL     1     -14.247   0.789 -12.208  1.00  0.00     0.145 A
HETATM    7  C8  UNL     1     -14.774  -0.177 -11.378  1.00  0.00     0.266 A
HETATM    8  O3  UNL     1     -15.366   0.240 -10.335  1.00  0.00    -0.267 OA
HETATM    9  N6  UNL     1     -14.662  -1.493 -11.674  1.00  0.00    -0.312 N
ATOM     10  H6  UNL     1     -15.065  -2.183 -11.039  1.00  0.00     0.170 HD
HETATM   11  C9  UNL     1     -14.031  -1.912 -12.786  1.00  0.00     0.081 A
HETATM   12  C10 UNL     1     -13.907  -3.375 -13.116  1.00  0.00     0.089 C
HETATM   13  N7  UNL     1     -13.514  -0.979 -13.598  1.00  0.00    -0.331 N
ATOM     14  H7  UNL     1     -13.033  -1.281 -14.446  1.00  0.00     0.168 HD
HETATM   15  C11 UNL     1     -13.605   0.345 -13.340  1.00  0.00     0.143 A
HETATM   16  N8  UNL     1     -13.085   1.269 -14.146  1.00  0.00    -0.174 N
ATOM     17  H8  UNL     1     -12.605   0.967 -14.993  1.00  0.00     0.186 HD
ENDROOT
BRANCH   1  18
HETATM   18  N4  UNL     1     -12.638   3.431 -14.701  1.00  0.00    -0.132 N
ATOM     19  H4  UNL     1     -13.087   3.501 -15.615  1.00  0.00     0.205 HD
BRANCH  18  20
HETATM   20  N3  UNL     1     -11.575   4.199 -14.517  1.00  0.00    -0.296 N
ATOM     21  H3  UNL     1     -11.559   4.614 -13.586  1.00  0.00     0.186 HD
BRANCH  20  22
HETATM   22  C4  UNL     1     -10.586   4.541 -15.201  1.00  0.00     0.127 C
BRANCH  22  23
HETATM   23  C3  UNL     1     -10.765   5.571 -16.236  1.00  0.00     0.139 C
HETATM   24  N2  UNL     1     -10.749   6.770 -15.856  1.00  0.00    -0.242 N
ATOM     25  H2  UNL     1     -10.611   6.879 -14.851  1.00  0.00     0.201 HD
BRANCH  24  26
HETATM   26  N1  UNL     1     -10.875   7.902 -16.493  1.00  0.00    -0.288 NA
HETATM   27  C2  UNL     1     -11.006   9.082 -17.156  1.00  0.00     0.308 C
HETATM   28  C1  UNL     1     -11.255   9.005 -18.659  1.00  0.00     0.137 C
HETATM   29  O1  UNL     1     -10.959  10.279 -16.740  1.00  0.00    -0.256 OA
ENDBRANCH  24  26
ENDBRANCH  22  23
ENDBRANCH  20  22
ENDBRANCH  18  20
ENDBRANCH   1  18
TORSDOF 5
ENDMDL