MODEL 3
REMARK VINA RESULT: -5.568636102      3.189      6.249
REMARK  6 active torsions:
REMARK  status: ('A' for Active; 'I' for Inactive)
REMARK    1  A    between atoms: C2_2  and  C4_10
REMARK    2  A    between atoms: N1_3  and  N2_5
REMARK    3  A    between atoms: N2_5  and  C3_7
REMARK    4  A    between atoms: C6_12  and  O1_13
REMARK    5  A    between atoms: C6_12  and  O2_15
REMARK    6  A    between atoms: O2_15  and  C7_16
ROOT
HETATM    1  C4  UNL     1     -13.526   0.261 -14.022  1.00  0.00     0.087 A
HETATM    2  C5  UNL     1     -14.506  -0.207 -13.173  1.00  0.00     0.113 A
HETATM    3  C6  UNL     1     -15.443   0.616 -12.487  1.00  0.00     0.216 C
HETATM    4  N5  UNL     1     -14.601  -1.588 -12.958  1.00  0.00    -0.303 N
ATOM      5  H5  UNL     1     -15.326  -1.933 -12.329  1.00  0.00     0.171 HD
HETATM    6  C8  UNL     1     -13.797  -2.465 -13.529  1.00  0.00     0.327 A
HETATM    7  O4  UNL     1     -13.917  -3.701 -13.307  1.00  0.00    -0.247 OA
HETATM    8  N6  UNL     1     -12.847  -2.034 -14.351  1.00  0.00    -0.275 N
ATOM      9  H6  UNL     1     -12.223  -2.708 -14.795  1.00  0.00     0.173 HD
HETATM   10  C9  UNL     1     -12.693  -0.716 -14.608  1.00  0.00     0.264 A
HETATM   11  O5  UNL     1     -11.787  -0.356 -15.388  1.00  0.00    -0.267 OA
ENDROOT
BRANCH   1  12
HETATM   12  C2  UNL     1     -13.278   1.629 -14.363  1.00  0.00     0.040 C
HETATM   13  C1  UNL     1     -14.058   2.276 -15.492  1.00  0.00     0.071 C
HETATM   14  N1  UNL     1     -12.448   2.420 -13.821  1.00  0.00    -0.302 N
ATOM     15  H1  UNL     1     -11.887   2.054 -13.052  1.00  0.00     0.186 HD
BRANCH  14  16
HETATM   16  N2  UNL     1     -12.241   3.732 -14.182  1.00  0.00    -0.278 N
ATOM     17  H2  UNL     1     -12.964   4.423 -13.983  1.00  0.00     0.189 HD
BRANCH  16  18
HETATM   18  C3  UNL     1     -11.045   4.148 -14.825  1.00  0.00     0.199 C
HETATM   19  N3  UNL     1      -9.775   3.744 -14.371  1.00  0.00    -0.068 NA
HETATM   20  S1  UNL     1     -11.117   5.130 -16.139  1.00  0.00    -0.043 SA
ENDBRANCH  16  18
ENDBRANCH  14  16
ENDBRANCH   1  12
BRANCH   3  21
HETATM   21  O1  UNL     1     -16.286  -0.044 -11.730  1.00  0.00    -0.339 OA
ATOM     22  H1  UNL     1     -16.247  -0.987 -11.837  1.00  0.00     0.220 HD
ENDBRANCH   3  21
BRANCH   3  23
HETATM   23  O2  UNL     1     -15.671   1.925 -12.430  1.00  0.00    -0.238 OA
BRANCH  23  24
HETATM   24  C7  UNL     1     -15.182   2.775 -11.400  1.00  0.00     0.379 C
HETATM   25  N4  UNL     1     -14.518   3.986 -11.740  1.00  0.00    -0.032 NA
HETATM   26  O3  UNL     1     -15.340   2.447 -10.201  1.00  0.00    -0.242 OA
ENDBRANCH  23  24
ENDBRANCH   3  23
TORSDOF 6
ENDMDL