MODEL 2
REMARK VINA RESULT: -6.527448618      0.553      1.040
REMARK  5 active torsions:
REMARK  status: ('A' for Active; 'I' for Inactive)
REMARK    1  A    between atoms: C3_6  and  C4_7
REMARK    2  A    between atoms: C4_7  and  C5_8
REMARK    3  A    between atoms: C7_12  and  N4_13
REMARK    4  A    between atoms: C9_20  and  S1_21
REMARK    5  A    between atoms: S1_21  and  N6_22
ROOT
HETATM    1  C5  UNL     1     -13.228   2.043 -13.829  1.00  0.00     0.036 C
HETATM    2  C6  UNL     1     -14.194   2.034 -12.752  1.00  0.00     0.078 A
HETATM    3  N3  UNL     1     -14.670   3.204 -12.224  1.00  0.00    -0.190 N
ATOM      4  H3  UNL     1     -14.352   4.095 -12.603  1.00  0.00     0.184 HD
HETATM    5  C7  UNL     1     -15.562   3.187 -11.198  1.00  0.00     0.679 A
HETATM    6  N5  UNL     1     -15.977   2.025 -10.703  1.00  0.00    -0.155 N
ATOM      7  H5  UNL     1     -16.645   2.012  -9.932  1.00  0.00     0.187 HD
HETATM    8  C8  UNL     1     -15.524   0.873 -11.209  1.00  0.00     0.285 A
HETATM    9  O1  UNL     1     -15.948  -0.192 -10.706  1.00  0.00    -0.266 OA
HETATM   10  C9  UNL     1     -14.619   0.833 -12.249  1.00  0.00     0.174 A
ENDROOT
BRANCH   1  11
HETATM   11  C4  UNL     1     -12.812   3.180 -14.348  1.00  0.00     0.052 C
BRANCH  11  12
HETATM   12  C3  UNL     1     -11.361   3.483 -14.367  1.00  0.00     0.120 A
HETATM   13  N2  UNL     1     -10.820   4.679 -14.711  1.00  0.00    -0.336 N
HETATM   14  C2  UNL     1      -9.483   4.593 -14.614  1.00  0.00     0.201 A
ATOM     15  H2  UNL     1     -11.343   5.507 -14.996  1.00  0.00     0.168 HD
HETATM   16  N1  UNL     1      -9.194   3.342 -14.209  1.00  0.00    -0.290 N
HETATM   17  C1  UNL     1      -7.836   2.884 -13.996  1.00  0.00     0.178 C
HETATM   18  N7  UNL     1     -10.325   2.687 -14.064  1.00  0.00    -0.283 N
ATOM     19  H7  UNL     1     -10.404   1.715 -13.764  1.00  0.00     0.189 HD
ENDBRANCH  11  12
ENDBRANCH   1  11
BRANCH  10  20
HETATM   20  S1  UNL     1     -14.098  -0.657 -12.891  1.00  0.00     0.264 S
HETATM   21  O2  UNL     1     -12.702  -0.729 -13.367  1.00  0.00    -0.200 OA
HETATM   22  O3  UNL     1     -14.954  -0.909 -14.156  1.00  0.00    -0.200 OA
BRANCH  20  23
HETATM   23  N6  UNL     1     -14.406  -2.009 -11.866  1.00  0.00    -0.324 N
ATOM     24  H62 UNL     1     -15.184  -2.023 -11.206  1.00  0.00     0.169 HD
ATOM     25  H61 UNL     1     -13.747  -2.778 -11.984  1.00  0.00     0.169 HD
ENDBRANCH  20  23
ENDBRANCH  10  20
BRANCH   5  26
HETATM   26  N4  UNL     1     -15.961   4.335 -10.756  1.00  0.00    -0.234 N
ATOM     27  H42 UNL     1     -15.838   5.209 -11.267  1.00  0.00     0.174 HD
ATOM     28  H41 UNL     1     -16.420   4.341  -9.845  1.00  0.00     0.174 HD
ENDBRANCH   5  26
TORSDOF 5
ENDMDL