MODEL 5
REMARK VINA RESULT: -5.723109149      2.222      5.479
REMARK  3 active torsions:
REMARK  status: ('A' for Active; 'I' for Inactive)
REMARK    1  A    between atoms: C2_2  and  N1_4
REMARK    2  A    between atoms: C7_14  and  C8_15
REMARK    3  A    between atoms: C8_15  and  C9_16
ROOT
HETATM    1  N1  UNL     1     -14.966   0.208 -16.872  1.00  0.00    -0.279 N
HETATM    2  C4  UNL     1     -15.359  -0.742 -17.732  1.00  0.00     0.329 A
HETATM    3  O1  UNL     1     -15.655  -0.521 -18.937  1.00  0.00    -0.246 OA
HETATM    4  N2  UNL     1     -15.384  -1.943 -17.104  1.00  0.00    -0.301 N
ATOM      5  H2  UNL     1     -15.647  -2.830 -17.533  1.00  0.00     0.171 HD
HETATM    6  C5  UNL     1     -15.004  -1.778 -15.826  1.00  0.00     0.150 A
HETATM    7  C6  UNL     1     -14.842  -2.612 -14.737  1.00  0.00     0.277 A
HETATM    8  O2  UNL     1     -15.076  -3.838 -14.857  1.00  0.00    -0.266 OA
HETATM    9  N3  UNL     1     -14.429  -2.113 -13.539  1.00  0.00    -0.311 N
ATOM     10  H3  UNL     1     -14.312  -2.737 -12.740  1.00  0.00     0.170 HD
HETATM   11  C7  UNL     1     -14.177  -0.798 -13.409  1.00  0.00     0.092 A
HETATM   12  N7  UNL     1     -14.342  -0.011 -14.473  1.00  0.00    -0.329 N
ATOM     13  H7  UNL     1     -14.146   0.984 -14.358  1.00  0.00     0.168 HD
HETATM   14  C11 UNL     1     -14.745  -0.431 -15.685  1.00  0.00     0.146 A
ENDROOT
BRANCH  11  15
HETATM   15  C8  UNL     1     -13.721  -0.221 -12.094  1.00  0.00     0.154 C
BRANCH  15  16
HETATM   16  C9  UNL     1     -14.706   0.833 -11.675  1.00  0.00     0.106 A
HETATM   17  N4  UNL     1     -15.883   0.671 -11.068  1.00  0.00    -0.285 N
HETATM   18  N5  UNL     1     -16.456   1.860 -10.869  1.00  0.00    -0.250 N
ATOM     19  H4  UNL     1     -16.284  -0.226 -10.796  1.00  0.00     0.188 HD
HETATM   20  C10 UNL     1     -15.616   2.789 -11.366  1.00  0.00     0.340 A
ATOM     21  H5  UNL     1     -17.358   2.032 -10.426  1.00  0.00     0.192 HD
HETATM   22  O3  UNL     1     -15.811   4.042 -11.362  1.00  0.00    -0.245 OA
HETATM   23  N6  UNL     1     -14.539   2.145 -11.861  1.00  0.00    -0.295 N
ATOM     24  H6  UNL     1     -13.732   2.585 -12.303  1.00  0.00     0.172 HD
ENDBRANCH  15  16
ENDBRANCH  11  15
BRANCH   1  25
HETATM   25  C2  UNL     1     -14.788   1.635 -17.075  1.00  0.00     0.088 C
HETATM   26  C1  UNL     1     -13.512   1.961 -17.805  1.00  0.00     0.032 C
HETATM   27  C3  UNL     1     -15.999   2.299 -17.659  1.00  0.00     0.032 C
ENDBRANCH   1  25
TORSDOF 3
ENDMDL