MODEL 4
REMARK VINA RESULT: -5.554990147      3.412      6.654
REMARK  8 active torsions:
REMARK  status: ('A' for Active; 'I' for Inactive)
REMARK    1  A    between atoms: N1_2  and  C2_4
REMARK    2  A    between atoms: C2_4  and  N2_6
REMARK    3  A    between atoms: N2_6  and  N3_8
REMARK       I    between atoms: N3_8  and  C3_10
REMARK    4  A    between atoms: C3_10  and  C4_12
REMARK    5  A    between atoms: C4_12  and  S2_13
REMARK    6  A    between atoms: S2_13  and  C5_14
REMARK    7  A    between atoms: C6_17  and  N5_18
REMARK    8  A    between atoms: N5_18  and  C7_20
ROOT
HETATM    1  C5  UNL     1       6.281 -15.014 -16.919  1.00  0.00     0.161 A
HETATM    2  N4  UNL     1       5.115 -15.099 -16.230  1.00  0.00    -0.170 N
ATOM      3  H4  UNL     1       4.252 -14.835 -16.706  1.00  0.00     0.186 HD
HETATM    4  C6  UNL     1       5.038 -15.514 -14.946  1.00  0.00     0.681 A
HETATM    5  N6  UNL     1       6.178 -15.857 -14.326  1.00  0.00    -0.181 N
ATOM      6  H6  UNL     1       6.158 -16.174 -13.357  1.00  0.00     0.185 HD
HETATM    7  C13 UNL     1       7.361 -15.782 -14.991  1.00  0.00     0.095 A
HETATM    8  C14 UNL     1       8.590 -16.158 -14.240  1.00  0.00     0.089 C
HETATM    9  N7  UNL     1       7.397 -15.367 -16.266  1.00  0.00    -0.326 N
ATOM     10  H7  UNL     1       8.295 -15.317 -16.749  1.00  0.00     0.169 HD
ENDROOT
BRANCH   1  11
HETATM   11  S2  UNL     1       6.286 -14.497 -18.635  1.00  0.00    -0.084 SA
BRANCH  11  12
HETATM   12  C4  UNL     1       4.740 -14.997 -19.423  1.00  0.00     0.186 C
BRANCH  12  13
HETATM   13  C3  UNL     1       3.725 -13.889 -19.401  1.00  0.00     0.245 C
HETATM   14  N3  UNL     1       2.994 -13.690 -20.599  1.00  0.00    -0.267 N
ATOM     15  H3  UNL     1       3.172 -14.294 -21.401  1.00  0.00     0.190 HD
HETATM   16  O1  UNL     1       3.593 -13.232 -18.360  1.00  0.00    -0.271 OA
BRANCH  14  17
HETATM   17  N2  UNL     1       2.040 -12.688 -20.699  1.00  0.00    -0.274 N
ATOM     18  H2  UNL     1       1.239 -12.695 -20.066  1.00  0.00     0.189 HD
BRANCH  17  19
HETATM   19  C2  UNL     1       2.159 -11.640 -21.674  1.00  0.00     0.186 C
HETATM   20  S1  UNL     1       3.542 -10.752 -21.674  1.00  0.00    -0.040 SA
BRANCH  19  21
HETATM   21  N1  UNL     1       1.145 -11.357 -22.615  1.00  0.00    -0.370 N
HETATM   22  C1  UNL     1       0.273 -10.232 -22.410  1.00  0.00     0.148 C
ATOM     23  H1  UNL     1       1.031 -11.949 -23.438  1.00  0.00     0.161 HD
ENDBRANCH  19  21
ENDBRANCH  17  19
ENDBRANCH  14  17
ENDBRANCH  12  13
ENDBRANCH  11  12
ENDBRANCH   1  11
BRANCH   4  24
HETATM   24  N5  UNL     1       3.899 -15.585 -14.336  1.00  0.00    -0.221 N
ATOM     25  H5  UNL     1       3.179 -16.217 -14.685  1.00  0.00     0.178 HD
BRANCH  24  26
HETATM   26  C7  UNL     1       3.637 -14.781 -13.167  1.00  0.00     0.099 C
HETATM   27  C8  UNL     1       3.103 -13.438 -13.569  1.00  0.00     0.026 C
HETATM   28  C9  UNL     1       1.736 -13.491 -14.174  1.00  0.00     0.002 C
HETATM   29  C10 UNL     1       0.969 -14.732 -13.772  1.00  0.00     0.000 C
HETATM   30  C11 UNL     1       1.290 -14.971 -12.311  1.00  0.00     0.002 C
HETATM   31  C12 UNL     1       2.690 -15.543 -12.280  1.00  0.00     0.026 C
ENDBRANCH  24  26
ENDBRANCH   4  24
TORSDOF 8
ENDMDL