MODEL 1
REMARK VINA RESULT: -6.451283681      0.000      0.000
REMARK  5 active torsions:
REMARK  status: ('A' for Active; 'I' for Inactive)
REMARK       I    between atoms: C2_2  and  N1_4
REMARK    1  A    between atoms: N1_4  and  N2_6
REMARK    2  A    between atoms: C3_8  and  O2_9
REMARK    3  A    between atoms: C3_8  and  C4_11
REMARK       I    between atoms: N4_26  and  C17_27
REMARK    4  A    between atoms: C17_27  and  C18_29
REMARK    5  A    between atoms: C18_29  and  N5_31
ROOT
HETATM    1  C4  UNL     1       4.850 -12.448 -18.089  1.00  0.00     0.062 C
HETATM    2  C5  UNL     1       6.319 -12.372 -17.799  1.00  0.00     0.015 C
HETATM    3  C6  UNL     1       6.825 -13.301 -16.766  1.00  0.00     0.033 C
HETATM    4  C7  UNL     1       5.775 -13.901 -15.936  1.00  0.00     0.051 C
HETATM    5  C8  UNL     1       4.907 -14.675 -16.941  1.00  0.00     0.033 C
HETATM    6  C9  UNL     1       4.319 -13.852 -18.019  1.00  0.00     0.015 C
HETATM    7  C10 UNL     1       6.325 -15.053 -15.052  1.00  0.00     0.145 C
HETATM    8  N3  UNL     1       5.158 -15.781 -14.617  1.00  0.00    -0.413 N
ATOM      9  H3  UNL     1       5.041 -16.778 -14.796  1.00  0.00     0.153 HD
HETATM   10  C11 UNL     1       4.181 -15.013 -13.921  1.00  0.00     0.099 C
HETATM   11  C12 UNL     1       2.984 -15.869 -13.688  1.00  0.00     0.027 C
HETATM   12  C13 UNL     1       1.750 -15.180 -13.244  1.00  0.00     0.002 C
HETATM   13  C14 UNL     1       1.476 -13.890 -13.977  1.00  0.00     0.002 C
HETATM   14  C15 UNL     1       2.754 -12.997 -13.938  1.00  0.00     0.027 C
HETATM   15  C16 UNL     1       3.758 -13.759 -14.684  1.00  0.00     0.110 C
HETATM   16  N4  UNL     1       5.038 -13.098 -15.005  1.00  0.00    -0.333 N
HETATM   17  C17 UNL     1       5.425 -11.911 -14.376  1.00  0.00     0.251 C
HETATM   18  O3  UNL     1       4.512 -11.344 -13.644  1.00  0.00    -0.271 OA
ENDROOT
BRANCH  17  19
HETATM   19  C18 UNL     1       6.674 -11.172 -14.374  1.00  0.00     0.271 C
HETATM   20  C19 UNL     1       7.494 -11.414 -13.088  1.00  0.00     0.050 C
BRANCH  19  21
HETATM   21  N5  UNL     1       6.364  -9.714 -14.255  1.00  0.00    -0.067 N
ATOM     22  H53 UNL     1       6.962  -9.241 -13.576  1.00  0.00     0.275 HD
ATOM     23  H52 UNL     1       6.645  -9.186 -15.081  1.00  0.00     0.275 HD
ATOM     24  H51 UNL     1       5.372  -9.610 -14.043  1.00  0.00     0.275 HD
ENDBRANCH  19  21
ENDBRANCH  17  19
BRANCH   1  25
HETATM   25  C3  UNL     1       4.620 -11.933 -19.455  1.00  0.00     0.134 C
HETATM   26  N2  UNL     1       4.077 -12.649 -20.368  1.00  0.00    -0.281 N
ATOM     27  H2  UNL     1       3.801 -13.600 -20.123  1.00  0.00     0.189 HD
BRANCH  26  28
HETATM   28  N1  UNL     1       3.837 -12.224 -21.661  1.00  0.00    -0.269 N
HETATM   29  C2  UNL     1       2.504 -11.941 -22.064  1.00  0.00     0.232 C
HETATM   30  C1  UNL     1       2.228 -11.482 -23.453  1.00  0.00     0.119 C
HETATM   31  O1  UNL     1       1.561 -12.075 -21.265  1.00  0.00    -0.272 OA
ATOM     32  H1  UNL     1       4.609 -12.115 -22.319  1.00  0.00     0.190 HD
ENDBRANCH  26  28
BRANCH  25  33
HETATM   33  O2  UNL     1       5.000 -10.644 -19.768  1.00  0.00    -0.348 OA
ATOM     34  H2  UNL     1       5.631 -10.209 -19.207  1.00  0.00     0.219 HD
ENDBRANCH  25  33
ENDBRANCH   1  25
TORSDOF 5
ENDMDL