MODEL 2
REMARK VINA RESULT: -7.140084496      2.214      3.616
REMARK  5 active torsions:
REMARK  status: ('A' for Active; 'I' for Inactive)
REMARK    1  A    between atoms: N2_10  and  C6_11
REMARK    2  A    between atoms: C6_11  and  C7_12
REMARK       I    between atoms: C7_12  and  N3_14
REMARK    3  A    between atoms: N3_14  and  C8_16
REMARK    4  A    between atoms: C8_16  and  C9_17
REMARK       I    between atoms: C9_17  and  N4_19
REMARK    5  A    between atoms: N4_19  and  N5_21
ROOT
HETATM    1  C7  UNL     1       5.681 -14.429 -13.163  1.00  0.00     0.237 C
HETATM    2  O2  UNL     1       5.572 -13.272 -12.691  1.00  0.00    -0.272 OA
HETATM    3  N3  UNL     1       4.539 -15.259 -13.222  1.00  0.00    -0.342 N
ATOM      4  H3  UNL     1       4.635 -16.199 -13.608  1.00  0.00     0.163 HD
ENDROOT
BRANCH   1   5
HETATM    5  C6  UNL     1       6.996 -14.914 -13.653  1.00  0.00     0.237 C
BRANCH   5   6
HETATM    6  N2  UNL     1       6.962 -15.122 -15.083  1.00  0.00    -0.283 N
HETATM    7  C3  UNL     1       6.269 -14.421 -16.009  1.00  0.00     0.108 A
HETATM    8  S1  UNL     1       5.194 -13.124 -16.265  1.00  0.00    -0.074 SA
HETATM    9  C4  UNL     1       6.482 -14.904 -17.270  1.00  0.00     0.077 A
HETATM   10  C2  UNL     1       5.040 -13.228 -17.964  1.00  0.00    -0.011 A
HETATM   11  C1  UNL     1       4.210 -12.350 -18.867  1.00  0.00     0.057 C
HETATM   12  C15 UNL     1       5.846 -14.288 -18.284  1.00  0.00    -0.019 A
HETATM   13  C16 UNL     1       5.953 -14.676 -19.750  1.00  0.00     0.052 C
HETATM   14  N1  UNL     1       7.347 -15.947 -17.068  1.00  0.00    -0.305 N
HETATM   15  C5  UNL     1       7.618 -16.060 -15.773  1.00  0.00     0.328 A
ATOM     16  H1  UNL     1       7.726 -16.546 -17.801  1.00  0.00     0.171 HD
HETATM   17  O1  UNL     1       8.398 -16.948 -15.289  1.00  0.00    -0.246 OA
ENDBRANCH   5   6
ENDBRANCH   1   5
BRANCH   3  18
HETATM   18  C8  UNL     1       3.203 -14.814 -12.743  1.00  0.00     0.115 C
HETATM   19  C10 UNL     1       2.163 -15.654 -13.369  1.00  0.00     0.041 C
HETATM   20  C11 UNL     1       1.043 -15.005 -14.108  1.00  0.00     0.003 C
HETATM   21  C12 UNL     1       0.784 -13.572 -13.763  1.00  0.00     0.000 C
HETATM   22  C13 UNL     1       2.036 -12.761 -13.695  1.00  0.00     0.003 C
HETATM   23  C14 UNL     1       3.103 -13.344 -12.852  1.00  0.00     0.041 C
BRANCH  18  24
HETATM   24  C9  UNL     1       3.249 -15.112 -11.256  1.00  0.00     0.264 C
HETATM   25  O3  UNL     1       3.107 -16.278 -10.836  1.00  0.00    -0.269 OA
HETATM   26  N4  UNL     1       3.449 -14.084 -10.314  1.00  0.00    -0.275 N
ATOM     27  H4  UNL     1       3.565 -13.130 -10.657  1.00  0.00     0.189 HD
BRANCH  26  28
HETATM   28  N5  UNL     1       3.499 -14.302  -8.937  1.00  0.00    -0.343 N
ATOM     29  H52 UNL     1       2.731 -14.828  -8.520  1.00  0.00     0.176 HD
ATOM     30  H51 UNL     1       4.255 -13.965  -8.341  1.00  0.00     0.176 HD
ENDBRANCH  26  28
ENDBRANCH  18  24
ENDBRANCH   3  18
TORSDOF 5
ENDMDL