MODEL 5
REMARK VINA RESULT: -5.831280012      2.629      3.231
REMARK  8 active torsions:
REMARK  status: ('A' for Active; 'I' for Inactive)
REMARK    1  A    between atoms: C2_2  and  C4_4
REMARK       I    between atoms: C4_4  and  N1_6
REMARK    2  A    between atoms: N1_6  and  C5_8
REMARK    3  A    between atoms: C7_13  and  C8_14
REMARK    4  A    between atoms: C8_14  and  C9_15
REMARK       I    between atoms: C9_15  and  N4_17
REMARK    5  A    between atoms: N4_17  and  C10_19
REMARK    6  A    between atoms: C11_22  and  C12_23
REMARK    7  A    between atoms: C12_23  and  N6_25
REMARK    8  A    between atoms: C12_23  and  O3_29
ROOT
HETATM    1  C9  UNL     1       7.004 -15.163 -15.770  1.00  0.00     0.228 C
HETATM    2  O2  UNL     1       7.020 -16.405 -15.945  1.00  0.00    -0.273 OA
HETATM    3  N4  UNL     1       6.622 -14.676 -14.508  1.00  0.00    -0.307 N
ATOM      4  H4  UNL     1       7.344 -14.433 -13.830  1.00  0.00     0.171 HD
ENDROOT
BRANCH   1   5
HETATM    5  C8  UNL     1       7.371 -14.212 -16.806  1.00  0.00     0.152 C
BRANCH   5   6
HETATM    6  C7  UNL     1       6.615 -14.331 -18.088  1.00  0.00     0.036 A
HETATM    7  C6  UNL     1       6.991 -15.020 -19.221  1.00  0.00     0.132 A
HETATM    8  N2  UNL     1       6.232 -14.975 -20.253  1.00  0.00    -0.324 N
HETATM    9  N3  UNL     1       8.255 -15.764 -19.172  1.00  0.00    -0.082 NA
HETATM   10  C5  UNL     1       5.080 -14.245 -20.192  1.00  0.00     0.152 A
ATOM     11  H2  UNL     1       6.485 -15.474 -21.106  1.00  0.00     0.169 HD
HETATM   12  S2  UNL     1       5.144 -13.636 -18.586  1.00  0.00    -0.054 SA
BRANCH  10  13
HETATM   13  N1  UNL     1       4.268 -14.078 -21.134  1.00  0.00    -0.307 N
HETATM   14  C4  UNL     1       3.213 -13.477 -21.610  1.00  0.00     0.227 C
HETATM   15  O1  UNL     1       2.385 -12.828 -20.875  1.00  0.00    -0.273 OA
ATOM     16  H1  UNL     1       4.580 -14.706 -21.875  1.00  0.00     0.171 HD
BRANCH  14  17
HETATM   17  C2  UNL     1       2.894 -13.516 -23.088  1.00  0.00     0.070 C
HETATM   18  C1  UNL     1       4.128 -13.877 -23.874  1.00  0.00     0.019 C
HETATM   19  C3  UNL     1       2.435 -12.124 -23.542  1.00  0.00     0.019 C
ENDBRANCH  14  17
ENDBRANCH  10  13
ENDBRANCH   5   6
ENDBRANCH   1   5
BRANCH   3  20
HETATM   20  C10 UNL     1       5.370 -14.527 -14.181  1.00  0.00     0.151 A
HETATM   21  N5  UNL     1       4.732 -15.089 -13.153  1.00  0.00    -0.335 N
HETATM   22  C11 UNL     1       3.463 -14.824 -12.987  1.00  0.00     0.080 A
ATOM     23  H5  UNL     1       5.223 -15.712 -12.513  1.00  0.00     0.168 HD
HETATM   24  C14 UNL     1       2.868 -13.978 -13.888  1.00  0.00     0.083 A
HETATM   25  S1  UNL     1       4.152 -13.601 -14.935  1.00  0.00    -0.064 SA
BRANCH  22  26
HETATM   26  C12 UNL     1       2.689 -15.444 -11.821  1.00  0.00     0.262 C
HETATM   27  C13 UNL     1       3.201 -14.885 -10.547  1.00  0.00     0.085 C
BRANCH  26  28
HETATM   28  N6  UNL     1       1.304 -15.160 -12.048  1.00  0.00    -0.042 N
ATOM     29  H63 UNL     1       0.805 -14.887 -11.202  1.00  0.00     0.278 HD
ATOM     30  H62 UNL     1       1.150 -14.298 -12.571  1.00  0.00     0.278 HD
ATOM     31  H61 UNL     1       0.906 -15.982 -12.502  1.00  0.00     0.278 HD
ENDBRANCH  26  28
BRANCH  26  32
HETATM   32  O3  UNL     1       2.938 -16.821 -11.813  1.00  0.00    -0.361 OA
ATOM     33  H3  UNL     1       2.123 -17.270 -11.622  1.00  0.00     0.213 HD
ENDBRANCH  26  32
ENDBRANCH  22  26
ENDBRANCH   3  20
TORSDOF 8
ENDMDL