MODEL 4
REMARK VINA RESULT: -5.923209870      2.100      2.249
REMARK  8 active torsions:
REMARK  status: ('A' for Active; 'I' for Inactive)
REMARK    1  A    between atoms: C2_2  and  O1_3
REMARK    2  A    between atoms: C2_2  and  N1_5
REMARK    3  A    between atoms: N1_5  and  C3_6
REMARK    4  A    between atoms: C4_9  and  N3_10
REMARK       I    between atoms: N3_10  and  C5_12
REMARK       I    between atoms: C5_12  and  N4_14
REMARK    5  A    between atoms: N4_14  and  C6_16
REMARK    6  A    between atoms: C11_23  and  C12_24
REMARK    7  A    between atoms: C15_28  and  N6_29
REMARK    8  A    between atoms: N6_29  and  O4_31
ROOT
HETATM    1  C3  UNL     1       3.169 -13.915 -13.235  1.00  0.00     0.212 A
HETATM    2  N2  UNL     1       3.999 -13.634 -14.292  1.00  0.00    -0.314 N
ATOM      3  H2  UNL     1       3.575 -13.273 -15.146  1.00  0.00     0.170 HD
HETATM    4  C4  UNL     1       5.351 -13.806 -14.276  1.00  0.00     0.125 A
HETATM    5  C11 UNL     1       5.933 -14.289 -13.126  1.00  0.00     0.056 A
HETATM    6  C14 UNL     1       5.136 -14.590 -12.031  1.00  0.00     0.055 A
HETATM    7  C15 UNL     1       3.753 -14.397 -12.100  1.00  0.00     0.115 A
ENDROOT
BRANCH   4   8
HETATM    8  N3  UNL     1       6.135 -13.588 -15.425  1.00  0.00    -0.294 N
HETATM    9  C5  UNL     1       6.343 -14.473 -16.507  1.00  0.00     0.322 C
HETATM   10  O2  UNL     1       5.860 -15.595 -16.592  1.00  0.00    -0.247 OA
HETATM   11  N4  UNL     1       7.197 -14.014 -17.592  1.00  0.00    -0.338 N
ATOM     12  H4  UNL     1       7.597 -13.078 -17.545  1.00  0.00     0.164 HD
ATOM     13  H3  UNL     1       6.607 -12.686 -15.484  1.00  0.00     0.172 HD
BRANCH  11  14
HETATM   14  C6  UNL     1       7.494 -14.844 -18.732  1.00  0.00     0.089 C
HETATM   15  C7  UNL     1       8.928 -14.557 -19.265  1.00  0.00     0.044 C
HETATM   16  C8  UNL     1       9.148 -15.673 -20.292  1.00  0.00     0.115 C
HETATM   17  N5  UNL     1       8.281 -15.451 -21.396  1.00  0.00    -0.421 N
HETATM   18  C9  UNL     1       7.180 -14.571 -21.195  1.00  0.00     0.115 C
ATOM     19  H5  UNL     1       8.441 -15.905 -22.295  1.00  0.00     0.153 HD
HETATM   20  C10 UNL     1       6.514 -14.712 -19.842  1.00  0.00     0.044 C
ENDBRANCH  11  14
ENDBRANCH   4   8
BRANCH   5  21
HETATM   21  C12 UNL     1       7.387 -14.443 -12.925  1.00  0.00     0.159 C
HETATM   22  C13 UNL     1       7.870 -15.254 -11.747  1.00  0.00     0.097 C
HETATM   23  O3  UNL     1       8.279 -13.956 -13.648  1.00  0.00    -0.293 OA
ENDBRANCH   5  21
BRANCH   1  24
HETATM   24  N1  UNL     1       2.012 -13.730 -13.357  1.00  0.00    -0.365 NA
BRANCH  24  25
HETATM   25  C2  UNL     1       0.728 -13.590 -13.642  1.00  0.00     0.188 C
HETATM   26  C1  UNL     1       0.186 -13.859 -15.001  1.00  0.00     0.114 C
BRANCH  25  27
HETATM   27  O1  UNL     1      -0.211 -13.211 -12.818  1.00  0.00    -0.339 OA
ATOM     28  H1  UNL     1      -0.919 -12.772 -13.275  1.00  0.00     0.220 HD
ENDBRANCH  25  27
ENDBRANCH  24  25
ENDBRANCH   1  24
BRANCH   7  29
HETATM   29  N6  UNL     1       3.026 -14.707 -10.929  1.00  0.00    -0.261 N
HETATM   30  C16 UNL     1       3.535 -14.377  -9.633  1.00  0.00     0.185 C
BRANCH  29  31
HETATM   31  O4  UNL     1       1.924 -15.273 -11.042  1.00  0.00    -0.287 OA
ATOM     32  H4  UNL     1       1.898 -16.222 -11.068  1.00  0.00     0.244 HD
ENDBRANCH  29  31
ENDBRANCH   7  29
TORSDOF 8
ENDMDL