MODEL 3
REMARK VINA RESULT: -6.195925834      3.120      3.855
REMARK  6 active torsions:
REMARK  status: ('A' for Active; 'I' for Inactive)
REMARK    1  A    between atoms: N1_2  and  C2_4
REMARK    2  A    between atoms: C2_4  and  O1_5
REMARK    3  A    between atoms: C5_13  and  C6_14
REMARK    4  A    between atoms: C9_19  and  N5_20
REMARK       I    between atoms: N5_20  and  C10_22
REMARK    5  A    between atoms: C10_22  and  C11_24
REMARK    6  A    between atoms: N8_34  and  O3_35
ROOT
HETATM    1  C6  UNL     1       3.646 -14.748 -14.780  1.00  0.00     0.147 A
HETATM    2  N4  UNL     1       3.985 -13.623 -15.433  1.00  0.00    -0.342 N
ATOM      3  H4  UNL     1       3.447 -12.778 -15.238  1.00  0.00     0.167 HD
HETATM    4  C7  UNL     1       4.971 -13.539 -16.312  1.00  0.00     0.035 A
HETATM    5  C8  UNL     1       5.286 -12.267 -16.990  1.00  0.00     0.070 C
HETATM    6  C9  UNL     1       5.751 -14.663 -16.626  1.00  0.00     0.075 A
HETATM    7  C16 UNL     1       5.417 -15.805 -15.973  1.00  0.00     0.156 A
HETATM    8  N8  UNL     1       4.389 -15.819 -15.081  1.00  0.00    -0.216 N
ENDROOT
BRANCH   1   9
HETATM    9  C5  UNL     1       2.531 -14.734 -13.850  1.00  0.00     0.059 A
HETATM   10  C3  UNL     1       2.477 -14.986 -12.534  1.00  0.00     0.114 A
HETATM   11  C2  UNL     1       3.482 -15.367 -11.584  1.00  0.00     0.165 C
HETATM   12  N2  UNL     1       1.152 -14.842 -12.150  1.00  0.00    -0.296 N
HETATM   13  N3  UNL     1       0.411 -14.513 -13.159  1.00  0.00    -0.310 N
ATOM     14  H2  UNL     1       0.808 -14.977 -11.199  1.00  0.00     0.187 HD
HETATM   15  C4  UNL     1       1.219 -14.434 -14.228  1.00  0.00     0.124 A
ATOM     16  H3  UNL     1      -0.596 -14.346 -13.144  1.00  0.00     0.186 HD
BRANCH  11  17
HETATM   17  N1  UNL     1       4.789 -14.881 -11.479  1.00  0.00    -0.373 N
HETATM   18  C1  UNL     1       5.122 -13.566 -12.030  1.00  0.00     0.148 C
ATOM     19  H1  UNL     1       5.507 -15.441 -11.019  1.00  0.00     0.161 HD
ENDBRANCH  11  17
BRANCH  11  20
HETATM   20  O1  UNL     1       3.172 -16.265 -10.690  1.00  0.00    -0.345 OA
ATOM     21  H1  UNL     1       3.079 -17.144 -11.037  1.00  0.00     0.219 HD
ENDBRANCH  11  20
ENDBRANCH   1   9
BRANCH   8  22
HETATM   22  O3  UNL     1       4.134 -17.024 -14.504  1.00  0.00    -0.281 OA
ATOM     23  H3  UNL     1       4.843 -17.623 -14.299  1.00  0.00     0.245 HD
ENDBRANCH   8  22
BRANCH   6  24
HETATM   24  N5  UNL     1       6.796 -14.549 -17.565  1.00  0.00    -0.318 N
HETATM   25  C10 UNL     1       6.767 -14.798 -18.935  1.00  0.00     0.290 C
HETATM   26  O2  UNL     1       5.770 -15.177 -19.564  1.00  0.00    -0.264 OA
ATOM     27  H5  UNL     1       7.694 -14.242 -17.191  1.00  0.00     0.169 HD
BRANCH  25  28
HETATM   28  C11 UNL     1       7.983 -14.619 -19.764  1.00  0.00     0.175 A
HETATM   29  N6  UNL     1       8.802 -13.565 -19.851  1.00  0.00    -0.340 N
HETATM   30  C12 UNL     1       9.783 -13.833 -20.729  1.00  0.00     0.029 A
ATOM     31  H6  UNL     1       8.698 -12.693 -19.332  1.00  0.00     0.167 HD
HETATM   32  C13 UNL     1      10.902 -12.946 -21.126  1.00  0.00     0.070 C
HETATM   33  C14 UNL     1       9.591 -15.091 -21.219  1.00  0.00     0.029 A
HETATM   34  C15 UNL     1      10.425 -15.817 -22.215  1.00  0.00     0.070 C
HETATM   35  N7  UNL     1       8.475 -15.558 -20.610  1.00  0.00    -0.340 N
ATOM     36  H7  UNL     1       8.065 -16.479 -20.765  1.00  0.00     0.167 HD
ENDBRANCH  25  28
ENDBRANCH   6  24
TORSDOF 6
ENDMDL