MODEL 3
REMARK VINA RESULT: -5.866398445      3.927      5.755
REMARK  5 active torsions:
REMARK  status: ('A' for Active; 'I' for Inactive)
REMARK    1  A    between atoms: N1_2  and  C2_5
REMARK    2  A    between atoms: C2_5  and  C3_6
REMARK    3  A    between atoms: C4_9  and  S1_10
REMARK    4  A    between atoms: S1_10  and  N3_12
REMARK    5  A    between atoms: C12_21  and  N4_22
REMARK       I    between atoms: N4_22  and  C13_24
ROOT
HETATM    1  C3  UNL     1       7.636 -15.433 -13.736  1.00  0.00     0.064 A
HETATM    2  N2  UNL     1       8.384 -15.832 -14.767  1.00  0.00    -0.348 N
ATOM      3  H2  UNL     1       9.364 -16.029 -14.566  1.00  0.00     0.166 HD
HETATM    4  C4  UNL     1       7.992 -16.001 -16.026  1.00  0.00     0.123 A
HETATM    5  C10 UNL     1       6.647 -15.719 -16.256  1.00  0.00     0.062 A
HETATM    6  C11 UNL     1       5.818 -15.295 -15.204  1.00  0.00     0.040 A
HETATM    7  S2  UNL     1       4.170 -14.861 -15.057  1.00  0.00    -0.052 SA
HETATM    8  C12 UNL     1       4.152 -14.506 -13.389  1.00  0.00     0.152 A
HETATM    9  N7  UNL     1       5.417 -14.738 -13.018  1.00  0.00    -0.334 N
ATOM     10  H7  UNL     1       5.710 -14.607 -12.050  1.00  0.00     0.168 HD
HETATM   11  C14 UNL     1       6.266 -15.137 -13.923  1.00  0.00     0.076 A
ENDROOT
BRANCH   4  12
HETATM   12  S1  UNL     1       9.009 -16.526 -17.347  1.00  0.00     0.165 S
HETATM   13  O1  UNL     1       8.299 -16.181 -18.655  1.00  0.00    -0.229 OA
BRANCH  12  14
HETATM   14  N3  UNL     1       9.456 -18.149 -17.344  1.00  0.00    -0.327 N
HETATM   15  C5  UNL     1       9.588 -18.801 -18.604  1.00  0.00     0.133 C
HETATM   16  C6  UNL     1       8.985 -20.195 -18.461  1.00  0.00     0.021 C
HETATM   17  C7  UNL     1       9.346 -20.728 -17.095  1.00  0.00     0.003 C
HETATM   18  C8  UNL     1      10.654 -20.076 -16.638  1.00  0.00     0.021 C
HETATM   19  C9  UNL     1      10.290 -18.623 -16.309  1.00  0.00     0.133 C
ENDBRANCH  12  14
ENDBRANCH   4  12
BRANCH   1  20
HETATM   20  C2  UNL     1       8.271 -15.306 -12.391  1.00  0.00     0.291 C
BRANCH  20  21
HETATM   21  N1  UNL     1       8.470 -16.630 -11.864  1.00  0.00    -0.074 N
HETATM   22  C1  UNL     1       9.828 -16.940 -11.546  1.00  0.00     0.267 C
ATOM     23  H12 UNL     1       8.085 -17.327 -12.500  1.00  0.00     0.277 HD
ATOM     24  H11 UNL     1       7.871 -16.784 -11.053  1.00  0.00     0.277 HD
ENDBRANCH  20  21
ENDBRANCH   1  20
BRANCH   8  25
HETATM   25  N4  UNL     1       3.158 -14.103 -12.625  1.00  0.00    -0.311 N
HETATM   26  C13 UNL     1       2.158 -15.094 -12.346  1.00  0.00     0.187 C
HETATM   27  N5  UNL     1       0.922 -14.815 -12.543  1.00  0.00    -0.373 N
HETATM   28  N6  UNL     1       2.498 -16.383 -11.855  1.00  0.00    -0.064 NA
ATOM     29  H52 UNL     1       0.677 -13.889 -12.896  1.00  0.00     0.158 HD
ATOM     30  H51 UNL     1       0.211 -15.519 -12.346  1.00  0.00     0.158 HD
ATOM     31  H4  UNL     1       3.103 -13.153 -12.257  1.00  0.00     0.170 HD
ENDBRANCH   8  25
TORSDOF 5
ENDMDL