MODEL 5
REMARK VINA RESULT: -5.752560245      1.976      2.560
REMARK  6 active torsions:
REMARK  status: ('A' for Active; 'I' for Inactive)
REMARK    1  A    between atoms: N1_4  and  N2_6
REMARK    2  A    between atoms: N2_6  and  C4_8
REMARK       I    between atoms: N5_14  and  C6_16
REMARK    3  A    between atoms: C6_16  and  C7_18
REMARK    4  A    between atoms: C7_18  and  C8_19
REMARK    5  A    between atoms: C8_19  and  C9_20
REMARK       I    between atoms: C9_20  and  N6_22
REMARK    6  A    between atoms: C12_25  and  O3_27
ROOT
HETATM    1  C4  UNL     1       3.239 -13.442 -19.852  1.00  0.00     0.181 A
HETATM    2  N3  UNL     1       3.693 -14.695 -19.885  1.00  0.00    -0.276 N
ATOM      3  H3  UNL     1       3.304 -15.369 -20.543  1.00  0.00     0.189 HD
HETATM    4  N4  UNL     1       4.623 -15.038 -19.079  1.00  0.00    -0.277 N
ATOM      5  H4  UNL     1       4.987 -15.990 -19.085  1.00  0.00     0.189 HD
HETATM    6  C5  UNL     1       5.110 -14.131 -18.230  1.00  0.00     0.169 A
HETATM    7  N5  UNL     1       6.060 -14.302 -17.336  1.00  0.00    -0.306 N
ATOM      8  H5  UNL     1       6.526 -15.202 -17.217  1.00  0.00     0.171 HD
HETATM    9  C6  UNL     1       6.411 -13.159 -16.533  1.00  0.00     0.224 C
HETATM   10  O1  UNL     1       7.526 -12.617 -16.713  1.00  0.00    -0.273 OA
HETATM   11  S1  UNL     1       4.187 -12.747 -18.621  1.00  0.00    -0.014 SA
ENDROOT
BRANCH   9  12
HETATM   12  C7  UNL     1       5.499 -12.614 -15.512  1.00  0.00     0.112 C
BRANCH  12  13
HETATM   13  C8  UNL     1       5.648 -13.399 -14.238  1.00  0.00     0.112 C
BRANCH  13  14
HETATM   14  C9  UNL     1       4.700 -14.528 -14.259  1.00  0.00     0.220 C
HETATM   15  O2  UNL     1       5.083 -15.678 -14.581  1.00  0.00    -0.273 OA
HETATM   16  N6  UNL     1       3.347 -14.310 -13.914  1.00  0.00    -0.352 N
HETATM   17  C10 UNL     1       2.916 -12.982 -13.544  1.00  0.00     0.128 C
HETATM   18  C15 UNL     1       2.363 -15.372 -13.916  1.00  0.00     0.128 C
HETATM   19  C11 UNL     1       1.546 -12.739 -14.161  1.00  0.00     0.057 C
HETATM   20  C12 UNL     1       0.543 -13.750 -13.690  1.00  0.00     0.057 C
HETATM   21  C13 UNL     1      -0.238 -14.235 -14.873  1.00  0.00     0.046 C
HETATM   22  C14 UNL     1       1.217 -14.938 -13.028  1.00  0.00     0.057 C
BRANCH  20  23
HETATM   23  O3  UNL     1      -0.283 -13.165 -12.749  1.00  0.00    -0.390 OA
ATOM     24  H3  UNL     1      -1.169 -13.485 -12.871  1.00  0.00     0.210 HD
ENDBRANCH  20  23
ENDBRANCH  13  14
ENDBRANCH  12  13
ENDBRANCH   9  12
BRANCH   1  25
HETATM   25  N2  UNL     1       2.307 -12.868 -20.570  1.00  0.00    -0.279 N
ATOM     26  H2  UNL     1       1.513 -12.424 -20.110  1.00  0.00     0.189 HD
BRANCH  25  27
HETATM   27  N1  UNL     1       2.396 -12.862 -21.940  1.00  0.00    -0.308 N
HETATM   28  C2  UNL     1       2.387 -11.812 -22.685  1.00  0.00    -0.004 C
HETATM   29  C1  UNL     1       2.278 -10.439 -22.138  1.00  0.00     0.064 C
HETATM   30  C3  UNL     1       2.493 -12.034 -24.154  1.00  0.00     0.064 C
ATOM     31  H1  UNL     1       2.475 -13.765 -22.407  1.00  0.00     0.186 HD
ENDBRANCH  25  27
ENDBRANCH   1  25
TORSDOF 6
ENDMDL