MODEL 2
REMARK VINA RESULT: -6.107427642      2.529      2.971
REMARK  5 active torsions:
REMARK  status: ('A' for Active; 'I' for Inactive)
REMARK       I    between atoms: C2_2  and  N1_4
REMARK    1  A    between atoms: N1_4  and  C3_6
REMARK    2  A    between atoms: C4_11  and  C5_12
REMARK    3  A    between atoms: C5_12  and  N4_13
REMARK       I    between atoms: N4_13  and  C6_15
REMARK    4  A    between atoms: C6_15  and  C7_17
REMARK    5  A    between atoms: C11_21  and  N5_22
REMARK       I    between atoms: N5_22  and  C12_24
ROOT
HETATM    1  N4  UNL     1       6.423 -13.556 -17.613  1.00  0.00    -0.355 N
ATOM      2  H4  UNL     1       6.357 -12.574 -17.345  1.00  0.00     0.162 HD
HETATM    3  C6  UNL     1       6.045 -13.964 -18.913  1.00  0.00     0.222 C
HETATM    4  O2  UNL     1       6.115 -15.160 -19.273  1.00  0.00    -0.273 OA
ENDROOT
BRANCH   1   5
HETATM    5  C5  UNL     1       6.906 -14.540 -16.662  1.00  0.00     0.189 C
BRANCH   5   6
HETATM    6  C4  UNL     1       5.869 -14.668 -15.571  1.00  0.00     0.087 A
HETATM    7  N3  UNL     1       5.767 -15.611 -14.646  1.00  0.00    -0.294 N
HETATM    8  N2  UNL     1       4.827 -15.570 -13.794  1.00  0.00    -0.279 N
ATOM      9  H3  UNL     1       6.445 -16.372 -14.618  1.00  0.00     0.187 HD
HETATM   10  C3  UNL     1       3.952 -14.560 -13.852  1.00  0.00     0.167 A
ATOM     11  H2  UNL     1       4.741 -16.293 -13.079  1.00  0.00     0.189 HD
HETATM   12  S2  UNL     1       4.537 -13.669 -15.188  1.00  0.00    -0.036 SA
BRANCH  10  13
HETATM   13  N1  UNL     1       2.921 -14.354 -13.060  1.00  0.00    -0.306 N
HETATM   14  C2  UNL     1       1.711 -15.000 -13.416  1.00  0.00     0.219 C
HETATM   15  C1  UNL     1       0.527 -14.160 -13.746  1.00  0.00     0.117 C
HETATM   16  O1  UNL     1       1.615 -16.254 -13.460  1.00  0.00    -0.274 OA
ATOM     17  H1  UNL     1       2.990 -13.760 -12.233  1.00  0.00     0.171 HD
ENDBRANCH  10  13
ENDBRANCH   5   6
ENDBRANCH   1   5
BRANCH   3  18
HETATM   18  C7  UNL     1       5.555 -12.959 -19.880  1.00  0.00     0.078 C
HETATM   19  C8  UNL     1       4.316 -12.276 -19.381  1.00  0.00     0.014 C
HETATM   20  C9  UNL     1       3.061 -13.069 -19.629  1.00  0.00     0.003 C
HETATM   21  C10 UNL     1       2.423 -12.560 -20.922  1.00  0.00     0.025 C
HETATM   22  C11 UNL     1       3.110 -13.317 -22.049  1.00  0.00     0.085 C
HETATM   23  C13 UNL     1       4.518 -12.735 -22.150  1.00  0.00     0.026 C
HETATM   24  C14 UNL     1       5.398 -13.551 -21.248  1.00  0.00     0.016 C
BRANCH  22  25
HETATM   25  N5  UNL     1       2.360 -13.136 -23.248  1.00  0.00    -0.347 N
HETATM   26  C12 UNL     1       2.385 -14.129 -24.293  1.00  0.00     0.291 C
HETATM   27  O3  UNL     1       3.057 -15.177 -24.191  1.00  0.00    -0.260 OA
HETATM   28  S1  UNL     1       1.445 -13.897 -25.793  1.00  0.00     0.013 SA
ATOM     29  H5  UNL     1       1.799 -12.294 -23.368  1.00  0.00     0.163 HD
ENDBRANCH  22  25
ENDBRANCH   3  18
TORSDOF 5
ENDMDL