MODEL 2
REMARK VINA RESULT: -6.253759411      6.592     10.813
REMARK  5 active torsions:
REMARK  status: ('A' for Active; 'I' for Inactive)
REMARK    1  A    between atoms: N1_2  and  C2_5
REMARK    2  A    between atoms: C6_9  and  C7_10
REMARK    3  A    between atoms: C7_10  and  N2_11
REMARK    4  A    between atoms: C11_17  and  N4_18
REMARK    5  A    between atoms: C16_28  and  N7_29
ROOT
HETATM    1  N2  UNL     1       6.877 -14.459 -15.310  1.00  0.00     0.093 N
HETATM    2  C8  UNL     1       7.760 -13.310 -15.447  1.00  0.00     0.279 C
HETATM    3  C9  UNL     1       7.717 -12.427 -14.221  1.00  0.00     0.088 C
HETATM    4  C10 UNL     1       8.304 -13.277 -13.127  1.00  0.00     0.040 A
HETATM    5  N3  UNL     1       8.991 -12.730 -12.109  1.00  0.00    -0.195 N
ATOM      6  H3  UNL     1       9.103 -11.717 -12.078  1.00  0.00     0.184 HD
HETATM    7  C11 UNL     1       9.536 -13.472 -11.133  1.00  0.00     0.682 A
HETATM    8  N6  UNL     1       9.388 -14.801 -11.172  1.00  0.00    -0.176 N
ATOM      9  H6  UNL     1       9.794 -15.380 -10.437  1.00  0.00     0.186 HD
HETATM   10  C16 UNL     1       8.693 -15.384 -12.196  1.00  0.00     0.124 A
HETATM   11  C17 UNL     1       8.136 -14.616 -13.197  1.00  0.00     0.037 A
HETATM   12  C18 UNL     1       7.401 -15.315 -14.258  1.00  0.00     0.317 C
ENDROOT
BRANCH   1  13
HETATM   13  C7  UNL     1       5.526 -14.029 -14.990  1.00  0.00     0.277 C
BRANCH  13  14
HETATM   14  C6  UNL     1       4.889 -14.836 -13.872  1.00  0.00     0.014 C
HETATM   15  C5  UNL     1       4.300 -13.830 -12.917  1.00  0.00     0.009 C
HETATM   16  C4  UNL     1       2.877 -13.550 -13.301  1.00  0.00     0.039 C
HETATM   17  C2  UNL     1       2.093 -14.801 -12.952  1.00  0.00     0.121 C
HETATM   18  C3  UNL     1       2.230 -15.158 -11.467  1.00  0.00     0.046 C
HETATM   19  C20 UNL     1       2.601 -15.940 -13.754  1.00  0.00     0.039 C
HETATM   20  C19 UNL     1       3.864 -15.759 -14.493  1.00  0.00     0.009 C
BRANCH  17  21
HETATM   21  N1  UNL     1       0.686 -14.516 -13.178  1.00  0.00    -0.070 N
HETATM   22  C1  UNL     1       0.578 -13.601 -14.299  1.00  0.00     0.267 C
ATOM     23  H12 UNL     1       0.217 -14.168 -12.342  1.00  0.00     0.277 HD
ATOM     24  H11 UNL     1       0.131 -15.362 -13.309  1.00  0.00     0.277 HD
ENDBRANCH  17  21
ENDBRANCH  13  14
ENDBRANCH   1  13
BRANCH  10  25
HETATM   25  N7  UNL     1       8.612 -16.659 -12.137  1.00  0.00    -0.385 N
ATOM     26  H72 UNL     1       8.652 -17.275 -12.948  1.00  0.00     0.157 HD
ATOM     27  H71 UNL     1       8.501 -17.040 -11.197  1.00  0.00     0.157 HD
ENDBRANCH  10  25
BRANCH   7  28
HETATM   28  N4  UNL     1      10.253 -12.797 -10.106  1.00  0.00    -0.214 N
HETATM   29  C12 UNL     1      10.225 -11.373  -9.893  1.00  0.00     0.168 C
HETATM   30  C13 UNL     1      10.063 -11.004  -8.452  1.00  0.00     0.252 C
HETATM   31  N5  UNL     1       9.945 -12.124  -7.575  1.00  0.00    -0.072 N
HETATM   32  C14 UNL     1      10.948 -13.133  -7.785  1.00  0.00     0.252 C
ATOM     33  H52 UNL     1       9.940 -11.819  -6.601  1.00  0.00     0.277 HD
ATOM     34  H51 UNL     1       9.010 -12.528  -7.632  1.00  0.00     0.277 HD
HETATM   35  C15 UNL     1      11.062 -13.599  -9.210  1.00  0.00     0.168 C
ENDBRANCH   7  28
TORSDOF 5
ENDMDL