MODEL 3
REMARK VINA RESULT: -6.057743825      3.605      6.342
REMARK  8 active torsions:
REMARK  status: ('A' for Active; 'I' for Inactive)
REMARK    1  A    between atoms: N1_2  and  C2_5
REMARK    2  A    between atoms: C2_5  and  C3_6
REMARK    3  A    between atoms: C4_11  and  C5_12
REMARK    4  A    between atoms: C5_12  and  N4_13
REMARK    5  A    between atoms: N4_13  and  C6_14
REMARK    6  A    between atoms: N4_13  and  C7_16
REMARK    7  A    between atoms: C10_19  and  C11_20
REMARK    8  A    between atoms: N6_22  and  O2_24
ROOT
HETATM    1  N4  UNL     1     -65.786 -21.365 -22.005  1.00  0.00    -0.318 N
ENDROOT
BRANCH   1   2
HETATM    2  C5  UNL     1     -65.661 -22.521 -22.825  1.00  0.00     0.217 C
BRANCH   2   3
HETATM    3  C4  UNL     1     -65.151 -23.718 -22.121  1.00  0.00     0.158 A
HETATM    4  N3  UNL     1     -63.842 -24.096 -21.997  1.00  0.00    -0.280 N
HETATM    5  N2  UNL     1     -63.814 -25.211 -21.298  1.00  0.00    -0.280 N
ATOM      6  H3  UNL     1     -63.034 -23.603 -22.376  1.00  0.00     0.189 HD
HETATM    7  C3  UNL     1     -65.079 -25.555 -20.973  1.00  0.00     0.166 A
ATOM      8  H2  UNL     1     -62.974 -25.732 -21.044  1.00  0.00     0.189 HD
HETATM    9  O3  UNL     1     -65.832 -24.625 -21.492  1.00  0.00    -0.279 OA
BRANCH   7  10
HETATM   10  C2  UNL     1     -65.510 -26.753 -20.183  1.00  0.00     0.317 C
BRANCH  10  11
HETATM   11  N1  UNL     1     -65.002 -26.625 -18.828  1.00  0.00    -0.072 N
HETATM   12  C1  UNL     1     -66.067 -26.856 -17.873  1.00  0.00     0.267 C
ATOM     13  H12 UNL     1     -64.541 -25.727 -18.676  1.00  0.00     0.277 HD
ATOM     14  H11 UNL     1     -64.201 -27.235 -18.661  1.00  0.00     0.277 HD
ENDBRANCH  10  11
ENDBRANCH   7  10
ENDBRANCH   2   3
ENDBRANCH   1   2
BRANCH   1  15
HETATM   15  C6  UNL     1     -67.089 -20.938 -21.584  1.00  0.00     0.356 C
HETATM   16  O1  UNL     1     -67.358 -19.707 -21.576  1.00  0.00    -0.283 OA
ENDBRANCH   1  15
BRANCH   1  17
HETATM   17  C7  UNL     1     -64.636 -20.632 -21.625  1.00  0.00     0.037 A
HETATM   18  C8  UNL     1     -64.042 -19.859 -22.602  1.00  0.00     0.030 A
HETATM   19  C9  UNL     1     -62.930 -19.123 -22.300  1.00  0.00     0.017 A
HETATM   20  C10 UNL     1     -62.362 -19.123 -21.021  1.00  0.00     0.007 A
HETATM   21  C12 UNL     1     -62.961 -19.892 -20.067  1.00  0.00     0.017 A
HETATM   22  C13 UNL     1     -64.089 -20.639 -20.369  1.00  0.00     0.030 A
BRANCH  20  23
HETATM   23  C11 UNL     1     -61.179 -18.316 -20.763  1.00  0.00     0.146 C
HETATM   24  N5  UNL     1     -60.024 -18.932 -20.229  1.00  0.00    -0.080 NA
HETATM   25  N6  UNL     1     -61.150 -17.056 -21.011  1.00  0.00    -0.255 N
ATOM     26  H6  UNL     1     -61.984 -16.617 -21.399  1.00  0.00     0.195 HD
BRANCH  25  27
HETATM   27  O2  UNL     1     -60.045 -16.274 -20.774  1.00  0.00    -0.288 OA
ATOM     28  H2  UNL     1     -59.957 -15.390 -21.110  1.00  0.00     0.244 HD
ENDBRANCH  25  27
ENDBRANCH  20  23
ENDBRANCH   1  17
TORSDOF 8
ENDMDL