MODEL 4
REMARK VINA RESULT: -5.414251333      1.377      1.581
REMARK  9 active torsions:
REMARK  status: ('A' for Active; 'I' for Inactive)
REMARK    1  A    between atoms: O1_2  and  C2_3
REMARK    2  A    between atoms: C2_3  and  O2_4
REMARK    3  A    between atoms: C2_3  and  C3_6
REMARK    4  A    between atoms: C3_6  and  C4_7
REMARK    5  A    between atoms: C4_7  and  N1_8
REMARK    6  A    between atoms: N1_8  and  S1_10
REMARK    7  A    between atoms: S1_10  and  C5_13
REMARK    8  A    between atoms: C8_16  and  N2_17
REMARK    9  A    between atoms: N2_17  and  N3_19
ROOT
HETATM    1  N3  UNL     1     -68.591 -17.440 -21.923  1.00  0.00    -0.236 N
ATOM      2  H3  UNL     1     -69.376 -17.332 -22.566  1.00  0.00     0.199 HD
HETATM    3  C9  UNL     1     -67.986 -16.328 -21.332  1.00  0.00     0.197 C
HETATM    4  N4  UNL     1     -67.491 -15.393 -20.855  1.00  0.00    -0.170 NA
ENDROOT
BRANCH   1   5
HETATM    5  N2  UNL     1     -68.091 -18.703 -21.608  1.00  0.00    -0.292 N
ATOM      6  H2  UNL     1     -68.668 -19.374 -21.101  1.00  0.00     0.187 HD
BRANCH   5   7
HETATM    7  C8  UNL     1     -66.769 -19.045 -22.001  1.00  0.00     0.048 A
HETATM    8  C7  UNL     1     -65.751 -19.257 -21.091  1.00  0.00     0.032 A
HETATM    9  C6  UNL     1     -64.467 -19.589 -21.474  1.00  0.00     0.027 A
HETATM   10  C5  UNL     1     -64.167 -19.719 -22.806  1.00  0.00     0.079 A
HETATM   11  C11 UNL     1     -65.143 -19.517 -23.748  1.00  0.00     0.027 A
HETATM   12  C10 UNL     1     -66.431 -19.184 -23.340  1.00  0.00     0.032 A
BRANCH  10  13
HETATM   13  S1  UNL     1     -62.563 -20.139 -23.334  1.00  0.00     0.258 S
HETATM   14  O3  UNL     1     -62.602 -21.018 -24.554  1.00  0.00    -0.201 OA
HETATM   15  O4  UNL     1     -61.853 -18.854 -23.687  1.00  0.00    -0.201 OA
BRANCH  13  16
HETATM   16  N1  UNL     1     -61.768 -20.935 -22.024  1.00  0.00    -0.315 N
ATOM     17  H1  UNL     1     -62.244 -21.547 -21.361  1.00  0.00     0.172 HD
BRANCH  16  18
HETATM   18  C4  UNL     1     -60.367 -20.643 -21.969  1.00  0.00     0.137 C
BRANCH  18  19
HETATM   19  C3  UNL     1     -59.991 -20.652 -20.481  1.00  0.00     0.081 C
BRANCH  19  20
HETATM   20  C2  UNL     1     -60.414 -19.323 -19.892  1.00  0.00     0.257 C
BRANCH  20  21
HETATM   21  O1  UNL     1     -60.370 -18.301 -20.808  1.00  0.00    -0.366 OA
HETATM   22  C1  UNL     1     -61.116 -17.194 -20.484  1.00  0.00     0.204 C
ENDBRANCH  20  21
BRANCH  20  23
HETATM   23  O2  UNL     1     -61.699 -19.512 -19.355  1.00  0.00    -0.371 OA
ATOM     24  H2  UNL     1     -61.777 -20.328 -18.875  1.00  0.00     0.212 HD
ENDBRANCH  20  23
ENDBRANCH  19  20
ENDBRANCH  18  19
ENDBRANCH  16  18
ENDBRANCH  13  16
ENDBRANCH  10  13
ENDBRANCH   5   7
ENDBRANCH   1   5
TORSDOF 9
ENDMDL