MODEL 4
REMARK VINA RESULT: -5.698120481      2.342      3.229
REMARK  11 active torsions:
REMARK  status: ('A' for Active; 'I' for Inactive)
REMARK    1  A    between atoms: C4_4  and  C5_5
REMARK    2  A    between atoms: C5_5  and  N1_6
REMARK    3  A    between atoms: N1_6  and  N2_8
REMARK    4  A    between atoms: N2_8  and  N3_9
REMARK    5  A    between atoms: C7_15  and  C8_16
REMARK       I    between atoms: C8_16  and  N5_18
REMARK    6  A    between atoms: N5_18  and  C9_20
REMARK    7  A    between atoms: C9_20  and  C10_21
REMARK    8  A    between atoms: C9_20  and  C11_23
REMARK    9  A    between atoms: C11_23  and  O3_24
REMARK   10  A    between atoms: C11_23  and  N6_26
REMARK   11  A    between atoms: N6_26  and  N7_27
ROOT
HETATM    1  C1  UNL     1     -66.018 -18.471 -21.964  1.00  0.00     0.050 C
HETATM    2  C2  UNL     1     -66.053 -19.939 -21.915  1.00  0.00    -0.029 A
HETATM    3  C3  UNL     1     -67.297 -20.590 -21.946  1.00  0.00     0.019 A
HETATM    4  C4  UNL     1     -67.364 -21.962 -21.941  1.00  0.00    -0.022 A
HETATM    5  C6  UNL     1     -66.205 -22.655 -21.905  1.00  0.00     0.097 A
HETATM    6  N4  UNL     1     -65.061 -22.025 -21.875  1.00  0.00    -0.360 N
ATOM      7  H4  UNL     1     -64.219 -22.600 -21.849  1.00  0.00     0.165 HD
HETATM    8  C7  UNL     1     -64.883 -20.654 -21.876  1.00  0.00     0.106 A
ENDROOT
BRANCH   8   9
HETATM    9  C8  UNL     1     -63.547 -20.127 -21.786  1.00  0.00     0.269 C
HETATM   10  O1  UNL     1     -62.819 -20.356 -22.836  1.00  0.00    -0.266 OA
HETATM   11  N5  UNL     1     -62.872 -19.425 -20.800  1.00  0.00    -0.341 N
ATOM     12  H5  UNL     1     -63.361 -19.207 -19.932  1.00  0.00     0.163 HD
BRANCH  11  13
HETATM   13  C9  UNL     1     -61.482 -18.984 -20.954  1.00  0.00     0.192 C
BRANCH  13  14
HETATM   14  C10 UNL     1     -61.304 -17.581 -20.522  1.00  0.00     0.260 C
HETATM   15  O2  UNL     1     -60.488 -16.812 -20.999  1.00  0.00    -0.304 OA
ENDBRANCH  13  14
BRANCH  13  16
HETATM   16  C11 UNL     1     -60.523 -19.840 -20.197  1.00  0.00     0.260 C
BRANCH  16  17
HETATM   17  O3  UNL     1     -59.603 -19.091 -19.452  1.00  0.00    -0.376 OA
ATOM     18  H3  UNL     1     -59.049 -19.633 -18.902  1.00  0.00     0.211 HD
ENDBRANCH  16  17
BRANCH  16  19
HETATM   19  N6  UNL     1     -59.730 -20.573 -21.169  1.00  0.00    -0.114 NA
BRANCH  19  20
HETATM   20  N7  UNL     1     -60.310 -21.756 -21.572  1.00  0.00    -0.346 N
ATOM     21  H72 UNL     1     -61.313 -21.846 -21.729  1.00  0.00     0.172 HD
ATOM     22  H71 UNL     1     -59.641 -22.517 -21.694  1.00  0.00     0.172 HD
ENDBRANCH  19  20
ENDBRANCH  16  19
ENDBRANCH  13  16
ENDBRANCH  11  13
ENDBRANCH   8   9
BRANCH   4  23
HETATM   23  C5  UNL     1     -68.672 -22.642 -21.974  1.00  0.00     0.195 C
BRANCH  23  24
HETATM   24  N1  UNL     1     -69.515 -22.202 -20.865  1.00  0.00    -0.248 N
ATOM     25  H1  UNL     1     -70.129 -21.391 -20.937  1.00  0.00     0.197 HD
BRANCH  24  26
HETATM   26  N2  UNL     1     -69.433 -22.883 -19.826  1.00  0.00    -0.248 NA
BRANCH  26  27
HETATM   27  N3  UNL     1     -69.472 -23.202 -18.619  1.00  0.00    -0.261 N
ATOM     28  H32 UNL     1     -69.072 -22.334 -18.261  1.00  0.00     0.193 HD
ATOM     29  H31 UNL     1     -69.636 -23.745 -17.771  1.00  0.00     0.193 HD
ENDBRANCH  26  27
ENDBRANCH  24  26
ENDBRANCH  23  24
ENDBRANCH   4  23
TORSDOF 11
ENDMDL