MODEL 3
REMARK VINA RESULT: -5.696805760      2.153      3.067
REMARK  9 active torsions:
REMARK  status: ('A' for Active; 'I' for Inactive)
REMARK    1  A    between atoms: N1_2  and  C2_4
REMARK    2  A    between atoms: C2_4  and  C3_5
REMARK    3  A    between atoms: C2_4  and  C12_22
REMARK    4  A    between atoms: C3_5  and  C4_6
REMARK    5  A    between atoms: C4_6  and  C5_7
REMARK       I    between atoms: C5_7  and  N2_9
REMARK    6  A    between atoms: N2_9  and  N3_11
REMARK    7  A    between atoms: C6_13  and  C7_14
REMARK    8  A    between atoms: C8_15  and  N4_16
REMARK    9  A    between atoms: N7_24  and  O2_26
ROOT
HETATM    1  C5  UNL     1     -64.228 -20.347 -21.587  1.00  0.00     0.236 C
HETATM    2  O1  UNL     1     -63.633 -20.861 -22.529  1.00  0.00    -0.272 OA
HETATM    3  N2  UNL     1     -65.326 -19.497 -21.749  1.00  0.00    -0.270 N
ATOM      4  H2  UNL     1     -65.801 -19.089 -20.943  1.00  0.00     0.190 HD
ENDROOT
BRANCH   1   5
HETATM    5  C4  UNL     1     -63.756 -20.643 -20.178  1.00  0.00     0.107 C
BRANCH   5   6
HETATM    6  C3  UNL     1     -62.902 -19.554 -19.667  1.00  0.00     0.041 C
BRANCH   6   7
HETATM    7  C2  UNL     1     -61.472 -19.624 -20.067  1.00  0.00     0.143 C
BRANCH   7   8
HETATM    8  N1  UNL     1     -61.003 -20.828 -20.596  1.00  0.00    -0.415 N
HETATM    9  C1  UNL     1     -59.641 -21.087 -20.800  1.00  0.00     0.140 C
ATOM     10  H1  UNL     1     -61.680 -21.550 -20.843  1.00  0.00     0.153 HD
ENDBRANCH   7   8
BRANCH   7  11
HETATM   11  C12 UNL     1     -61.038 -18.412 -20.816  1.00  0.00     0.135 C
HETATM   12  N6  UNL     1     -61.328 -18.272 -22.184  1.00  0.00    -0.084 NA
HETATM   13  N7  UNL     1     -60.395 -17.502 -20.216  1.00  0.00    -0.257 N
ATOM     14  H7  UNL     1     -60.198 -17.642 -19.226  1.00  0.00     0.195 HD
BRANCH  13  15
HETATM   15  O2  UNL     1     -59.947 -16.357 -20.785  1.00  0.00    -0.289 OA
ATOM     16  H2  UNL     1     -59.033 -16.126 -20.905  1.00  0.00     0.244 HD
ENDBRANCH  13  15
ENDBRANCH   7  11
ENDBRANCH   6   7
ENDBRANCH   5   6
ENDBRANCH   1   5
BRANCH   3  17
HETATM   17  N3  UNL     1     -65.752 -19.226 -23.049  1.00  0.00    -0.309 N
HETATM   18  C6  UNL     1     -66.713 -18.403 -23.243  1.00  0.00     0.108 C
ATOM     19  H3  UNL     1     -65.299 -19.681 -23.842  1.00  0.00     0.186 HD
BRANCH  18  20
HETATM   20  C7  UNL     1     -67.343 -17.764 -22.106  1.00  0.00     0.038 C
HETATM   21  C8  UNL     1     -68.647 -17.730 -22.030  1.00  0.00     0.117 C
BRANCH  21  22
HETATM   22  N4  UNL     1     -69.272 -17.103 -20.917  1.00  0.00    -0.279 N
HETATM   23  C9  UNL     1     -68.749 -16.174 -20.141  1.00  0.00     0.117 A
HETATM   24  C10 UNL     1     -69.678 -15.840 -19.182  1.00  0.00     0.038 A
HETATM   25  C11 UNL     1     -70.766 -16.626 -19.445  1.00  0.00     0.109 A
HETATM   26  N5  UNL     1     -70.501 -17.378 -20.493  1.00  0.00    -0.306 N
ATOM     27  H5  UNL     1     -71.135 -18.060 -20.910  1.00  0.00     0.186 HD
ENDBRANCH  21  22
ENDBRANCH  18  20
ENDBRANCH   3  17
TORSDOF 9
ENDMDL