MODEL 5
REMARK VINA RESULT: -5.482455231      4.320      7.277
REMARK  7 active torsions:
REMARK  status: ('A' for Active; 'I' for Inactive)
REMARK    1  A    between atoms: C2_3  and  C3_4
REMARK    2  A    between atoms: C3_4  and  N2_5
REMARK    3  A    between atoms: N5_14  and  C8_15
REMARK    4  A    between atoms: C8_15  and  C9_16
REMARK       I    between atoms: C9_16  and  N6_18
REMARK    5  A    between atoms: N6_18  and  C10_20
REMARK    6  A    between atoms: C10_20  and  C11_21
REMARK    7  A    between atoms: C11_21  and  N7_22
REMARK       I    between atoms: N7_22  and  C12_24
ROOT
HETATM    1  N1  UNL     1     -61.101 -16.461 -20.941  1.00  0.00    -0.197 NA
HETATM    2  C1  UNL     1     -61.137 -17.401 -20.271  1.00  0.00     0.060 C
HETATM    3  C2  UNL     1     -61.186 -18.610 -19.439  1.00  0.00     0.144 C
ENDROOT
BRANCH   3   4
HETATM    4  C3  UNL     1     -60.442 -19.734 -20.142  1.00  0.00     0.145 C
BRANCH   4   5
HETATM    5  N2  UNL     1     -61.299 -20.411 -21.101  1.00  0.00    -0.325 N
HETATM    6  C4  UNL     1     -60.939 -21.049 -22.234  1.00  0.00     0.186 A
HETATM    7  N3  UNL     1     -62.026 -21.548 -22.847  1.00  0.00    -0.335 N
HETATM    8  C5  UNL     1     -63.123 -21.241 -22.117  1.00  0.00     0.155 A
ATOM      9  H3  UNL     1     -62.025 -22.073 -23.721  1.00  0.00     0.168 HD
HETATM   10  C6  UNL     1     -62.652 -20.532 -21.033  1.00  0.00     0.154 A
HETATM   11  N5  UNL     1     -64.476 -21.360 -22.045  1.00  0.00    -0.317 N
HETATM   12  N4  UNL     1     -63.751 -20.227 -20.309  1.00  0.00    -0.335 N
HETATM   13  C7  UNL     1     -64.853 -20.718 -20.906  1.00  0.00     0.186 A
ATOM     14  H4  UNL     1     -63.747 -19.701 -19.435  1.00  0.00     0.168 HD
BRANCH  11  15
HETATM   15  C8  UNL     1     -65.337 -22.032 -22.993  1.00  0.00     0.234 C
BRANCH  15  16
HETATM   16  C9  UNL     1     -66.228 -22.985 -22.291  1.00  0.00     0.235 C
HETATM   17  O1  UNL     1     -67.445 -22.759 -22.170  1.00  0.00    -0.272 OA
HETATM   18  N6  UNL     1     -65.680 -24.165 -21.753  1.00  0.00    -0.358 N
ATOM     19  H6  UNL     1     -64.684 -24.362 -21.847  1.00  0.00     0.162 HD
BRANCH  18  20
HETATM   20  C10 UNL     1     -66.551 -25.097 -21.065  1.00  0.00     0.142 C
BRANCH  20  21
HETATM   21  C11 UNL     1     -65.731 -26.051 -20.247  1.00  0.00     0.142 C
BRANCH  21  22
HETATM   22  N7  UNL     1     -66.424 -26.360 -19.019  1.00  0.00    -0.363 N
HETATM   23  C12 UNL     1     -65.753 -26.730 -17.832  1.00  0.00     0.181 C
HETATM   24  N8  UNL     1     -64.477 -26.912 -17.806  1.00  0.00    -0.374 N
HETATM   25  N9  UNL     1     -66.488 -26.910 -16.639  1.00  0.00    -0.064 NA
ATOM     26  H82 UNL     1     -63.946 -26.781 -18.668  1.00  0.00     0.158 HD
ATOM     27  H81 UNL     1     -63.993 -27.179 -16.950  1.00  0.00     0.158 HD
ATOM     28  H7  UNL     1     -67.443 -26.308 -19.008  1.00  0.00     0.162 HD
ENDBRANCH  21  22
ENDBRANCH  20  21
ENDBRANCH  18  20
ENDBRANCH  15  16
ENDBRANCH  11  15
ENDBRANCH   4   5
ENDBRANCH   3   4
TORSDOF 7
ENDMDL