MODEL 3
REMARK VINA RESULT: -5.119059844      2.326      3.975
REMARK  9 active torsions:
REMARK  status: ('A' for Active; 'I' for Inactive)
REMARK       I    between atoms: N1_2  and  C2_4
REMARK    1  A    between atoms: C2_4  and  O2_6
REMARK    2  A    between atoms: O2_6  and  C3_7
REMARK    3  A    between atoms: C5_14  and  C6_15
REMARK    4  A    between atoms: C6_15  and  C7_16
REMARK    5  A    between atoms: C7_16  and  C8_17
REMARK    6  A    between atoms: C7_16  and  N5_23
REMARK    7  A    between atoms: C8_17  and  C9_18
REMARK    8  A    between atoms: N4_19  and  O4_21
REMARK    9  A    between atoms: N5_23  and  O5_24
ROOT
HETATM    1  C3  UNL     1     -61.036 -19.127 -19.829  1.00  0.00     0.179 A
HETATM    2  N2  UNL     1     -60.480 -17.919 -19.991  1.00  0.00    -0.287 N
ATOM      3  H2  UNL     1     -59.524 -17.663 -19.742  1.00  0.00     0.172 HD
HETATM    4  C4  UNL     1     -61.395 -17.104 -20.535  1.00  0.00     0.326 A
HETATM    5  O3  UNL     1     -61.229 -15.886 -20.830  1.00  0.00    -0.247 OA
HETATM    6  N3  UNL     1     -62.546 -17.752 -20.736  1.00  0.00    -0.308 N
ATOM      7  H3  UNL     1     -63.405 -17.373 -21.134  1.00  0.00     0.170 HD
HETATM    8  C5  UNL     1     -62.331 -19.027 -20.296  1.00  0.00     0.067 A
ENDROOT
BRANCH   8   9
HETATM    9  C6  UNL     1     -63.291 -20.121 -20.369  1.00  0.00     0.085 C
BRANCH   9  10
HETATM   10  C7  UNL     1     -63.620 -20.739 -21.652  1.00  0.00     0.117 C
BRANCH  10  11
HETATM   11  C8  UNL     1     -62.588 -21.077 -22.646  1.00  0.00     0.070 C
BRANCH  11  12
HETATM   12  C9  UNL     1     -62.544 -22.487 -23.091  1.00  0.00     0.088 C
HETATM   13  N4  UNL     1     -61.829 -23.294 -22.412  1.00  0.00    -0.282 N
ATOM     14  H4  UNL     1     -61.348 -22.883 -21.613  1.00  0.00     0.193 HD
BRANCH  13  15
HETATM   15  O4  UNL     1     -61.617 -24.604 -22.596  1.00  0.00    -0.286 OA
HETATM   16  C10 UNL     1     -62.557 -25.649 -22.489  1.00  0.00     0.237 C
ENDBRANCH  13  15
ENDBRANCH  11  12
ENDBRANCH  10  11
BRANCH  10  17
HETATM   17  N5  UNL     1     -64.340 -22.010 -21.371  1.00  0.00    -0.096 NA
BRANCH  17  18
HETATM   18  O5  UNL     1     -65.547 -21.769 -20.849  1.00  0.00    -0.291 OA
HETATM   19  C11 UNL     1     -66.435 -21.522 -21.911  1.00  0.00     0.231 C
ENDBRANCH  17  18
ENDBRANCH  10  17
ENDBRANCH   9  10
ENDBRANCH   8   9
BRANCH   1  20
HETATM   20  O2  UNL     1     -60.377 -20.249 -19.275  1.00  0.00    -0.242 OA
BRANCH  20  21
HETATM   21  C2  UNL     1     -59.604 -21.081 -20.061  1.00  0.00     0.366 C
HETATM   22  N1  UNL     1     -59.226 -20.811 -21.403  1.00  0.00    -0.341 N
HETATM   23  C1  UNL     1     -58.404 -21.755 -22.155  1.00  0.00     0.151 C
ATOM     24  H1  UNL     1     -59.533 -19.946 -21.849  1.00  0.00     0.164 HD
HETATM   25  O1  UNL     1     -59.209 -22.170 -19.526  1.00  0.00    -0.238 OA
ENDBRANCH  20  21
ENDBRANCH   1  20
TORSDOF 9
ENDMDL