MODEL 3
REMARK VINA RESULT: -5.958980287      1.825      2.105
REMARK  8 active torsions:
REMARK  status: ('A' for Active; 'I' for Inactive)
REMARK       I    between atoms: N1_2  and  C2_4
REMARK    1  A    between atoms: C2_4  and  C3_6
REMARK    2  A    between atoms: C3_6  and  N2_7
REMARK    3  A    between atoms: C3_6  and  C13_23
REMARK    4  A    between atoms: N2_7  and  C4_10
REMARK    5  A    between atoms: C4_10  and  C5_11
REMARK    6  A    between atoms: C5_11  and  N3_12
REMARK    7  A    between atoms: N3_12  and  C6_14
REMARK    8  A    between atoms: C10_19  and  O2_20
ROOT
HETATM    1  C4  UNL     1     -63.579 -20.997 -21.549  1.00  0.00     0.253 C
ENDROOT
BRANCH   1   2
HETATM    2  N2  UNL     1     -62.432 -20.944 -20.715  1.00  0.00    -0.054 N
ATOM      3  H22 UNL     1     -62.190 -21.879 -20.384  1.00  0.00     0.278 HD
ATOM      4  H21 UNL     1     -62.660 -20.497 -19.827  1.00  0.00     0.278 HD
BRANCH   2   5
HETATM    5  C3  UNL     1     -61.293 -20.316 -21.312  1.00  0.00     0.345 C
BRANCH   5   6
HETATM    6  C2  UNL     1     -61.358 -18.836 -21.354  1.00  0.00     0.255 C
HETATM    7  N1  UNL     1     -61.379 -18.006 -20.218  1.00  0.00    -0.363 N
HETATM    8  C1  UNL     1     -61.449 -16.564 -20.386  1.00  0.00     0.149 C
ATOM      9  H1  UNL     1     -61.345 -18.414 -19.283  1.00  0.00     0.161 HD
HETATM   10  O1  UNL     1     -61.395 -18.247 -22.495  1.00  0.00    -0.271 OA
ENDBRANCH   5   6
BRANCH   5  11
HETATM   11  C13 UNL     1     -60.100 -20.792 -20.562  1.00  0.00     0.163 C
HETATM   12  C14 UNL     1     -58.949 -21.354 -21.279  1.00  0.00     0.093 C
HETATM   13  O3  UNL     1     -60.080 -20.713 -19.338  1.00  0.00    -0.296 OA
ENDBRANCH   5  11
ENDBRANCH   2   5
ENDBRANCH   1   2
BRANCH   1  14
HETATM   14  C5  UNL     1     -64.727 -20.198 -20.910  1.00  0.00     0.147 C
BRANCH  14  15
HETATM   15  N3  UNL     1     -65.092 -19.160 -21.833  1.00  0.00    -0.388 N
ATOM     16  H3  UNL     1     -64.418 -18.865 -22.540  1.00  0.00     0.159 HD
BRANCH  15  17
HETATM   17  C6  UNL     1     -66.385 -18.526 -21.787  1.00  0.00     0.032 A
HETATM   18  C7  UNL     1     -67.523 -19.269 -21.980  1.00  0.00     0.055 A
HETATM   19  C8  UNL     1     -68.782 -18.655 -21.934  1.00  0.00     0.051 A
HETATM   20  N4  UNL     1     -69.980 -19.377 -22.124  1.00  0.00    -0.102 NA
HETATM   21  C9  UNL     1     -68.908 -17.287 -21.694  1.00  0.00     0.063 A
HETATM   22  C10 UNL     1     -67.758 -16.553 -21.503  1.00  0.00     0.072 A
HETATM   23  C12 UNL     1     -66.515 -17.179 -21.551  1.00  0.00     0.066 A
BRANCH  22  24
HETATM   24  O2  UNL     1     -67.898 -15.199 -21.265  1.00  0.00    -0.356 OA
HETATM   25  C11 UNL     1     -68.971 -14.414 -21.721  1.00  0.00     0.210 C
ENDBRANCH  22  24
ENDBRANCH  15  17
ENDBRANCH  14  15
ENDBRANCH   1  14
TORSDOF 8
ENDMDL