MODEL 3
REMARK VINA RESULT: -5.470589236      2.500      4.253
REMARK  9 active torsions:
REMARK  status: ('A' for Active; 'I' for Inactive)
REMARK    1  A    between atoms: C1_2  and  C2_3
REMARK    2  A    between atoms: C2_3  and  C3_4
REMARK    3  A    between atoms: C2_3  and  C8_14
REMARK    4  A    between atoms: C3_4  and  O2_5
REMARK    5  A    between atoms: O2_5  and  C4_6
REMARK    6  A    between atoms: C4_6  and  C5_7
REMARK    7  A    between atoms: C8_14  and  O3_15
REMARK    8  A    between atoms: C8_14  and  N3_17
REMARK    9  A    between atoms: N3_17  and  C9_19
ROOT
HETATM    1  C8  UNL     1     -61.893 -21.648 -22.389  1.00  0.00     0.232 C
ENDROOT
BRANCH   1   2
HETATM    2  C2  UNL     1     -63.039 -22.659 -22.544  1.00  0.00     0.119 C
BRANCH   2   3
HETATM    3  C1  UNL     1     -62.963 -23.142 -23.934  1.00  0.00     0.242 C
HETATM    4  O1  UNL     1     -63.875 -22.856 -24.723  1.00  0.00    -0.306 OA
ENDBRANCH   2   3
BRANCH   2   5
HETATM    5  C3  UNL     1     -64.360 -22.031 -22.258  1.00  0.00     0.184 C
BRANCH   5   6
HETATM    6  O2  UNL     1     -64.456 -20.740 -22.553  1.00  0.00    -0.384 OA
BRANCH   6   7
HETATM    7  C4  UNL     1     -65.554 -20.086 -22.935  1.00  0.00     0.226 C
BRANCH   7   8
HETATM    8  C5  UNL     1     -65.389 -19.784 -24.420  1.00  0.00     0.049 A
HETATM    9  C6  UNL     1     -66.324 -19.356 -25.317  1.00  0.00     0.116 A
HETATM   10  N1  UNL     1     -65.776 -19.207 -26.537  1.00  0.00    -0.360 N
HETATM   11  C7  UNL     1     -64.491 -19.548 -26.385  1.00  0.00     0.180 A
ATOM     12  H1  UNL     1     -66.241 -18.901 -27.392  1.00  0.00     0.166 HD
HETATM   13  N2  UNL     1     -64.245 -19.900 -25.108  1.00  0.00    -0.353 N
ATOM     14  H2  UNL     1     -63.346 -20.202 -24.730  1.00  0.00     0.166 HD
ENDBRANCH   7   8
ENDBRANCH   6   7
ENDBRANCH   5   6
ENDBRANCH   2   5
ENDBRANCH   1   2
BRANCH   1  15
HETATM   15  O3  UNL     1     -61.896 -20.723 -23.419  1.00  0.00    -0.376 OA
ATOM     16  H3  UNL     1     -61.024 -20.599 -23.775  1.00  0.00     0.212 HD
ENDBRANCH   1  15
BRANCH   1  17
HETATM   17  N3  UNL     1     -62.076 -20.986 -21.107  1.00  0.00    -0.345 N
ATOM     18  H3  UNL     1     -62.513 -21.506 -20.345  1.00  0.00     0.163 HD
BRANCH  17  19
HETATM   19  C9  UNL     1     -61.673 -19.651 -20.877  1.00  0.00     0.172 A
HETATM   20  N4  UNL     1     -62.284 -18.666 -21.546  1.00  0.00    -0.347 N
HETATM   21  C10 UNL     1     -61.931 -17.364 -21.359  1.00  0.00     0.107 A
ATOM     22  H4  UNL     1     -63.027 -18.894 -22.207  1.00  0.00     0.167 HD
HETATM   23  C11 UNL     1     -60.929 -17.053 -20.467  1.00  0.00     0.108 A
HETATM   24  N5  UNL     1     -60.307 -18.023 -19.791  1.00  0.00    -0.329 N
HETATM   25  C12 UNL     1     -60.676 -19.322 -19.992  1.00  0.00     0.289 A
ATOM     26  H5  UNL     1     -59.564 -17.795 -19.131  1.00  0.00     0.168 HD
HETATM   27  O4  UNL     1     -60.106 -20.232 -19.370  1.00  0.00    -0.264 OA
ENDBRANCH  17  19
ENDBRANCH   1  17
TORSDOF 9
ENDMDL