MODEL 1
REMARK VINA RESULT: -5.963263348      0.000      0.000
REMARK  10 active torsions:
REMARK  status: ('A' for Active; 'I' for Inactive)
REMARK    1  A    between atoms: N1_1  and  C1_5
REMARK    2  A    between atoms: C1_5  and  N2_6
REMARK    3  A    between atoms: C1_5  and  C2_10
REMARK    4  A    between atoms: C2_10  and  C3_11
REMARK    5  A    between atoms: C3_11  and  N3_12
REMARK       I    between atoms: N3_12  and  C4_14
REMARK    6  A    between atoms: C4_14  and  C5_16
REMARK    7  A    between atoms: C5_16  and  N4_17
REMARK    8  A    between atoms: C5_16  and  C6_21
REMARK    9  A    between atoms: N6_25  and  C8_26
REMARK   10  A    between atoms: C8_26  and  C9_27
ROOT
HETATM    1  C5  UNL     1     -62.250 -21.824 -22.970  1.00  0.00     0.342 C
ENDROOT
BRANCH   1   2
HETATM    2  C4  UNL     1     -61.360 -20.868 -22.276  1.00  0.00     0.256 C
HETATM    3  N3  UNL     1     -61.297 -20.842 -20.866  1.00  0.00    -0.359 N
ATOM      4  H3  UNL     1     -61.879 -21.495 -20.342  1.00  0.00     0.162 HD
HETATM    5  O1  UNL     1     -60.668 -20.085 -22.952  1.00  0.00    -0.271 OA
BRANCH   3   6
HETATM    6  C3  UNL     1     -60.449 -19.938 -20.132  1.00  0.00     0.126 C
BRANCH   6   7
HETATM    7  C2  UNL     1     -61.223 -18.744 -19.621  1.00  0.00     0.081 C
BRANCH   7   8
HETATM    8  C1  UNL     1     -60.879 -17.552 -20.507  1.00  0.00     0.379 C
BRANCH   8   9
HETATM    9  N1  UNL     1     -60.892 -16.343 -19.704  1.00  0.00    -0.050 N
ATOM     10  H13 UNL     1     -61.764 -15.831 -19.837  1.00  0.00     0.276 HD
ATOM     11  H12 UNL     1     -60.977 -16.569 -18.713  1.00  0.00     0.276 HD
ATOM     12  H11 UNL     1     -60.088 -15.738 -19.871  1.00  0.00     0.276 HD
ENDBRANCH   8   9
BRANCH   8  13
HETATM   13  N2  UNL     1     -61.748 -17.489 -21.643  1.00  0.00    -0.050 N
ATOM     14  H23 UNL     1     -62.383 -16.694 -21.570  1.00  0.00     0.276 HD
ATOM     15  H22 UNL     1     -61.231 -17.218 -22.480  1.00  0.00     0.276 HD
ATOM     16  H21 UNL     1     -62.268 -18.352 -21.803  1.00  0.00     0.276 HD
ENDBRANCH   8  13
ENDBRANCH   7   8
ENDBRANCH   6   7
ENDBRANCH   3   6
ENDBRANCH   1   2
BRANCH   1  17
HETATM   17  N4  UNL     1     -62.703 -22.832 -22.035  1.00  0.00    -0.059 N
ATOM     18  H43 UNL     1     -63.423 -22.477 -21.407  1.00  0.00     0.275 HD
ATOM     19  H42 UNL     1     -63.251 -23.561 -22.490  1.00  0.00     0.275 HD
ATOM     20  H41 UNL     1     -61.903 -23.211 -21.528  1.00  0.00     0.275 HD
ENDBRANCH   1  17
BRANCH   1  21
HETATM   21  C6  UNL     1     -63.424 -21.081 -23.548  1.00  0.00     0.137 A
HETATM   22  N5  UNL     1     -63.411 -20.221 -24.584  1.00  0.00    -0.338 N
HETATM   23  C7  UNL     1     -64.664 -19.773 -24.787  1.00  0.00     0.202 A
ATOM     24  H5  UNL     1     -62.589 -19.953 -25.124  1.00  0.00     0.168 HD
HETATM   25  N6  UNL     1     -65.468 -20.350 -23.880  1.00  0.00    -0.282 N
HETATM   26  N7  UNL     1     -64.703 -21.135 -23.142  1.00  0.00    -0.283 N
ATOM     27  H7  UNL     1     -65.039 -21.707 -22.367  1.00  0.00     0.188 HD
BRANCH  25  28
HETATM   28  C8  UNL     1     -66.917 -20.150 -23.733  1.00  0.00     0.188 C
BRANCH  28  29
HETATM   29  C9  UNL     1     -67.197 -18.871 -23.037  1.00  0.00    -0.038 A
HETATM   30  C10 UNL     1     -67.770 -17.808 -23.703  1.00  0.00     0.009 A
HETATM   31  C11 UNL     1     -68.022 -16.614 -23.022  1.00  0.00     0.001 A
HETATM   32  C12 UNL     1     -67.702 -16.496 -21.692  1.00  0.00     0.000 A
HETATM   33  C13 UNL     1     -67.126 -17.550 -21.000  1.00  0.00     0.001 A
HETATM   34  C14 UNL     1     -66.885 -18.730 -21.704  1.00  0.00     0.009 A
ENDBRANCH  28  29
ENDBRANCH  25  28
ENDBRANCH   1  21
TORSDOF 10
ENDMDL