MODEL 2
REMARK VINA RESULT: -5.232609158      1.135      1.322
REMARK  8 active torsions:
REMARK  status: ('A' for Active; 'I' for Inactive)
REMARK    1  A    between atoms: C2_2  and  C3_3
REMARK    2  A    between atoms: C3_3  and  O1_4
REMARK    3  A    between atoms: O1_4  and  C4_5
REMARK    4  A    between atoms: N2_10  and  C7_12
REMARK    5  A    between atoms: C7_12  and  C8_13
REMARK    6  A    between atoms: C8_13  and  N3_14
REMARK    7  A    between atoms: N6_23  and  C11_24
REMARK    8  A    between atoms: C11_24  and  C12_25
ROOT
HETATM    1  C4  UNL     1     -62.576 -20.247 -20.895  1.00  0.00     0.228 A
HETATM    2  N1  UNL     1     -63.695 -19.589 -21.247  1.00  0.00    -0.316 N
ATOM      3  H1  UNL     1     -64.174 -18.878 -20.693  1.00  0.00     0.169 HD
HETATM    4  C5  UNL     1     -64.072 -20.037 -22.461  1.00  0.00     0.124 A
HETATM    5  C6  UNL     1     -65.164 -19.653 -23.251  1.00  0.00     0.137 A
HETATM    6  N2  UNL     1     -65.959 -18.771 -22.804  1.00  0.00    -0.349 N
ATOM      7  H2  UNL     1     -65.708 -18.420 -21.880  1.00  0.00     0.167 HD
HETATM    8  N4  UNL     1     -65.320 -20.245 -24.446  1.00  0.00    -0.337 N
ATOM      9  H4  UNL     1     -66.099 -19.995 -25.055  1.00  0.00     0.168 HD
HETATM   10  C9  UNL     1     -64.424 -21.175 -24.820  1.00  0.00     0.183 A
HETATM   11  N5  UNL     1     -63.369 -21.560 -24.080  1.00  0.00    -0.336 N
ATOM     12  H5  UNL     1     -62.726 -22.274 -24.425  1.00  0.00     0.168 HD
HETATM   13  C10 UNL     1     -63.173 -20.985 -22.866  1.00  0.00     0.143 A
HETATM   14  N6  UNL     1     -62.258 -21.102 -21.886  1.00  0.00    -0.287 N
ENDROOT
BRANCH   6  15
HETATM   15  C7  UNL     1     -67.116 -18.187 -23.337  1.00  0.00     0.106 C
BRANCH  15  16
HETATM   16  C8  UNL     1     -67.611 -16.977 -22.656  1.00  0.00     0.097 C
BRANCH  16  17
HETATM   17  N3  UNL     1     -67.177 -16.660 -21.508  1.00  0.00    -0.407 N
ATOM     18  H32 UNL     1     -67.345 -15.714 -21.166  1.00  0.00     0.155 HD
ATOM     19  H31 UNL     1     -66.672 -17.338 -20.938  1.00  0.00     0.155 HD
ENDBRANCH  16  17
ENDBRANCH  15  16
ENDBRANCH   6  15
BRANCH   1  20
HETATM   20  O1  UNL     1     -61.893 -20.054 -19.707  1.00  0.00    -0.318 OA
BRANCH  20  21
HETATM   21  C3  UNL     1     -61.545 -18.725 -19.307  1.00  0.00     0.205 C
BRANCH  21  22
HETATM   22  C2  UNL     1     -60.817 -17.995 -20.385  1.00  0.00    -0.011 C
HETATM   23  C1  UNL     1     -61.217 -16.788 -20.715  1.00  0.00     0.009 C
ENDBRANCH  21  22
ENDBRANCH  20  21
ENDBRANCH   1  20
BRANCH  14  24
HETATM   24  C11 UNL     1     -61.136 -22.003 -21.949  1.00  0.00     0.247 C
BRANCH  24  25
HETATM   25  C12 UNL     1     -59.846 -21.289 -21.784  1.00  0.00     0.192 C
HETATM   26  O2  UNL     1     -59.409 -20.564 -22.727  1.00  0.00    -0.647 OA
HETATM   27  O3  UNL     1     -59.132 -21.428 -20.577  1.00  0.00    -0.647 OA
ENDBRANCH  24  25
ENDBRANCH  14  24
TORSDOF 8
ENDMDL