MODEL 4
REMARK VINA RESULT: -5.479492503      3.418      9.676
REMARK  11 active torsions:
REMARK  status: ('A' for Active; 'I' for Inactive)
REMARK    1  A    between atoms: N1_2  and  C3_4
REMARK    2  A    between atoms: C3_4  and  C4_5
REMARK    3  A    between atoms: C4_5  and  N2_6
REMARK       I    between atoms: N2_6  and  C5_8
REMARK    4  A    between atoms: C5_8  and  C6_10
REMARK    5  A    between atoms: C6_10  and  C7_11
REMARK    6  A    between atoms: C6_10  and  C13_27
REMARK    7  A    between atoms: C7_11  and  C8_12
REMARK    8  A    between atoms: N3_13  and  N4_15
REMARK    9  A    between atoms: N4_15  and  C9_17
REMARK   10  A    between atoms: C11_19  and  C12_20
REMARK   11  A    between atoms: C13_27  and  N7_28
ROOT
HETATM    1  C7  UNL     1      14.099 -63.173  23.322  1.00  0.00     0.062 C
ENDROOT
BRANCH   1   2
HETATM    2  C6  UNL     1      13.433 -63.229  21.953  1.00  0.00     0.106 C
BRANCH   2   3
HETATM    3  C5  UNL     1      11.980 -63.339  22.208  1.00  0.00     0.224 C
HETATM    4  N2  UNL     1      11.351 -64.573  22.515  1.00  0.00    -0.359 N
ATOM      5  H2  UNL     1      11.937 -65.408  22.561  1.00  0.00     0.162 HD
HETATM    6  O1  UNL     1      11.282 -62.295  22.150  1.00  0.00    -0.273 OA
BRANCH   4   7
HETATM    7  C4  UNL     1       9.944 -64.726  22.767  1.00  0.00     0.152 C
BRANCH   7   8
HETATM    8  C3  UNL     1       9.435 -66.112  22.496  1.00  0.00     0.290 C
BRANCH   8   9
HETATM    9  N1  UNL     1       8.287 -66.434  23.325  1.00  0.00     0.081 N
HETATM   10  C1  UNL     1       7.812 -65.291  24.049  1.00  0.00     0.309 C
HETATM   11  C2  UNL     1       7.239 -67.097  22.606  1.00  0.00     0.309 C
ENDBRANCH   8   9
ENDBRANCH   7   8
ENDBRANCH   4   7
ENDBRANCH   2   3
BRANCH   2  12
HETATM   12  C13 UNL     1      13.810 -62.034  21.119  1.00  0.00     0.215 C
BRANCH  12  13
HETATM   13  N7  UNL     1      13.584 -62.274  19.719  1.00  0.00    -0.155 N
HETATM   14  O4  UNL     1      14.328 -63.045  19.094  1.00  0.00    -0.537 OA
HETATM   15  O5  UNL     1      12.556 -61.658  19.054  1.00  0.00    -0.537 OA
ENDBRANCH  12  13
ENDBRANCH   2  12
ENDBRANCH   1   2
BRANCH   1  16
HETATM   16  C8  UNL     1      14.682 -64.517  23.612  1.00  0.00     0.081 C
HETATM   17  N3  UNL     1      14.966 -65.252  22.585  1.00  0.00    -0.314 N
ATOM     18  H3  UNL     1      14.788 -64.902  21.644  1.00  0.00     0.185 HD
BRANCH  17  19
HETATM   19  N4  UNL     1      15.508 -66.509  22.760  1.00  0.00    -0.285 N
ATOM     20  H4  UNL     1      15.021 -67.183  23.352  1.00  0.00     0.188 HD
BRANCH  19  21
HETATM   21  C9  UNL     1      16.737 -66.889  22.132  1.00  0.00     0.137 A
HETATM   22  C10 UNL     1      17.712 -66.025  21.674  1.00  0.00     0.089 A
HETATM   23  C11 UNL     1      18.758 -66.757  21.126  1.00  0.00     0.128 A
HETATM   24  N5  UNL     1      18.387 -68.040  21.269  1.00  0.00    -0.293 N
HETATM   25  N6  UNL     1      17.195 -68.116  21.863  1.00  0.00    -0.284 N
ATOM     26  H5  UNL     1      18.939 -68.842  20.967  1.00  0.00     0.187 HD
ATOM     27  H6  UNL     1      16.704 -68.984  22.080  1.00  0.00     0.188 HD
BRANCH  23  28
HETATM   28  C12 UNL     1      19.981 -66.230  20.532  1.00  0.00     0.228 C
HETATM   29  O2  UNL     1      20.837 -65.631  21.231  1.00  0.00    -0.643 OA
HETATM   30  O3  UNL     1      20.218 -66.382  19.188  1.00  0.00    -0.643 OA
ENDBRANCH  23  28
ENDBRANCH  19  21
ENDBRANCH  17  19
ENDBRANCH   1  16
TORSDOF 11
ENDMDL