MODEL 3
REMARK VINA RESULT: -5.199909489      2.283      6.503
REMARK  13 active torsions:
REMARK  status: ('A' for Active; 'I' for Inactive)
REMARK    1  A    between atoms: C2_2  and  C3_3
REMARK    2  A    between atoms: C7_7  and  C8_8
REMARK    3  A    between atoms: C8_8  and  O1_9
REMARK    4  A    between atoms: C8_8  and  C9_11
REMARK    5  A    between atoms: C9_11  and  N1_12
REMARK    6  A    between atoms: N1_12  and  N2_13
REMARK    7  A    between atoms: N1_12  and  C10_16
REMARK    8  A    between atoms: C10_16  and  C11_17
REMARK    9  A    between atoms: C11_17  and  N3_18
REMARK   10  A    between atoms: N3_18  and  O2_19
REMARK   11  A    between atoms: N3_18  and  C12_21
REMARK   12  A    between atoms: C12_21  and  C13_22
REMARK   13  A    between atoms: C13_22  and  N4_23
ROOT
HETATM    1  N1  UNL     1      15.761 -65.654  22.908  1.00  0.00    -0.289 N
ENDROOT
BRANCH   1   2
HETATM    2  C9  UNL     1      16.894 -66.391  23.115  1.00  0.00     0.124 C
BRANCH   2   3
HETATM    3  C8  UNL     1      17.976 -66.435  22.069  1.00  0.00     0.193 C
BRANCH   3   4
HETATM    4  C7  UNL     1      19.291 -66.616  22.725  1.00  0.00     0.000 A
HETATM    5  C6  UNL     1      19.443 -67.095  24.007  1.00  0.00     0.012 A
HETATM    6  C5  UNL     1      20.678 -67.222  24.630  1.00  0.00     0.001 A
HETATM    7  C4  UNL     1      21.811 -66.858  23.955  1.00  0.00     0.009 A
HETATM    8  C3  UNL     1      21.704 -66.370  22.659  1.00  0.00    -0.034 A
HETATM    9  C16 UNL     1      20.450 -66.249  22.046  1.00  0.00     0.061 A
HETATM   10  N7  UNL     1      20.353 -65.742  20.723  1.00  0.00    -0.101 NA
BRANCH   8  11
HETATM   11  C2  UNL     1      22.893 -65.952  21.888  1.00  0.00     0.036 C
HETATM   12  C1  UNL     1      23.535 -64.765  22.546  1.00  0.00     0.010 C
ENDBRANCH   8  11
ENDBRANCH   3   4
BRANCH   3  13
HETATM   13  O1  UNL     1      17.696 -67.261  21.029  1.00  0.00    -0.386 OA
ATOM     14  H1  UNL     1      18.083 -67.036  20.191  1.00  0.00     0.210 HD
ENDBRANCH   3  13
ENDBRANCH   2   3
ENDBRANCH   1   2
BRANCH   1  15
HETATM   15  N2  UNL     1      15.673 -65.177  21.572  1.00  0.00    -0.340 N
ATOM     16  H22 UNL     1      15.570 -65.928  20.890  1.00  0.00     0.177 HD
ATOM     17  H21 UNL     1      16.093 -64.253  21.468  1.00  0.00     0.177 HD
ENDBRANCH   1  15
BRANCH   1  18
HETATM   18  C10 UNL     1      14.527 -65.729  23.535  1.00  0.00     0.104 C
BRANCH  18  19
HETATM   19  C11 UNL     1      13.926 -64.400  23.945  1.00  0.00     0.167 C
BRANCH  19  20
HETATM   20  N3  UNL     1      12.884 -63.938  23.055  1.00  0.00    -0.193 NA
BRANCH  20  21
HETATM   21  O2  UNL     1      12.756 -64.642  21.930  1.00  0.00    -0.313 OA
ATOM     22  H2  UNL     1      12.007 -64.406  21.395  1.00  0.00     0.237 HD
ENDBRANCH  20  21
BRANCH  20  23
HETATM   23  C12 UNL     1      13.114 -62.525  22.804  1.00  0.00     0.141 C
BRANCH  23  24
HETATM   24  C13 UNL     1      14.580 -62.167  22.848  1.00  0.00     0.147 C
BRANCH  24  25
HETATM   25  N4  UNL     1      14.961 -61.577  21.579  1.00  0.00    -0.336 N
HETATM   26  C14 UNL     1      14.245 -61.760  20.450  1.00  0.00     0.200 A
HETATM   27  N5  UNL     1      14.860 -61.124  19.445  1.00  0.00    -0.295 N
HETATM   28  N6  UNL     1      15.960 -60.537  19.913  1.00  0.00    -0.295 N
ATOM     29  H5  UNL     1      14.538 -61.095  18.478  1.00  0.00     0.187 HD
HETATM   30  C15 UNL     1      16.002 -60.835  21.251  1.00  0.00     0.200 A
ATOM     31  H6  UNL     1      16.633 -59.981  19.386  1.00  0.00     0.187 HD
ENDBRANCH  24  25
ENDBRANCH  23  24
ENDBRANCH  20  23
ENDBRANCH  19  20
ENDBRANCH  18  19
ENDBRANCH   1  18
TORSDOF 13
ENDMDL