MODEL 3
REMARK VINA RESULT: -6.121514216      1.609      2.099
REMARK  13 active torsions:
REMARK  status: ('A' for Active; 'I' for Inactive)
REMARK    1  A    between atoms: N1_1  and  C1_5
REMARK    2  A    between atoms: C1_5  and  C2_6
REMARK    3  A    between atoms: C1_5  and  C9_13
REMARK    4  A    between atoms: C2_6  and  C3_7
REMARK    5  A    between atoms: C9_13  and  O1_14
REMARK    6  A    between atoms: C9_13  and  N2_16
REMARK    7  A    between atoms: N2_16  and  C10_19
REMARK    8  A    between atoms: C10_19  and  C11_20
REMARK    9  A    between atoms: C11_20  and  C12_21
REMARK   10  A    between atoms: C11_20  and  N7_30
REMARK   11  A    between atoms: C12_21  and  N3_22
REMARK   12  A    between atoms: N7_30  and  C14_33
REMARK   13  A    between atoms: C14_33  and  C15_34
ROOT
HETATM    1  N2  UNL     1      14.777 -65.509  21.318  1.00  0.00    -0.045 N
ATOM      2  H21 UNL     1      14.350 -65.479  20.393  1.00  0.00     0.280 HD
ATOM      3  H22 UNL     1      15.689 -65.144  21.044  1.00  0.00     0.280 HD
ENDROOT
BRANCH   1   4
HETATM    4  C9  UNL     1      14.833 -66.860  21.897  1.00  0.00     0.349 C
BRANCH   4   5
HETATM    5  C1  UNL     1      16.241 -67.280  22.129  1.00  0.00     0.243 C
BRANCH   5   6
HETATM    6  N1  UNL     1      16.407 -68.615  21.569  1.00  0.00    -0.071 N
ATOM      7  H13 UNL     1      16.067 -68.696  20.611  1.00  0.00     0.274 HD
ATOM      8  H12 UNL     1      17.379 -68.856  21.380  1.00  0.00     0.274 HD
ATOM      9  H11 UNL     1      15.950 -69.258  22.216  1.00  0.00     0.274 HD
ENDBRANCH   5   6
BRANCH   5  10
HETATM   10  C2  UNL     1      17.225 -66.395  21.419  1.00  0.00     0.075 C
BRANCH  10  11
HETATM   11  C3  UNL     1      18.588 -66.434  21.934  1.00  0.00    -0.056 A
HETATM   12  C4  UNL     1      19.640 -66.017  21.155  1.00  0.00     0.007 A
HETATM   13  C5  UNL     1      20.951 -66.053  21.629  1.00  0.00     0.001 A
HETATM   14  C6  UNL     1      21.217 -66.513  22.903  1.00  0.00     0.000 A
HETATM   15  C7  UNL     1      20.181 -66.935  23.700  1.00  0.00     0.001 A
HETATM   16  C8  UNL     1      18.891 -66.887  23.201  1.00  0.00     0.007 A
ENDBRANCH  10  11
ENDBRANCH   5  10
ENDBRANCH   4   5
BRANCH   4  17
HETATM   17  O1  UNL     1      14.179 -67.672  20.960  1.00  0.00    -0.368 OA
ATOM     18  H1  UNL     1      13.286 -67.871  21.214  1.00  0.00     0.212 HD
ENDBRANCH   4  17
ENDBRANCH   1   4
BRANCH   1  19
HETATM   19  C10 UNL     1      14.104 -64.701  22.287  1.00  0.00     0.270 C
BRANCH  19  20
HETATM   20  C11 UNL     1      13.352 -63.528  21.786  1.00  0.00     0.231 C
BRANCH  20  21
HETATM   21  C12 UNL     1      13.751 -63.123  20.378  1.00  0.00     0.186 C
BRANCH  21  22
HETATM   22  N3  UNL     1      14.680 -61.999  20.376  1.00  0.00    -0.269 N
HETATM   23  C13 UNL     1      15.444 -61.682  21.447  1.00  0.00     0.219 A
HETATM   24  N4  UNL     1      16.192 -60.613  21.143  1.00  0.00    -0.279 N
HETATM   25  N5  UNL     1      15.882 -60.286  19.895  1.00  0.00    -0.227 N
ATOM     26  H4  UNL     1      16.867 -60.145  21.749  1.00  0.00     0.189 HD
HETATM   27  N6  UNL     1      14.974 -61.127  19.451  1.00  0.00    -0.225 N
ATOM     28  H5  UNL     1      16.281 -59.509  19.368  1.00  0.00     0.210 HD
ATOM     29  H6  UNL     1      14.560 -61.103  18.519  1.00  0.00     0.210 HD
ENDBRANCH  21  22
ENDBRANCH  20  21
BRANCH  20  30
HETATM   30  N7  UNL     1      11.958 -63.454  22.050  1.00  0.00    -0.067 N
ATOM     31  H72 UNL     1      11.718 -62.573  22.506  1.00  0.00     0.277 HD
ATOM     32  H71 UNL     1      11.428 -63.342  21.186  1.00  0.00     0.277 HD
BRANCH  30  33
HETATM   33  C14 UNL     1      11.487 -64.558  22.796  1.00  0.00     0.237 C
BRANCH  33  34
HETATM   34  C15 UNL     1       9.976 -64.712  22.746  1.00  0.00     0.011 A
HETATM   35  C16 UNL     1       9.520 -66.141  22.423  1.00  0.00     0.007 A
HETATM   36  C17 UNL     1       9.277 -65.536  23.755  1.00  0.00     0.007 A
ENDBRANCH  33  34
ENDBRANCH  30  33
ENDBRANCH  20  30
ENDBRANCH  19  20
ENDBRANCH   1  19
TORSDOF 13
ENDMDL