MODEL 2
REMARK VINA RESULT: -5.994201309      1.369      2.395
REMARK  13 active torsions:
REMARK  status: ('A' for Active; 'I' for Inactive)
REMARK    1  A    between atoms: C1_2  and  N1_3
REMARK    2  A    between atoms: N1_3  and  C2_5
REMARK    3  A    between atoms: C2_5  and  C3_6
REMARK    4  A    between atoms: C2_5  and  C8_17
REMARK    5  A    between atoms: C3_6  and  C4_7
REMARK    6  A    between atoms: C4_7  and  C5_9
REMARK    7  A    between atoms: C5_9  and  N2_10
REMARK    8  A    between atoms: C8_17  and  O3_18
REMARK    9  A    between atoms: C8_17  and  N5_20
REMARK   10  A    between atoms: N5_20  and  C9_23
REMARK   11  A    between atoms: C9_23  and  C10_24
REMARK   12  A    between atoms: C10_24  and  O4_25
REMARK   13  A    between atoms: C10_24  and  C11_27
ROOT
HETATM    1  C2  UNL     1      12.208 -64.493  23.004  1.00  0.00     0.147 C
ENDROOT
BRANCH   1   2
HETATM    2  N1  UNL     1      10.930 -64.386  22.350  1.00  0.00    -0.359 N
ATOM      3  H1  UNL     1      10.857 -63.809  21.512  1.00  0.00     0.162 HD
BRANCH   2   4
HETATM    4  C1  UNL     1       9.761 -65.051  22.824  1.00  0.00     0.348 C
HETATM    5  O1  UNL     1       9.280 -66.059  22.246  1.00  0.00    -0.284 OA
ENDBRANCH   2   4
ENDBRANCH   1   2
BRANCH   1   6
HETATM    6  C3  UNL     1      12.941 -63.179  23.072  1.00  0.00     0.109 C
BRANCH   6   7
HETATM    7  C4  UNL     1      12.507 -62.199  22.047  1.00  0.00     0.148 C
HETATM    8  O2  UNL     1      11.708 -61.303  22.273  1.00  0.00    -0.296 OA
BRANCH   7   9
HETATM    9  C5  UNL     1      13.049 -62.275  20.655  1.00  0.00     0.228 C
BRANCH   9  10
HETATM   10  N2  UNL     1      14.323 -61.596  20.537  1.00  0.00    -0.281 N
HETATM   11  C6  UNL     1      15.488 -62.062  20.997  1.00  0.00     0.130 A
HETATM   12  C7  UNL     1      16.466 -61.115  20.686  1.00  0.00     0.127 A
HETATM   13  N3  UNL     1      15.826 -60.109  20.046  1.00  0.00    -0.296 N
HETATM   14  N4  UNL     1      14.545 -60.430  19.974  1.00  0.00    -0.241 N
ATOM     15  H3  UNL     1      16.254 -59.257  19.685  1.00  0.00     0.187 HD
ATOM     16  H4  UNL     1      13.827 -59.851  19.539  1.00  0.00     0.208 HD
ENDBRANCH   9  10
ENDBRANCH   7   9
ENDBRANCH   6   7
ENDBRANCH   1   6
BRANCH   1  17
HETATM   17  C8  UNL     1      13.043 -65.619  22.464  1.00  0.00     0.342 C
BRANCH  17  18
HETATM   18  O3  UNL     1      12.773 -65.724  21.080  1.00  0.00    -0.368 OA
ATOM     19  H3  UNL     1      12.611 -66.641  20.889  1.00  0.00     0.212 HD
ENDBRANCH  17  18
BRANCH  17  20
HETATM   20  N5  UNL     1      14.439 -65.141  22.499  1.00  0.00    -0.044 N
ATOM     21  H52 UNL     1      14.500 -64.138  22.322  1.00  0.00     0.280 HD
ATOM     22  H51 UNL     1      14.819 -65.154  23.445  1.00  0.00     0.280 HD
BRANCH  20  23
HETATM   23  C9  UNL     1      15.249 -65.889  21.592  1.00  0.00     0.271 C
BRANCH  23  24
HETATM   24  C10 UNL     1      15.945 -67.020  22.288  1.00  0.00     0.177 C
BRANCH  24  25
HETATM   25  O4  UNL     1      15.689 -68.247  21.662  1.00  0.00    -0.389 OA
ATOM     26  H4  UNL     1      16.381 -68.481  21.054  1.00  0.00     0.210 HD
ENDBRANCH  24  25
BRANCH  24  27
HETATM   27  C11 UNL     1      17.420 -66.749  22.252  1.00  0.00    -0.028 A
HETATM   28  C12 UNL     1      18.027 -66.339  21.072  1.00  0.00     0.010 A
HETATM   29  C13 UNL     1      19.376 -66.091  21.021  1.00  0.00     0.001 A
HETATM   30  C14 UNL     1      20.133 -66.253  22.167  1.00  0.00     0.000 A
HETATM   31  C15 UNL     1      19.539 -66.657  23.332  1.00  0.00     0.001 A
HETATM   32  C16 UNL     1      18.172 -66.908  23.383  1.00  0.00     0.010 A
ENDBRANCH  24  27
ENDBRANCH  23  24
ENDBRANCH  20  23
ENDBRANCH  17  20
ENDBRANCH   1  17
TORSDOF 13
ENDMDL