MODEL 2
REMARK VINA RESULT: -5.824282410      3.165      6.443
REMARK  11 active torsions:
REMARK  status: ('A' for Active; 'I' for Inactive)
REMARK    1  A    between atoms: O1_1  and  C1_3
REMARK    2  A    between atoms: C1_3  and  N1_4
REMARK    3  A    between atoms: N1_4  and  C2_5
REMARK    4  A    between atoms: C2_5  and  C3_6
REMARK    5  A    between atoms: C2_5  and  C13_27
REMARK    6  A    between atoms: C3_6  and  C4_7
REMARK    7  A    between atoms: C4_7  and  N2_8
REMARK    8  A    between atoms: C5_10  and  C6_11
REMARK    9  A    between atoms: C6_11  and  S1_12
REMARK   10  A    between atoms: S1_12  and  C7_13
REMARK   11  A    between atoms: C7_13  and  C8_14
ROOT
HETATM    1  S1  UNL     1      13.917 -64.932  25.053  1.00  0.00    -0.158 SA
ENDROOT
BRANCH   1   2
HETATM    2  C6  UNL     1      15.472 -65.930  25.139  1.00  0.00     0.118 C
BRANCH   2   3
HETATM    3  C5  UNL     1      14.962 -67.359  25.242  1.00  0.00     0.070 C
HETATM    4  N2  UNL     1      14.377 -68.043  24.227  1.00  0.00    -0.381 N
ATOM      5  H2  UNL     1      13.360 -68.110  24.203  1.00  0.00     0.164 HD
BRANCH   4   6
HETATM    6  C4  UNL     1      15.131 -68.672  23.191  1.00  0.00     0.067 C
BRANCH   6   7
HETATM    7  C3  UNL     1      14.958 -68.185  21.841  1.00  0.00     0.124 C
BRANCH   7   8
HETATM    8  C2  UNL     1      14.221 -66.819  21.718  1.00  0.00     0.167 C
BRANCH   8   9
HETATM    9  N1  UNL     1      12.866 -67.037  21.689  1.00  0.00    -0.392 NA
BRANCH   9  10
HETATM   10  C1  UNL     1      11.492 -67.281  21.638  1.00  0.00     0.317 C
BRANCH  10  11
HETATM   11  O1  UNL     1      11.055 -67.693  20.461  1.00  0.00    -0.346 OA
ATOM     12  H1  UNL     1      10.171 -67.415  20.252  1.00  0.00     0.219 HD
ENDBRANCH  10  11
ENDBRANCH   9  10
ENDBRANCH   8   9
BRANCH   8  13
HETATM   13  C13 UNL     1      14.804 -65.757  20.939  1.00  0.00     0.237 C
HETATM   14  O3  UNL     1      14.436 -65.355  19.859  1.00  0.00    -0.642 OA
HETATM   15  O4  UNL     1      15.941 -65.132  21.533  1.00  0.00    -0.642 OA
ENDBRANCH   8  13
ENDBRANCH   7   8
ENDBRANCH   6   7
ENDBRANCH   4   6
ENDBRANCH   2   3
ENDBRANCH   1   2
BRANCH   1  16
HETATM   16  C7  UNL     1      14.040 -63.397  24.261  1.00  0.00     0.135 C
BRANCH  16  17
HETATM   17  C8  UNL     1      13.429 -63.174  22.963  1.00  0.00     0.061 A
HETATM   18  C9  UNL     1      12.097 -63.529  22.642  1.00  0.00     0.118 A
HETATM   19  N3  UNL     1      11.932 -63.055  21.410  1.00  0.00    -0.344 N
HETATM   20  C10 UNL     1      13.034 -62.449  20.965  1.00  0.00     0.196 A
ATOM     21  H3  UNL     1      11.070 -63.144  20.872  1.00  0.00     0.167 HD
HETATM   22  C11 UNL     1      13.353 -61.721  19.801  1.00  0.00     0.292 A
HETATM   23  N6  UNL     1      13.981 -62.535  21.953  1.00  0.00    -0.236 N
HETATM   24  O2  UNL     1      12.488 -61.628  18.961  1.00  0.00    -0.264 OA
HETATM   25  N4  UNL     1      14.565 -61.176  19.730  1.00  0.00    -0.315 N
HETATM   26  C12 UNL     1      15.479 -61.280  20.696  1.00  0.00     0.201 A
ATOM     27  H4  UNL     1      14.808 -60.651  18.891  1.00  0.00     0.170 HD
HETATM   28  N5  UNL     1      15.189 -61.955  21.805  1.00  0.00    -0.288 N
ATOM     29  H5  UNL     1      15.883 -62.034  22.548  1.00  0.00     0.188 HD
ENDBRANCH  16  17
ENDBRANCH   1  16
TORSDOF 11
ENDMDL