MODEL 1
REMARK VINA RESULT: -5.782915294      0.000      0.000
REMARK  12 active torsions:
REMARK  status: ('A' for Active; 'I' for Inactive)
REMARK    1  A    between atoms: N1_2  and  C2_4
REMARK    2  A    between atoms: C4_8  and  C5_9
REMARK    3  A    between atoms: C5_9  and  N3_10
REMARK    4  A    between atoms: N3_10  and  C6_13
REMARK    5  A    between atoms: C6_13  and  C7_14
REMARK    6  A    between atoms: C7_14  and  C8_15
REMARK    7  A    between atoms: C8_15  and  N4_16
REMARK    8  A    between atoms: N4_16  and  C9_18
REMARK    9  A    between atoms: C9_18  and  C10_19
REMARK   10  A    between atoms: C11_28  and  O1_29
REMARK   11  A    between atoms: O1_29  and  C12_30
REMARK   12  A    between atoms: C12_30  and  C13_31
ROOT
HETATM    1  N3  UNL     1      14.384 -64.768  23.868  1.00  0.00    -0.071 N
ATOM      2  H31 UNL     1      14.895 -64.891  24.742  1.00  0.00     0.277 HD
ATOM      3  H32 UNL     1      13.713 -65.531  23.951  1.00  0.00     0.277 HD
ENDROOT
BRANCH   1   4
HETATM    4  C5  UNL     1      15.261 -64.983  22.732  1.00  0.00     0.276 C
BRANCH   4   5
HETATM    5  C4  UNL     1      15.423 -66.424  22.467  1.00  0.00     0.035 A
HETATM    6  C3  UNL     1      14.367 -67.278  22.487  1.00  0.00     0.119 A
HETATM    7  N2  UNL     1      14.546 -68.576  22.099  1.00  0.00    -0.201 N
HETATM    8  C2  UNL     1      15.756 -68.986  21.707  1.00  0.00     0.679 A
ATOM      9  H2  UNL     1      13.762 -69.228  22.110  1.00  0.00     0.183 HD
HETATM   10  N9  UNL     1      16.842 -68.157  21.677  1.00  0.00    -0.170 N
HETATM   11  C11 UNL     1      16.649 -66.893  22.058  1.00  0.00     0.166 A
ATOM     12  H9  UNL     1      17.758 -68.488  21.376  1.00  0.00     0.186 HD
BRANCH   8  13
HETATM   13  N1  UNL     1      15.988 -70.193  21.311  1.00  0.00    -0.230 N
HETATM   14  C1  UNL     1      14.839 -70.884  20.696  1.00  0.00     0.165 C
ATOM     15  H1  UNL     1      16.900 -70.637  21.414  1.00  0.00     0.177 HD
ENDBRANCH   8  13
BRANCH  11  16
HETATM   16  O1  UNL     1      17.704 -65.991  22.063  1.00  0.00    -0.335 OA
BRANCH  16  17
HETATM   17  C12 UNL     1      19.022 -66.393  22.431  1.00  0.00     0.181 C
BRANCH  17  18
HETATM   18  C13 UNL     1      19.998 -65.938  21.361  1.00  0.00     0.002 C
HETATM   19  C14 UNL     1      21.415 -66.023  21.877  1.00  0.00     0.011 C
HETATM   20  C15 UNL     1      19.780 -66.598  20.049  1.00  0.00     0.011 C
ENDBRANCH  17  18
ENDBRANCH  16  17
ENDBRANCH  11  16
ENDBRANCH   4   5
ENDBRANCH   1   4
BRANCH   1  21
HETATM   21  C6  UNL     1      13.706 -63.498  23.854  1.00  0.00     0.234 C
BRANCH  21  22
HETATM   22  C7  UNL     1      12.582 -63.606  22.856  1.00  0.00     0.046 C
BRANCH  22  23
HETATM   23  C8  UNL     1      12.293 -62.375  22.083  1.00  0.00     0.115 C
BRANCH  23  24
HETATM   24  N4  UNL     1      12.419 -62.410  20.674  1.00  0.00    -0.414 N
ATOM     25  H4  UNL     1      11.672 -62.109  20.049  1.00  0.00     0.153 HD
BRANCH  24  26
HETATM   26  C9  UNL     1      13.692 -62.905  20.186  1.00  0.00     0.193 C
BRANCH  26  27
HETATM   27  C10 UNL     1      14.717 -61.826  20.304  1.00  0.00     0.130 A
HETATM   28  N5  UNL     1      15.891 -62.011  20.983  1.00  0.00    -0.271 N
HETATM   29  N6  UNL     1      16.520 -60.867  20.947  1.00  0.00    -0.227 N
ATOM     30  H5  UNL     1      16.211 -62.871  21.428  1.00  0.00     0.190 HD
HETATM   31  N7  UNL     1      15.844 -59.950  20.291  1.00  0.00    -0.227 N
ATOM     32  H6  UNL     1      17.431 -60.704  21.377  1.00  0.00     0.210 HD
HETATM   33  N8  UNL     1      14.712 -60.569  19.894  1.00  0.00    -0.271 N
ATOM     34  H7  UNL     1      16.115 -58.982  20.120  1.00  0.00     0.210 HD
ATOM     35  H8  UNL     1      13.963 -60.131  19.356  1.00  0.00     0.190 HD
ENDBRANCH  26  27
ENDBRANCH  24  26
ENDBRANCH  23  24
ENDBRANCH  22  23
ENDBRANCH  21  22
ENDBRANCH   1  21
TORSDOF 12
ENDMDL