MODEL 2
REMARK VINA RESULT: -5.568852022      1.000      1.138
REMARK  12 active torsions:
REMARK  status: ('A' for Active; 'I' for Inactive)
REMARK    1  A    between atoms: C2_2  and  N1_4
REMARK    2  A    between atoms: N1_4  and  C4_6
REMARK    3  A    between atoms: C4_6  and  C5_7
REMARK    4  A    between atoms: C5_7  and  C6_8
REMARK    5  A    between atoms: C5_7  and  O2_11
REMARK    6  A    between atoms: C6_8  and  O1_9
REMARK    7  A    between atoms: O2_11  and  C7_12
REMARK    8  A    between atoms: C7_12  and  N2_13
REMARK    9  A    between atoms: C8_14  and  C9_15
REMARK   10  A    between atoms: C9_15  and  C10_16
REMARK   11  A    between atoms: C10_16  and  N3_17
REMARK   12  A    between atoms: C14_23  and  N5_24
ROOT
HETATM    1  N2  UNL     1      13.673 -64.359  22.023  1.00  0.00    -0.298 N
HETATM    2  C8  UNL     1      15.039 -64.492  22.050  1.00  0.00     0.092 A
HETATM    3  N4  UNL     1      15.503 -63.417  21.394  1.00  0.00    -0.339 N
ATOM      4  H4  UNL     1      16.494 -63.228  21.245  1.00  0.00     0.167 HD
HETATM    5  C13 UNL     1      14.520 -62.623  20.959  1.00  0.00     0.122 A
HETATM    6  C14 UNL     1      14.425 -61.429  20.253  1.00  0.00     0.131 A
HETATM    7  N6  UNL     1      13.233 -60.863  19.966  1.00  0.00    -0.337 N
ATOM      8  H6  UNL     1      13.190 -59.987  19.446  1.00  0.00     0.168 HD
HETATM    9  C15 UNL     1      12.111 -61.464  20.370  1.00  0.00     0.183 A
HETATM   10  N7  UNL     1      12.185 -62.608  21.045  1.00  0.00    -0.336 N
ATOM     11  H7  UNL     1      11.315 -63.049  21.344  1.00  0.00     0.168 HD
HETATM   12  C16 UNL     1      13.364 -63.224  21.359  1.00  0.00     0.142 A
ENDROOT
BRANCH   1  13
HETATM   13  C7  UNL     1      12.719 -65.249  22.613  1.00  0.00     0.302 C
BRANCH  13  14
HETATM   14  O2  UNL     1      12.463 -66.355  21.820  1.00  0.00    -0.359 OA
BRANCH  14  15
HETATM   15  C5  UNL     1      11.445 -67.117  22.455  1.00  0.00     0.185 C
BRANCH  15  16
HETATM   16  C4  UNL     1      10.244 -66.189  22.486  1.00  0.00     0.089 C
BRANCH  16  17
HETATM   17  N1  UNL     1       9.033 -66.746  22.040  1.00  0.00    -0.396 N
ATOM     18  H1  UNL     1       8.925 -67.053  21.074  1.00  0.00     0.159 HD
BRANCH  17  19
HETATM   19  C2  UNL     1       7.967 -66.869  22.966  1.00  0.00     0.072 C
HETATM   20  C1  UNL     1       7.930 -65.572  23.791  1.00  0.00     0.031 C
HETATM   21  C3  UNL     1       6.604 -67.082  22.418  1.00  0.00     0.031 C
ENDBRANCH  17  19
ENDBRANCH  16  17
ENDBRANCH  15  16
BRANCH  15  22
HETATM   22  C6  UNL     1      11.235 -68.307  21.578  1.00  0.00     0.201 C
BRANCH  22  23
HETATM   23  O1  UNL     1      11.023 -67.846  20.284  1.00  0.00    -0.398 OA
ATOM     24  H1  UNL     1      10.118 -67.561  20.222  1.00  0.00     0.209 HD
ENDBRANCH  22  23
ENDBRANCH  15  22
ENDBRANCH  14  15
ENDBRANCH  13  14
ENDBRANCH   1  13
BRANCH   2  25
HETATM   25  C9  UNL     1      15.816 -65.587  22.644  1.00  0.00     0.121 C
BRANCH  25  26
HETATM   26  C10 UNL     1      16.927 -66.129  21.814  1.00  0.00     0.064 C
BRANCH  26  27
HETATM   27  N3  UNL     1      18.194 -66.140  22.421  1.00  0.00    -0.401 N
HETATM   28  C11 UNL     1      19.310 -65.875  21.547  1.00  0.00     0.148 C
HETATM   29  C12 UNL     1      18.460 -66.866  23.589  1.00  0.00     0.148 C
ENDBRANCH  26  27
ENDBRANCH  25  26
ENDBRANCH   2  25
BRANCH   6  30
HETATM   30  N5  UNL     1      15.458 -60.834  19.856  1.00  0.00    -0.383 N
ATOM     31  H52 UNL     1      15.761 -61.008  18.898  1.00  0.00     0.157 HD
ATOM     32  H51 UNL     1      15.965 -60.203  20.476  1.00  0.00     0.157 HD
ENDBRANCH   6  30
TORSDOF 12
ENDMDL