MODEL 4
REMARK VINA RESULT: -4.436138473      3.222      7.050
REMARK  11 active torsions:
REMARK  status: ('A' for Active; 'I' for Inactive)
REMARK    1  A    between atoms: C4_9  and  S1_10
REMARK    2  A    between atoms: S1_10  and  C5_13
REMARK    3  A    between atoms: C5_13  and  C6_14
REMARK    4  A    between atoms: C6_14  and  N3_15
REMARK    5  A    between atoms: N3_15  and  C7_17
REMARK    6  A    between atoms: C7_17  and  C8_18
REMARK    7  A    between atoms: C8_18  and  S2_19
REMARK    8  A    between atoms: S2_19  and  C9_20
REMARK    9  A    between atoms: C9_20  and  C10_21
REMARK   10  A    between atoms: C10_21  and  N4_22
REMARK   11  A    between atoms: N4_22  and  C11_24
ROOT
HETATM    1  S1  UNL     1      14.317 -64.336  21.018  1.00  0.00     0.182 S
HETATM    2  O1  UNL     1      15.666 -63.726  21.332  1.00  0.00    -0.222 OA
HETATM    3  O2  UNL     1      14.345 -64.883  19.619  1.00  0.00    -0.222 OA
ENDROOT
BRANCH   1   4
HETATM    4  C4  UNL     1      13.071 -63.141  21.255  1.00  0.00     0.118 A
HETATM    5  C3  UNL     1      13.005 -62.005  20.483  1.00  0.00     0.123 A
HETATM    6  N1  UNL     1      12.021 -61.101  20.690  1.00  0.00    -0.332 N
HETATM    7  N2  UNL     1      13.895 -61.815  19.541  1.00  0.00    -0.384 N
HETATM    8  C2  UNL     1      11.075 -61.246  21.635  1.00  0.00     0.078 A
ATOM      9  H1  UNL     1      11.995 -60.269  20.101  1.00  0.00     0.168 HD
HETATM   10  C1  UNL     1      10.003 -60.236  21.843  1.00  0.00     0.089 C
HETATM   11  N5  UNL     1      11.139 -62.357  22.392  1.00  0.00    -0.354 N
HETATM   12  C12 UNL     1      12.095 -63.290  22.228  1.00  0.00     0.116 A
ATOM     13  H5  UNL     1      10.436 -62.497  23.117  1.00  0.00     0.166 HD
ATOM     14  H22 UNL     1      13.846 -60.972  18.967  1.00  0.00     0.157 HD
ATOM     15  H21 UNL     1      14.638 -62.496  19.385  1.00  0.00     0.157 HD
ENDBRANCH   1   4
BRANCH   1  16
HETATM   16  C5  UNL     1      14.082 -65.718  22.098  1.00  0.00     0.165 C
BRANCH  16  17
HETATM   17  C6  UNL     1      14.891 -66.866  21.468  1.00  0.00     0.134 C
BRANCH  17  18
HETATM   18  N3  UNL     1      16.271 -66.538  21.442  1.00  0.00    -0.401 N
ATOM     19  H3  UNL     1      16.685 -66.118  20.609  1.00  0.00     0.158 HD
BRANCH  18  20
HETATM   20  C7  UNL     1      17.052 -66.795  22.564  1.00  0.00     0.065 C
BRANCH  20  21
HETATM   21  C8  UNL     1      18.453 -66.275  22.496  1.00  0.00     0.118 C
BRANCH  21  22
HETATM   22  S2  UNL     1      19.645 -67.072  23.539  1.00  0.00    -0.162 SA
BRANCH  22  23
HETATM   23  C9  UNL     1      21.359 -66.873  23.117  1.00  0.00     0.093 C
BRANCH  23  24
HETATM   24  C10 UNL     1      21.598 -66.029  21.881  1.00  0.00     0.132 C
BRANCH  24  25
HETATM   25  N4  UNL     1      21.847 -66.815  20.697  1.00  0.00    -0.367 N
ATOM     26  H4  UNL     1      22.806 -67.115  20.526  1.00  0.00     0.161 HD
BRANCH  25  27
HETATM   27  C11 UNL     1      20.874 -67.199  19.761  1.00  0.00     0.348 C
HETATM   28  O3  UNL     1      20.103 -66.381  19.190  1.00  0.00    -0.284 OA
ENDBRANCH  25  27
ENDBRANCH  24  25
ENDBRANCH  23  24
ENDBRANCH  22  23
ENDBRANCH  21  22
ENDBRANCH  20  21
ENDBRANCH  18  20
ENDBRANCH  17  18
ENDBRANCH  16  17
ENDBRANCH   1  16
TORSDOF 11
ENDMDL