MODEL 5
REMARK VINA RESULT: -4.790685017      4.096      8.297
REMARK  14 active torsions:
REMARK  status: ('A' for Active; 'I' for Inactive)
REMARK    1  A    between atoms: S1_2  and  C2_3
REMARK    2  A    between atoms: C2_3  and  C3_4
REMARK    3  A    between atoms: C2_3  and  C12_26
REMARK    4  A    between atoms: C3_4  and  O1_5
REMARK    5  A    between atoms: O1_5  and  C4_6
REMARK    6  A    between atoms: C4_6  and  C5_7
REMARK    7  A    between atoms: C5_7  and  O2_8
REMARK    8  A    between atoms: C5_7  and  C6_10
REMARK    9  A    between atoms: C6_10  and  O3_11
REMARK   10  A    between atoms: C6_10  and  C7_13
REMARK   11  A    between atoms: C7_13  and  N1_14
REMARK   12  A    between atoms: C7_13  and  C8_18
REMARK   13  A    between atoms: C8_18  and  C9_19
REMARK   14  A    between atoms: C12_26  and  N4_27
ROOT
HETATM    1  C5  UNL     1      12.101 -64.871  23.215  1.00  0.00     0.172 C
ENDROOT
BRANCH   1   2
HETATM    2  C4  UNL     1      11.118 -65.813  23.916  1.00  0.00     0.201 C
BRANCH   2   3
HETATM    3  O1  UNL     1      10.321 -66.453  23.195  1.00  0.00    -0.387 OA
BRANCH   3   4
HETATM    4  C3  UNL     1       9.537 -67.086  22.479  1.00  0.00     0.184 C
BRANCH   4   5
HETATM    5  C2  UNL     1       8.047 -66.699  22.705  1.00  0.00     0.089 C
BRANCH   5   6
HETATM    6  S1  UNL     1       7.145 -67.757  21.503  1.00  0.00    -0.165 SA
HETATM    7  C1  UNL     1       5.389 -67.339  21.657  1.00  0.00     0.090 C
ENDBRANCH   5   6
BRANCH   5   8
HETATM    8  C12 UNL     1       7.559 -67.107  24.052  1.00  0.00     0.146 C
BRANCH   8   9
HETATM    9  N4  UNL     1       7.539 -66.059  25.044  1.00  0.00    -0.350 N
HETATM   10  C13 UNL     1       8.133 -66.102  26.264  1.00  0.00     0.108 A
HETATM   11  C14 UNL     1       7.898 -64.927  26.903  1.00  0.00     0.106 A
HETATM   12  N5  UNL     1       7.165 -64.147  26.098  1.00  0.00    -0.361 N
HETATM   13  C15 UNL     1       6.963 -64.871  24.970  1.00  0.00     0.182 A
ATOM     14  H5  UNL     1       6.828 -63.205  26.292  1.00  0.00     0.166 HD
ENDBRANCH   8   9
ENDBRANCH   5   8
ENDBRANCH   4   5
ENDBRANCH   3   4
ENDBRANCH   2   3
ENDBRANCH   1   2
BRANCH   1  15
HETATM   15  O2  UNL     1      11.375 -64.110  22.269  1.00  0.00    -0.391 OA
ATOM     16  H2  UNL     1      10.721 -63.606  22.739  1.00  0.00     0.210 HD
ENDBRANCH   1  15
BRANCH   1  17
HETATM   17  C6  UNL     1      13.153 -65.609  22.435  1.00  0.00     0.179 C
BRANCH  17  18
HETATM   18  O3  UNL     1      12.642 -65.886  21.135  1.00  0.00    -0.391 OA
ATOM     19  H3  UNL     1      13.279 -66.412  20.666  1.00  0.00     0.210 HD
ENDBRANCH  17  18
BRANCH  17  20
HETATM   20  C7  UNL     1      14.386 -64.781  22.298  1.00  0.00     0.220 C
BRANCH  20  21
HETATM   21  N1  UNL     1      14.359 -63.627  23.189  1.00  0.00    -0.072 N
ATOM     22  H13 UNL     1      14.719 -62.791  22.728  1.00  0.00     0.274 HD
ATOM     23  H12 UNL     1      13.405 -63.312  23.363  1.00  0.00     0.274 HD
ATOM     24  H11 UNL     1      14.854 -63.814  24.061  1.00  0.00     0.274 HD
ENDBRANCH  20  21
BRANCH  20  25
HETATM   25  C8  UNL     1      14.716 -64.334  20.907  1.00  0.00     0.094 C
BRANCH  25  26
HETATM   26  C9  UNL     1      14.192 -63.038  20.488  1.00  0.00     0.027 A
HETATM   27  C10 UNL     1      14.881 -61.873  20.258  1.00  0.00     0.114 A
HETATM   28  N2  UNL     1      13.996 -60.951  19.865  1.00  0.00    -0.360 N
HETATM   29  C11 UNL     1      12.777 -61.504  19.844  1.00  0.00     0.180 A
ATOM     30  H2  UNL     1      14.213 -59.984  19.622  1.00  0.00     0.166 HD
HETATM   31  N3  UNL     1      12.880 -62.789  20.224  1.00  0.00    -0.355 N
ATOM     32  H3  UNL     1      12.114 -63.458  20.300  1.00  0.00     0.166 HD
ENDBRANCH  25  26
ENDBRANCH  20  25
ENDBRANCH  17  20
ENDBRANCH   1  17
TORSDOF 14
ENDMDL