MODEL 4
REMARK VINA RESULT: -5.467443058      3.497      6.518
REMARK  13 active torsions:
REMARK  status: ('A' for Active; 'I' for Inactive)
REMARK    1  A    between atoms: C3_5  and  N2_6
REMARK    2  A    between atoms: N4_12  and  C5_13
REMARK    3  A    between atoms: C5_13  and  C6_14
REMARK    4  A    between atoms: C6_14  and  N5_15
REMARK    5  A    between atoms: N5_15  and  C7_18
REMARK    6  A    between atoms: C7_18  and  C8_19
REMARK    7  A    between atoms: C8_19  and  N6_20
REMARK    8  A    between atoms: N6_20  and  C9_22
REMARK    9  A    between atoms: C9_22  and  C10_23
REMARK   10  A    between atoms: C10_23  and  O1_24
REMARK   11  A    between atoms: C10_23  and  C11_26
REMARK   12  A    between atoms: C11_26  and  O2_27
REMARK   13  A    between atoms: O2_27  and  C12_28
ROOT
HETATM    1  N5  UNL     1      12.555 -65.497  21.782  1.00  0.00    -0.069 N
ATOM      2  H51 UNL     1      12.048 -65.123  20.980  1.00  0.00     0.277 HD
ATOM      3  H52 UNL     1      11.929 -66.268  22.016  1.00  0.00     0.277 HD
ENDROOT
BRANCH   1   4
HETATM    4  C6  UNL     1      12.637 -64.542  22.846  1.00  0.00     0.253 C
BRANCH   4   5
HETATM    5  C5  UNL     1      12.215 -63.153  22.438  1.00  0.00     0.158 C
BRANCH   5   6
HETATM    6  N4  UNL     1      13.219 -62.420  21.770  1.00  0.00    -0.330 N
HETATM    7  C2  UNL     1      12.956 -61.734  20.663  1.00  0.00     0.096 A
HETATM    8  C1  UNL     1      11.627 -61.630  20.090  1.00  0.00     0.090 C
HETATM    9  N1  UNL     1      13.943 -61.042  20.008  1.00  0.00    -0.181 N
HETATM   10  C3  UNL     1      15.205 -61.027  20.453  1.00  0.00     0.678 A
ATOM     11  H1  UNL     1      13.708 -60.525  19.160  1.00  0.00     0.185 HD
HETATM   12  N3  UNL     1      15.477 -61.717  21.569  1.00  0.00    -0.188 N
HETATM   13  C4  UNL     1      14.512 -62.405  22.227  1.00  0.00     0.202 A
ATOM     14  H3  UNL     1      16.430 -61.725  21.932  1.00  0.00     0.185 HD
BRANCH  10  15
HETATM   15  N2  UNL     1      16.132 -60.355  19.808  1.00  0.00    -0.234 N
ATOM     16  H22 UNL     1      16.924 -59.929  20.289  1.00  0.00     0.174 HD
ATOM     17  H21 UNL     1      16.080 -60.242  18.795  1.00  0.00     0.174 HD
ENDBRANCH  10  15
ENDBRANCH   5   6
ENDBRANCH   4   5
ENDBRANCH   1   4
BRANCH   1  18
HETATM   18  C7  UNL     1      13.884 -65.978  21.404  1.00  0.00     0.276 C
BRANCH  18  19
HETATM   19  C8  UNL     1      14.165 -67.197  22.236  1.00  0.00     0.082 C
BRANCH  19  20
HETATM   20  N6  UNL     1      13.121 -68.071  22.498  1.00  0.00    -0.398 N
ATOM     21  H6  UNL     1      12.635 -68.058  23.395  1.00  0.00     0.158 HD
BRANCH  20  22
HETATM   22  C9  UNL     1      12.751 -68.987  21.478  1.00  0.00     0.152 C
BRANCH  22  23
HETATM   23  C10 UNL     1      11.244 -68.847  21.196  1.00  0.00     0.160 C
BRANCH  23  24
HETATM   24  O1  UNL     1      11.013 -67.762  20.338  1.00  0.00    -0.392 OA
ATOM     25  H1  UNL     1      11.079 -68.043  19.432  1.00  0.00     0.210 HD
ENDBRANCH  23  24
BRANCH  23  26
HETATM   26  C11 UNL     1      10.479 -68.559  22.469  1.00  0.00     0.209 C
BRANCH  26  27
HETATM   27  O2  UNL     1      10.126 -67.206  22.477  1.00  0.00    -0.349 OA
BRANCH  27  28
HETATM   28  C12 UNL     1       9.053 -66.570  22.984  1.00  0.00     0.068 A
HETATM   29  C13 UNL     1       9.027 -65.406  23.696  1.00  0.00     0.037 A
HETATM   30  C14 UNL     1       7.859 -64.835  24.177  1.00  0.00     0.003 A
HETATM   31  C15 UNL     1       6.648 -65.435  23.949  1.00  0.00     0.000 A
HETATM   32  C16 UNL     1       6.638 -66.613  23.235  1.00  0.00     0.003 A
HETATM   33  C17 UNL     1       7.801 -67.172  22.761  1.00  0.00     0.037 A
ENDBRANCH  27  28
ENDBRANCH  26  27
ENDBRANCH  23  26
ENDBRANCH  22  23
ENDBRANCH  20  22
ENDBRANCH  19  20
ENDBRANCH  18  19
ENDBRANCH   1  18
TORSDOF 13
ENDMDL