MODEL 5
REMARK VINA RESULT: -5.614447563      1.911      2.787
REMARK  11 active torsions:
REMARK  status: ('A' for Active; 'I' for Inactive)
REMARK    1  A    between atoms: C2_2  and  O1_3
REMARK    2  A    between atoms: O1_3  and  C3_4
REMARK    3  A    between atoms: C3_4  and  C4_6
REMARK    4  A    between atoms: C4_6  and  N1_7
REMARK    5  A    between atoms: N1_7  and  C6_9
REMARK    6  A    between atoms: C7_12  and  N3_13
REMARK    7  A    between atoms: N3_13  and  C8_15
REMARK    8  A    between atoms: C8_15  and  N4_16
REMARK    9  A    between atoms: C8_15  and  C9_20
REMARK   10  A    between atoms: C11_30  and  N8_31
REMARK   11  A    between atoms: C12_34  and  N9_35
ROOT
HETATM    1  C6  UNL     1     -64.641 -21.091 -22.824  1.00  0.00     0.156 A
HETATM    2  N2  UNL     1     -63.569 -21.392 -22.037  1.00  0.00    -0.174 N
ATOM      3  H2  UNL     1     -63.713 -21.922 -21.177  1.00  0.00     0.186 HD
HETATM    4  C7  UNL     1     -62.305 -20.997 -22.377  1.00  0.00     0.683 A
HETATM    5  N7  UNL     1     -62.095 -20.307 -23.495  1.00  0.00    -0.174 N
ATOM      6  H7  UNL     1     -61.151 -20.013 -23.748  1.00  0.00     0.186 HD
HETATM    7  C11 UNL     1     -63.148 -19.995 -24.296  1.00  0.00     0.151 A
HETATM    8  C12 UNL     1     -64.458 -20.380 -23.981  1.00  0.00     0.191 A
ENDROOT
BRANCH   4   9
HETATM    9  N3  UNL     1     -61.328 -21.304 -21.619  1.00  0.00    -0.189 N
ATOM     10  H3  UNL     1     -61.398 -22.147 -21.049  1.00  0.00     0.180 HD
BRANCH   9  11
HETATM   11  C8  UNL     1     -60.140 -20.518 -21.534  1.00  0.00     0.373 C
BRANCH  11  12
HETATM   12  N4  UNL     1     -59.287 -21.251 -20.551  1.00  0.00    -0.050 N
ATOM     13  H43 UNL     1     -58.628 -20.659 -20.045  1.00  0.00     0.277 HD
ATOM     14  H42 UNL     1     -59.789 -21.586 -19.729  1.00  0.00     0.277 HD
ATOM     15  H41 UNL     1     -58.848 -21.989 -21.102  1.00  0.00     0.277 HD
ENDBRANCH  11  12
BRANCH  11  16
HETATM   16  C9  UNL     1     -60.402 -19.167 -20.946  1.00  0.00     0.194 A
HETATM   17  N5  UNL     1     -60.283 -18.838 -19.671  1.00  0.00    -0.276 N
HETATM   18  N6  UNL     1     -60.601 -17.551 -19.556  1.00  0.00    -0.243 N
ATOM     19  H5  UNL     1     -59.998 -19.458 -18.913  1.00  0.00     0.189 HD
HETATM   20  C10 UNL     1     -60.911 -17.127 -20.790  1.00  0.00     0.386 A
ATOM     21  H6  UNL     1     -60.608 -16.997 -18.700  1.00  0.00     0.192 HD
HETATM   22  O3  UNL     1     -61.264 -15.968 -21.095  1.00  0.00    -0.236 OA
HETATM   23  O4  UNL     1     -60.785 -18.120 -21.620  1.00  0.00    -0.241 OA
ENDBRANCH  11  16
ENDBRANCH   9  11
ENDBRANCH   4   9
BRANCH   1  24
HETATM   24  N1  UNL     1     -65.925 -21.511 -22.392  1.00  0.00    -0.360 N
HETATM   25  C5  UNL     1     -66.915 -20.653 -21.800  1.00  0.00     0.152 C
BRANCH  24  26
HETATM   26  C4  UNL     1     -66.354 -22.895 -22.592  1.00  0.00     0.235 C
BRANCH  26  27
HETATM   27  C3  UNL     1     -65.965 -23.737 -21.418  1.00  0.00     0.276 C
HETATM   28  O2  UNL     1     -66.831 -24.071 -20.574  1.00  0.00    -0.263 OA
BRANCH  27  29
HETATM   29  O1  UNL     1     -64.674 -24.167 -21.223  1.00  0.00    -0.321 OA
BRANCH  29  30
HETATM   30  C2  UNL     1     -64.057 -25.184 -22.003  1.00  0.00     0.174 C
HETATM   31  C1  UNL     1     -62.649 -24.820 -22.389  1.00  0.00     0.034 C
ENDBRANCH  29  30
ENDBRANCH  27  29
ENDBRANCH  26  27
ENDBRANCH  24  26
ENDBRANCH   1  24
BRANCH   7  32
HETATM   32  N8  UNL     1     -62.928 -19.333 -25.370  1.00  0.00    -0.383 N
ATOM     33  H82 UNL     1     -62.759 -19.834 -26.242  1.00  0.00     0.157 HD
ATOM     34  H81 UNL     1     -62.926 -18.314 -25.325  1.00  0.00     0.157 HD
ENDBRANCH   7  32
BRANCH   8  35
HETATM   35  N9  UNL     1     -65.464 -19.976 -24.882  1.00  0.00    -0.108 N
HETATM   36  O5  UNL     1     -66.071 -18.894 -24.787  1.00  0.00    -0.531 OA
HETATM   37  O6  UNL     1     -65.777 -20.792 -25.936  1.00  0.00    -0.531 OA
ENDBRANCH   8  35
TORSDOF 11
ENDMDL