MODEL 4
REMARK VINA RESULT: -5.856820212      1.843      2.300
REMARK  10 active torsions:
REMARK  status: ('A' for Active; 'I' for Inactive)
REMARK    1  A    between atoms: C2_2  and  C3_3
REMARK    2  A    between atoms: C3_3  and  O2_5
REMARK    3  A    between atoms: O2_5  and  C4_6
REMARK    4  A    between atoms: C4_6  and  C6_8
REMARK    5  A    between atoms: C6_8  and  C7_9
REMARK    6  A    between atoms: C6_8  and  N4_18
REMARK    7  A    between atoms: C7_9  and  N1_10
REMARK    8  A    between atoms: C7_9  and  N2_14
REMARK    9  A    between atoms: N5_21  and  C11_22
REMARK   10  A    between atoms: C14_28  and  N8_29
ROOT
HETATM    1  N2  UNL     1     -61.895 -23.010 -22.406  1.00  0.00    -0.298 N
ATOM      2  H2  UNL     1     -61.144 -22.513 -21.926  1.00  0.00     0.173 HD
HETATM    3  C8  UNL     1     -61.594 -24.228 -23.027  1.00  0.00     0.179 C
HETATM    4  N3  UNL     1     -61.347 -25.261 -23.531  1.00  0.00    -0.172 NA
ENDROOT
BRANCH   1   5
HETATM    5  C7  UNL     1     -63.211 -22.422 -22.411  1.00  0.00     0.316 C
BRANCH   5   6
HETATM    6  C6  UNL     1     -63.200 -20.996 -22.925  1.00  0.00     0.167 C
BRANCH   6   7
HETATM    7  C4  UNL     1     -62.033 -20.207 -22.379  1.00  0.00     0.154 C
HETATM    8  C5  UNL     1     -61.203 -19.617 -23.531  1.00  0.00     0.042 C
BRANCH   7   9
HETATM    9  O2  UNL     1     -62.398 -19.120 -21.593  1.00  0.00    -0.314 OA
BRANCH   9  10
HETATM   10  C3  UNL     1     -61.825 -18.881 -20.376  1.00  0.00     0.258 C
HETATM   11  O1  UNL     1     -62.154 -19.636 -19.406  1.00  0.00    -0.265 OA
BRANCH  10  12
HETATM   12  C2  UNL     1     -60.844 -17.792 -20.134  1.00  0.00     0.106 C
HETATM   13  C1  UNL     1     -61.250 -16.558 -20.906  1.00  0.00     0.015 C
ENDBRANCH  10  12
ENDBRANCH   9  10
ENDBRANCH   7   9
ENDBRANCH   6   7
BRANCH   6  14
HETATM   14  N4  UNL     1     -64.434 -20.342 -22.886  1.00  0.00    -0.360 N
HETATM   15  C9  UNL     1     -65.001 -19.797 -24.034  1.00  0.00     0.083 C
HETATM   16  C10 UNL     1     -66.062 -18.768 -23.817  1.00  0.00     0.169 C
HETATM   17  N5  UNL     1     -66.323 -18.436 -22.435  1.00  0.00    -0.357 N
HETATM   18  C15 UNL     1     -65.722 -19.089 -21.314  1.00  0.00     0.169 C
HETATM   19  C16 UNL     1     -65.213 -20.455 -21.723  1.00  0.00     0.083 C
BRANCH  17  20
HETATM   20  C11 UNL     1     -67.252 -17.381 -22.204  1.00  0.00     0.122 A
HETATM   21  C12 UNL     1     -67.502 -16.930 -20.935  1.00  0.00     0.094 A
HETATM   22  C13 UNL     1     -68.421 -15.902 -20.729  1.00  0.00     0.135 A
HETATM   23  N6  UNL     1     -68.681 -15.433 -19.406  1.00  0.00    -0.082 NA
HETATM   24  N7  UNL     1     -69.051 -15.363 -21.767  1.00  0.00    -0.179 N
HETATM   25  C14 UNL     1     -68.815 -15.796 -23.019  1.00  0.00     0.678 A
ATOM     26  H7  UNL     1     -69.723 -14.612 -21.612  1.00  0.00     0.185 HD
HETATM   27  N9  UNL     1     -67.928 -16.787 -23.212  1.00  0.00    -0.177 N
ATOM     28  H9  UNL     1     -67.758 -17.107 -24.166  1.00  0.00     0.185 HD
BRANCH  25  29
HETATM   29  N8  UNL     1     -69.469 -15.219 -23.971  1.00  0.00    -0.234 N
ATOM     30  H82 UNL     1     -70.311 -15.606 -24.399  1.00  0.00     0.174 HD
ATOM     31  H81 UNL     1     -69.111 -14.324 -24.303  1.00  0.00     0.174 HD
ENDBRANCH  25  29
ENDBRANCH  17  20
ENDBRANCH   6  14
ENDBRANCH   5   6
BRANCH   5  32
HETATM   32  N1  UNL     1     -64.040 -23.270 -23.264  1.00  0.00    -0.056 N
ATOM     33  H13 UNL     1     -63.610 -23.426 -24.176  1.00  0.00     0.276 HD
ATOM     34  H12 UNL     1     -64.055 -24.236 -22.936  1.00  0.00     0.276 HD
ATOM     35  H11 UNL     1     -64.980 -22.884 -23.349  1.00  0.00     0.276 HD
ENDBRANCH   5  32
ENDBRANCH   1   5
TORSDOF 10
ENDMDL