MODEL 1
REMARK VINA RESULT: -5.356112344      0.000      0.000
REMARK  12 active torsions:
REMARK  status: ('A' for Active; 'I' for Inactive)
REMARK    1  A    between atoms: O1_2  and  C2_3
REMARK    2  A    between atoms: C2_3  and  C3_5
REMARK    3  A    between atoms: C3_5  and  N1_6
REMARK    4  A    between atoms: C6_12  and  C7_13
REMARK       I    between atoms: C7_13  and  N2_15
REMARK    5  A    between atoms: N2_15  and  C8_17
REMARK    6  A    between atoms: C8_17  and  C9_18
REMARK    7  A    between atoms: C8_17  and  C13_28
REMARK       I    between atoms: C9_18  and  N3_20
REMARK    8  A    between atoms: N3_20  and  C10_21
REMARK    9  A    between atoms: N3_20  and  N4_24
REMARK   10  A    between atoms: C10_21  and  S1_22
REMARK   11  A    between atoms: C13_28  and  O5_29
REMARK   12  A    between atoms: N6_31  and  O6_33
ROOT
HETATM    1  N4  UNL     1     -66.030 -23.102 -23.092  1.00  0.00    -0.227 N
ATOM      2  H4  UNL     1     -66.343 -23.535 -23.960  1.00  0.00     0.200 HD
HETATM    3  C12 UNL     1     -65.800 -23.881 -21.961  1.00  0.00     0.198 C
HETATM    4  N5  UNL     1     -65.586 -24.545 -21.014  1.00  0.00    -0.170 NA
ENDROOT
BRANCH   1   5
HETATM    5  N3  UNL     1     -65.822 -21.688 -23.023  1.00  0.00    -0.218 N
HETATM    6  C9  UNL     1     -65.145 -21.077 -24.084  1.00  0.00     0.274 C
HETATM    7  O4  UNL     1     -64.740 -21.809 -25.056  1.00  0.00    -0.268 OA
BRANCH   6   8
HETATM    8  C8  UNL     1     -64.831 -19.624 -24.203  1.00  0.00     0.256 C
BRANCH   8   9
HETATM    9  N2  UNL     1     -63.528 -19.482 -23.529  1.00  0.00    -0.340 N
HETATM   10  C7  UNL     1     -63.378 -18.736 -22.337  1.00  0.00     0.231 C
HETATM   11  O3  UNL     1     -64.367 -18.159 -21.796  1.00  0.00    -0.273 OA
ATOM     12  H2  UNL     1     -62.709 -19.936 -23.935  1.00  0.00     0.163 HD
BRANCH  10  13
HETATM   13  C6  UNL     1     -62.042 -18.639 -21.723  1.00  0.00     0.091 A
HETATM   14  C3  UNL     1     -61.788 -19.427 -20.501  1.00  0.00     0.231 A
HETATM   15  C4  UNL     1     -61.762 -17.861 -20.503  1.00  0.00     0.055 A
HETATM   16  C5  UNL     1     -61.467 -17.214 -21.801  1.00  0.00     0.032 A
BRANCH  14  17
HETATM   17  C2  UNL     1     -60.411 -19.944 -20.227  1.00  0.00     0.296 C
HETATM   18  O2  UNL     1     -60.019 -20.279 -19.087  1.00  0.00    -0.262 OA
BRANCH  17  19
HETATM   19  O1  UNL     1     -59.527 -20.059 -21.275  1.00  0.00    -0.324 OA
HETATM   20  C1  UNL     1     -58.878 -21.241 -21.675  1.00  0.00     0.213 C
ENDBRANCH  17  19
ENDBRANCH  14  17
BRANCH  14  21
HETATM   21  N1  UNL     1     -62.810 -20.031 -19.717  1.00  0.00    -0.059 N
ATOM     22  H13 UNL     1     -62.405 -20.675 -19.038  1.00  0.00     0.275 HD
ATOM     23  H12 UNL     1     -63.222 -19.346 -19.083  1.00  0.00     0.275 HD
ATOM     24  H11 UNL     1     -63.539 -20.497 -20.258  1.00  0.00     0.275 HD
ENDBRANCH  14  21
ENDBRANCH  10  13
ENDBRANCH   8   9
BRANCH   8  25
HETATM   25  C13 UNL     1     -64.585 -19.216 -25.598  1.00  0.00     0.168 C
HETATM   26  N6  UNL     1     -65.536 -18.780 -26.341  1.00  0.00    -0.249 N
ATOM     27  H6  UNL     1     -66.473 -18.721 -25.943  1.00  0.00     0.196 HD
BRANCH  25  28
HETATM   28  O5  UNL     1     -63.332 -19.286 -26.162  1.00  0.00    -0.346 OA
ATOM     29  H5  UNL     1     -63.091 -18.752 -26.910  1.00  0.00     0.219 HD
ENDBRANCH  25  28
BRANCH  26  30
HETATM   30  O6  UNL     1     -65.356 -18.389 -27.647  1.00  0.00    -0.288 OA
ATOM     31  H6  UNL     1     -66.073 -18.157 -28.226  1.00  0.00     0.244 HD
ENDBRANCH  26  30
ENDBRANCH   8  25
ENDBRANCH   6   8
BRANCH   5  32
HETATM   32  C10 UNL     1     -66.304 -20.980 -21.887  1.00  0.00     0.164 C
BRANCH  32  33
HETATM   33  S1  UNL     1     -67.954 -20.312 -22.041  1.00  0.00    -0.127 SA
HETATM   34  C11 UNL     1     -67.906 -18.489 -22.163  1.00  0.00     0.096 C
ENDBRANCH  32  33
ENDBRANCH   5  32
ENDBRANCH   1   5
TORSDOF 12
ENDMDL