MODEL 2
REMARK VINA RESULT: -5.842176962      1.180      1.692
REMARK  11 active torsions:
REMARK  status: ('A' for Active; 'I' for Inactive)
REMARK    1  A    between atoms: C2_2  and  O1_3
REMARK    2  A    between atoms: O1_3  and  C3_4
REMARK       I    between atoms: C3_4  and  N1_6
REMARK       I    between atoms: N1_6  and  C4_8
REMARK    3  A    between atoms: C4_8  and  C5_10
REMARK    4  A    between atoms: C5_10  and  O4_11
REMARK    5  A    between atoms: C5_10  and  C12_26
REMARK    6  A    between atoms: O4_11  and  C6_12
REMARK    7  A    between atoms: C6_12  and  C7_14
REMARK    8  A    between atoms: C7_14  and  O6_15
REMARK    9  A    between atoms: N2_21  and  O7_23
REMARK   10  A    between atoms: C12_26  and  O9_27
REMARK   11  A    between atoms: C12_26  and  C13_29
REMARK       I    between atoms: C13_29  and  N3_31
ROOT
HETATM    1  C5  UNL     1     -63.723 -21.300 -21.522  1.00  0.00     0.262 C
ENDROOT
BRANCH   1   2
HETATM    2  C4  UNL     1     -65.184 -21.547 -21.506  1.00  0.00     0.258 C
HETATM    3  N1  UNL     1     -66.106 -20.513 -21.683  1.00  0.00    -0.271 N
HETATM    4  C3  UNL     1     -67.529 -20.751 -21.653  1.00  0.00     0.367 C
ATOM      5  H1  UNL     1     -65.765 -19.564 -21.838  1.00  0.00     0.174 HD
HETATM    6  O2  UNL     1     -68.333 -19.804 -21.814  1.00  0.00    -0.238 OA
HETATM    7  O3  UNL     1     -65.589 -22.717 -21.329  1.00  0.00    -0.270 OA
BRANCH   4   8
HETATM    8  O1  UNL     1     -67.958 -22.052 -21.440  1.00  0.00    -0.304 OA
BRANCH   8   9
HETATM    9  C2  UNL     1     -69.031 -22.243 -20.537  1.00  0.00     0.176 C
HETATM   10  C1  UNL     1     -68.574 -23.126 -19.404  1.00  0.00     0.034 C
ENDBRANCH   8   9
ENDBRANCH   4   8
ENDBRANCH   1   2
BRANCH   1  11
HETATM   11  O4  UNL     1     -63.469 -19.895 -21.431  1.00  0.00    -0.299 OA
BRANCH  11  12
HETATM   12  C6  UNL     1     -63.110 -19.092 -22.475  1.00  0.00     0.323 C
HETATM   13  O5  UNL     1     -64.023 -18.890 -23.349  1.00  0.00    -0.259 OA
BRANCH  12  14
HETATM   14  C7  UNL     1     -61.786 -18.497 -22.614  1.00  0.00     0.259 C
HETATM   15  C8  UNL     1     -61.506 -17.266 -21.835  1.00  0.00     0.080 C
HETATM   16  C9  UNL     1     -61.300 -17.503 -20.363  1.00  0.00     0.014 C
HETATM   17  C10 UNL     1     -60.270 -18.550 -20.077  1.00  0.00     0.086 C
HETATM   18  C11 UNL     1     -60.425 -19.731 -20.964  1.00  0.00     0.141 C
HETATM   19  N2  UNL     1     -60.239 -20.924 -20.515  1.00  0.00    -0.251 N
HETATM   20  O8  UNL     1     -60.777 -19.465 -22.280  1.00  0.00    -0.290 OA
ATOM     21  H2  UNL     1     -60.346 -21.734 -21.125  1.00  0.00     0.196 HD
BRANCH  14  22
HETATM   22  O6  UNL     1     -61.548 -18.231 -23.983  1.00  0.00    -0.357 OA
ATOM     23  H6  UNL     1     -61.927 -17.388 -24.202  1.00  0.00     0.213 HD
ENDBRANCH  14  22
BRANCH  19  24
HETATM   24  O7  UNL     1     -59.894 -21.077 -19.201  1.00  0.00    -0.288 OA
ATOM     25  H7  UNL     1     -60.531 -21.460 -18.609  1.00  0.00     0.244 HD
ENDBRANCH  19  24
ENDBRANCH  12  14
ENDBRANCH  11  12
ENDBRANCH   1  11
BRANCH   1  26
HETATM   26  C12 UNL     1     -63.187 -21.818 -22.835  1.00  0.00     0.248 C
BRANCH  26  27
HETATM   27  O9  UNL     1     -64.191 -22.036 -23.782  1.00  0.00    -0.383 OA
ATOM     28  H9  UNL     1     -64.055 -22.828 -24.288  1.00  0.00     0.210 HD
ENDBRANCH  26  27
BRANCH  26  29
HETATM   29  C13 UNL     1     -62.452 -23.085 -22.669  1.00  0.00     0.249 C
HETATM   30  O10 UNL     1     -61.199 -23.164 -22.548  1.00  0.00    -0.271 OA
HETATM   31  N3  UNL     1     -63.132 -24.342 -22.637  1.00  0.00    -0.363 N
HETATM   32  C14 UNL     1     -62.460 -25.610 -22.477  1.00  0.00     0.149 C
ATOM     33  H3  UNL     1     -64.147 -24.344 -22.732  1.00  0.00     0.162 HD
ENDBRANCH  26  29
ENDBRANCH   1  26
TORSDOF 11
ENDMDL