MODEL 4
REMARK VINA RESULT: -6.215721430      1.264      1.508
REMARK  10 active torsions:
REMARK  status: ('A' for Active; 'I' for Inactive)
REMARK    1  A    between atoms: O1_2  and  C2_3
REMARK    2  A    between atoms: C2_3  and  C3_5
REMARK    3  A    between atoms: C3_5  and  C4_6
REMARK    4  A    between atoms: C3_5  and  C12_25
REMARK       I    between atoms: C4_6  and  N1_8
REMARK    5  A    between atoms: N1_8  and  C5_10
REMARK    6  A    between atoms: C5_10  and  C6_11
REMARK    7  A    between atoms: C6_11  and  O5_13
REMARK    8  A    between atoms: O5_13  and  C7_14
REMARK    9  A    between atoms: C7_14  and  C8_15
REMARK   10  A    between atoms: C13_31  and  N6_32
ROOT
HETATM    1  C4  UNL     1     -63.163 -19.216 -22.416  1.00  0.00     0.237 C
HETATM    2  O3  UNL     1     -64.036 -18.376 -22.084  1.00  0.00    -0.272 OA
HETATM    3  N1  UNL     1     -63.300 -20.000 -23.589  1.00  0.00    -0.351 N
ATOM      4  H1  UNL     1     -62.564 -20.668 -23.819  1.00  0.00     0.163 HD
ENDROOT
BRANCH   1   5
HETATM    5  C3  UNL     1     -61.962 -19.391 -21.564  1.00  0.00     0.232 C
BRANCH   5   6
HETATM    6  C2  UNL     1     -60.906 -20.025 -22.392  1.00  0.00     0.277 C
HETATM    7  O2  UNL     1     -60.562 -19.430 -23.450  1.00  0.00    -0.264 OA
BRANCH   6   8
HETATM    8  O1  UNL     1     -60.286 -21.219 -22.066  1.00  0.00    -0.326 OA
HETATM    9  C1  UNL     1     -59.115 -21.185 -21.297  1.00  0.00     0.213 C
ENDBRANCH   6   8
ENDBRANCH   5   6
BRANCH   5  10
HETATM   10  C12 UNL     1     -61.513 -18.039 -21.110  1.00  0.00     0.102 A
HETATM   11  N4  UNL     1     -61.604 -16.895 -21.793  1.00  0.00    -0.241 N
HETATM   12  O6  UNL     1     -61.107 -15.935 -21.070  1.00  0.00    -0.155 OA
ATOM     13  H4  UNL     1     -61.997 -16.792 -22.729  1.00  0.00     0.196 HD
HETATM   14  N5  UNL     1     -60.693 -16.427 -19.927  1.00  0.00    -0.224 N
HETATM   15  C13 UNL     1     -60.924 -17.755 -19.897  1.00  0.00     0.147 A
ATOM     16  H5  UNL     1     -60.262 -15.887 -19.177  1.00  0.00     0.198 HD
BRANCH  15  17
HETATM   17  N6  UNL     1     -60.672 -18.605 -18.974  1.00  0.00    -0.382 N
ATOM     18  H62 UNL     1     -60.905 -18.574 -17.982  1.00  0.00     0.157 HD
ATOM     19  H61 UNL     1     -60.176 -19.487 -19.098  1.00  0.00     0.157 HD
ENDBRANCH  15  17
ENDBRANCH   5  10
ENDBRANCH   1   5
BRANCH   3  20
HETATM   20  C5  UNL     1     -64.428 -19.897 -24.467  1.00  0.00     0.233 C
BRANCH  20  21
HETATM   21  C6  UNL     1     -65.658 -20.527 -23.854  1.00  0.00     0.276 C
HETATM   22  O4  UNL     1     -65.676 -21.721 -23.529  1.00  0.00    -0.263 OA
BRANCH  21  23
HETATM   23  O5  UNL     1     -66.734 -19.756 -23.669  1.00  0.00    -0.319 OA
BRANCH  23  24
HETATM   24  C7  UNL     1     -66.999 -18.453 -23.979  1.00  0.00     0.201 C
BRANCH  24  25
HETATM   25  C8  UNL     1     -67.912 -17.730 -23.067  1.00  0.00     0.050 C
HETATM   26  C9  UNL     1     -69.032 -18.595 -22.532  1.00  0.00     0.031 C
HETATM   27  C10 UNL     1     -68.596 -16.569 -23.871  1.00  0.00     0.144 C
HETATM   28  N2  UNL     1     -69.182 -15.691 -22.918  1.00  0.00    -0.369 N
HETATM   29  C11 UNL     1     -68.313 -15.355 -21.861  1.00  0.00     0.134 C
ATOM     30  H2  UNL     1     -70.137 -15.340 -22.992  1.00  0.00     0.161 HD
HETATM   31  N3  UNL     1     -68.299 -14.336 -21.122  1.00  0.00    -0.380 N
HETATM   32  S1  UNL     1     -67.175 -16.729 -21.772  1.00  0.00    -0.081 SA
ATOM     33  H32 UNL     1     -68.948 -13.551 -21.172  1.00  0.00     0.158 HD
ATOM     34  H31 UNL     1     -67.669 -14.092 -20.357  1.00  0.00     0.158 HD
ENDBRANCH  24  25
ENDBRANCH  23  24
ENDBRANCH  21  23
ENDBRANCH  20  21
ENDBRANCH   3  20
TORSDOF 10
ENDMDL