MODEL 1
REMARK VINA RESULT: -6.101217598      0.000      0.000
REMARK  11 active torsions:
REMARK  status: ('A' for Active; 'I' for Inactive)
REMARK    1  A    between atoms: C2_2  and  O1_3
REMARK    2  A    between atoms: O1_3  and  C3_4
REMARK       I    between atoms: C3_4  and  N1_6
REMARK    3  A    between atoms: N1_6  and  C4_8
REMARK    4  A    between atoms: C4_8  and  C6_10
REMARK    5  A    between atoms: C6_10  and  O3_11
REMARK    6  A    between atoms: C6_10  and  C7_13
REMARK    7  A    between atoms: C7_13  and  O4_14
REMARK    8  A    between atoms: C7_13  and  N2_16
REMARK    9  A    between atoms: N2_16  and  C8_18
REMARK   10  A    between atoms: C10_22  and  S1_23
REMARK   11  A    between atoms: S1_23  and  N4_26
REMARK       I    between atoms: N4_26  and  C11_28
ROOT
HETATM    1  N2  UNL     1     -60.530 -21.512 -21.592  1.00  0.00    -0.327 N
ATOM      2  H2  UNL     1     -60.242 -22.319 -21.037  1.00  0.00     0.165 HD
ENDROOT
BRANCH   1   3
HETATM    3  C7  UNL     1     -59.805 -20.256 -21.458  1.00  0.00     0.251 C
BRANCH   3   4
HETATM    4  C6  UNL     1     -60.030 -19.739 -20.079  1.00  0.00     0.189 C
BRANCH   4   5
HETATM    5  C4  UNL     1     -61.168 -18.761 -19.950  1.00  0.00     0.115 C
HETATM    6  C5  UNL     1     -60.726 -17.456 -20.578  1.00  0.00     0.035 C
BRANCH   5   7
HETATM    7  N1  UNL     1     -62.337 -19.287 -20.625  1.00  0.00    -0.330 N
HETATM    8  C3  UNL     1     -63.348 -20.015 -19.960  1.00  0.00     0.360 C
HETATM    9  O2  UNL     1     -63.320 -20.269 -18.723  1.00  0.00    -0.239 OA
ATOM     10  H1  UNL     1     -62.434 -19.123 -21.626  1.00  0.00     0.165 HD
BRANCH   8  11
HETATM   11  O1  UNL     1     -64.450 -20.500 -20.643  1.00  0.00    -0.304 OA
BRANCH  11  12
HETATM   12  C2  UNL     1     -65.235 -19.701 -21.507  1.00  0.00     0.176 C
HETATM   13  C1  UNL     1     -66.571 -20.349 -21.801  1.00  0.00     0.034 C
ENDBRANCH  11  12
ENDBRANCH   8  11
ENDBRANCH   5   7
ENDBRANCH   4   5
BRANCH   4  14
HETATM   14  O3  UNL     1     -60.236 -20.831 -19.221  1.00  0.00    -0.389 OA
ATOM     15  H3  UNL     1     -59.912 -21.628 -19.625  1.00  0.00     0.210 HD
ENDBRANCH   4  14
ENDBRANCH   3   4
BRANCH   3  16
HETATM   16  O4  UNL     1     -58.444 -20.604 -21.647  1.00  0.00    -0.374 OA
ATOM     17  H4  UNL     1     -57.905 -19.825 -21.720  1.00  0.00     0.212 HD
ENDBRANCH   3  16
ENDBRANCH   1   3
BRANCH   1  18
HETATM   18  C8  UNL     1     -61.539 -21.625 -22.405  1.00  0.00     0.227 A
HETATM   19  N3  UNL     1     -62.492 -22.576 -22.448  1.00  0.00    -0.329 N
HETATM   20  C9  UNL     1     -63.306 -22.231 -23.479  1.00  0.00     0.143 A
ATOM     21  H3  UNL     1     -62.582 -23.387 -21.835  1.00  0.00     0.168 HD
HETATM   22  C10 UNL     1     -62.832 -21.083 -24.037  1.00  0.00     0.209 A
HETATM   23  O8  UNL     1     -61.767 -20.749 -23.361  1.00  0.00    -0.264 OA
BRANCH  22  24
HETATM   24  S1  UNL     1     -63.442 -20.152 -25.388  1.00  0.00     0.289 S
HETATM   25  O5  UNL     1     -62.763 -18.821 -25.461  1.00  0.00    -0.198 OA
HETATM   26  O6  UNL     1     -63.233 -20.945 -26.646  1.00  0.00    -0.198 OA
BRANCH  24  27
HETATM   27  N4  UNL     1     -65.131 -19.912 -25.107  1.00  0.00    -0.249 N
HETATM   28  C11 UNL     1     -65.859 -19.054 -25.961  1.00  0.00     0.227 C
HETATM   29  C12 UNL     1     -67.315 -18.769 -25.818  1.00  0.00     0.118 C
HETATM   30  O7  UNL     1     -65.250 -18.490 -26.908  1.00  0.00    -0.273 OA
ATOM     31  H4  UNL     1     -65.597 -20.385 -24.333  1.00  0.00     0.182 HD
ENDBRANCH  24  27
ENDBRANCH  22  24
ENDBRANCH   1  18
TORSDOF 11
ENDMDL