MODEL 5
REMARK VINA RESULT: -6.236469116      1.602      2.609
REMARK  7 active torsions:
REMARK  status: ('A' for Active; 'I' for Inactive)
REMARK    1  A    between atoms: C2_5  and  N3_6
REMARK    2  A    between atoms: N3_6  and  N4_8
REMARK    3  A    between atoms: N5_10  and  C3_12
REMARK    4  A    between atoms: C7_22  and  S2_23
REMARK    5  A    between atoms: S2_23  and  N8_26
REMARK    6  A    between atoms: N8_26  and  C8_28
REMARK    7  A    between atoms: C8_28  and  C9_29
ROOT
HETATM    1  N1  UNL     1     -63.347 -20.397 -19.054  1.00  0.00    -0.080 NA
HETATM    2  C1  UNL     1     -63.508 -19.846 -20.330  1.00  0.00     0.161 A
HETATM    3  N2  UNL     1     -64.651 -19.915 -21.025  1.00  0.00    -0.176 N
ATOM      4  H2  UNL     1     -65.455 -20.392 -20.617  1.00  0.00     0.185 HD
HETATM    5  C2  UNL     1     -64.760 -19.372 -22.247  1.00  0.00     0.702 A
HETATM    6  N7  UNL     1     -63.742 -18.731 -22.842  1.00  0.00    -0.153 N
ATOM      7  H7  UNL     1     -63.856 -18.328 -23.772  1.00  0.00     0.187 HD
HETATM    8  C6  UNL     1     -62.577 -18.632 -22.193  1.00  0.00     0.286 A
HETATM    9  O1  UNL     1     -61.630 -18.017 -22.790  1.00  0.00    -0.266 OA
HETATM   10  C7  UNL     1     -62.442 -19.182 -20.939  1.00  0.00     0.189 A
ENDROOT
BRANCH   5  11
HETATM   11  N3  UNL     1     -65.870 -19.454 -22.890  1.00  0.00    -0.117 N
ATOM     12  H3  UNL     1     -65.949 -18.971 -23.785  1.00  0.00     0.207 HD
BRANCH  11  13
HETATM   13  N4  UNL     1     -66.959 -20.164 -22.429  1.00  0.00    -0.226 N
HETATM   14  N5  UNL     1     -68.036 -19.649 -21.998  1.00  0.00    -0.265 N
ATOM     15  H5  UNL     1     -68.816 -20.217 -21.667  1.00  0.00     0.190 HD
ATOM     16  H4  UNL     1     -66.895 -21.182 -22.435  1.00  0.00     0.209 HD
BRANCH  14  17
HETATM   17  C3  UNL     1     -68.083 -18.206 -22.007  1.00  0.00     0.164 A
HETATM   18  N6  UNL     1     -67.680 -17.419 -21.023  1.00  0.00    -0.345 N
HETATM   19  C4  UNL     1     -67.771 -16.135 -21.143  1.00  0.00     0.097 A
ATOM     20  H6  UNL     1     -67.298 -17.825 -20.169  1.00  0.00     0.167 HD
HETATM   21  C5  UNL     1     -68.292 -15.638 -22.309  1.00  0.00     0.070 A
HETATM   22  S1  UNL     1     -68.624 -17.085 -23.172  1.00  0.00    -0.063 SA
ENDBRANCH  14  17
ENDBRANCH  11  13
ENDBRANCH   5  11
BRANCH  10  23
HETATM   23  S2  UNL     1     -60.906 -19.033 -20.136  1.00  0.00     0.268 S
HETATM   24  O2  UNL     1     -61.168 -18.559 -18.719  1.00  0.00    -0.200 OA
HETATM   25  O3  UNL     1     -60.036 -17.993 -20.778  1.00  0.00    -0.200 OA
BRANCH  23  26
HETATM   26  N8  UNL     1     -60.153 -20.562 -20.071  1.00  0.00    -0.305 N
ATOM     27  H8  UNL     1     -59.665 -20.905 -19.243  1.00  0.00     0.172 HD
BRANCH  26  28
HETATM   28  C8  UNL     1     -60.265 -21.321 -21.276  1.00  0.00     0.245 C
BRANCH  28  29
HETATM   29  C9  UNL     1     -59.138 -21.082 -22.210  1.00  0.00     0.191 C
HETATM   30  O4  UNL     1     -59.262 -20.255 -23.129  1.00  0.00    -0.647 OA
HETATM   31  O5  UNL     1     -57.955 -21.778 -22.056  1.00  0.00    -0.647 OA
ENDBRANCH  28  29
ENDBRANCH  26  28
ENDBRANCH  23  26
ENDBRANCH  10  23
TORSDOF 7
ENDMDL