MODEL 5
REMARK VINA RESULT: -5.755554075      1.799      1.914
REMARK  13 active torsions:
REMARK  status: ('A' for Active; 'I' for Inactive)
REMARK    1  A    between atoms: O1_2  and  C2_3
REMARK    2  A    between atoms: C2_3  and  C3_5
REMARK    3  A    between atoms: C5_7  and  O3_8
REMARK    4  A    between atoms: C7_10  and  O4_11
REMARK    5  A    between atoms: C8_13  and  C9_14
REMARK    6  A    between atoms: C9_14  and  C10_16
REMARK    7  A    between atoms: C10_16  and  N1_17
REMARK    8  A    between atoms: C10_16  and  C11_29
REMARK    9  A    between atoms: N1_17  and  S1_19
REMARK   10  A    between atoms: S1_19  and  N2_20
REMARK   11  A    between atoms: S1_19  and  N3_24
REMARK   12  A    between atoms: N3_24  and  N4_26
REMARK   13  A    between atoms: C11_29  and  O8_31
ROOT
HETATM    1  C10 UNL     1     -61.953 -19.451 -20.859  1.00  0.00     0.267 C
ENDROOT
BRANCH   1   2
HETATM    2  C9  UNL     1     -63.398 -19.694 -20.887  1.00  0.00     0.195 C
HETATM    3  O5  UNL     1     -63.862 -20.336 -19.880  1.00  0.00    -0.289 OA
BRANCH   2   4
HETATM    4  C8  UNL     1     -64.365 -19.315 -21.885  1.00  0.00     0.049 A
HETATM    5  C7  UNL     1     -64.432 -19.818 -23.175  1.00  0.00     0.113 A
HETATM    6  C5  UNL     1     -65.398 -19.433 -24.092  1.00  0.00     0.103 A
HETATM    7  C4  UNL     1     -66.347 -18.512 -23.733  1.00  0.00     0.057 A
HETATM    8  C3  UNL     1     -66.331 -17.981 -22.478  1.00  0.00     0.043 A
HETATM    9  C13 UNL     1     -65.370 -18.379 -21.600  1.00  0.00     0.035 A
BRANCH   5  10
HETATM   10  O4  UNL     1     -63.506 -20.744 -23.598  1.00  0.00    -0.357 OA
ATOM     11  H4  UNL     1     -63.500 -21.582 -23.150  1.00  0.00     0.217 HD
ENDBRANCH   5  10
BRANCH   6  12
HETATM   12  O3  UNL     1     -65.428 -19.963 -25.371  1.00  0.00    -0.353 OA
HETATM   13  C6  UNL     1     -65.011 -19.198 -26.482  1.00  0.00     0.210 C
ENDBRANCH   6  12
BRANCH   8  14
HETATM   14  C2  UNL     1     -67.342 -16.988 -22.069  1.00  0.00     0.293 C
HETATM   15  O2  UNL     1     -67.868 -16.262 -22.938  1.00  0.00    -0.259 OA
BRANCH  14  16
HETATM   16  O1  UNL     1     -67.718 -16.841 -20.752  1.00  0.00    -0.323 OA
HETATM   17  C1  UNL     1     -68.651 -15.902 -20.293  1.00  0.00     0.213 C
ENDBRANCH  14  16
ENDBRANCH   8  14
ENDBRANCH   2   4
ENDBRANCH   1   2
BRANCH   1  18
HETATM   18  N1  UNL     1     -61.251 -20.639 -21.384  1.00  0.00    -0.297 N
ATOM     19  H1  UNL     1     -61.697 -21.368 -21.943  1.00  0.00     0.173 HD
BRANCH  18  20
HETATM   20  S1  UNL     1     -59.588 -20.646 -20.939  1.00  0.00     0.206 S
HETATM   21  O6  UNL     1     -59.322 -19.302 -20.286  1.00  0.00    -0.205 OA
BRANCH  20  22
HETATM   22  N2  UNL     1     -59.311 -21.704 -19.814  1.00  0.00    -0.328 N
ATOM     23  H22 UNL     1     -58.632 -21.567 -19.065  1.00  0.00     0.169 HD
ATOM     24  H21 UNL     1     -59.894 -22.531 -19.937  1.00  0.00     0.169 HD
ENDBRANCH  20  22
BRANCH  20  25
HETATM   25  N3  UNL     1     -58.527 -20.827 -22.252  1.00  0.00    -0.234 N
ATOM     26  H3  UNL     1     -58.730 -20.463 -23.183  1.00  0.00     0.199 HD
BRANCH  25  27
HETATM   27  N4  UNL     1     -57.351 -21.519 -21.946  1.00  0.00    -0.336 N
ATOM     28  H42 UNL     1     -56.781 -21.284 -21.133  1.00  0.00     0.177 HD
ATOM     29  H41 UNL     1     -57.123 -22.266 -22.602  1.00  0.00     0.177 HD
ENDBRANCH  25  27
ENDBRANCH  20  25
ENDBRANCH  18  20
ENDBRANCH   1  18
BRANCH   1  30
HETATM   30  C11 UNL     1     -61.684 -18.384 -21.877  1.00  0.00     0.289 C
HETATM   31  O7  UNL     1     -61.211 -18.766 -22.998  1.00  0.00    -0.262 OA
BRANCH  30  32
HETATM   32  O8  UNL     1     -61.911 -17.041 -21.686  1.00  0.00    -0.325 OA
HETATM   33  C12 UNL     1     -61.310 -16.404 -20.574  1.00  0.00     0.213 C
ENDBRANCH  30  32
ENDBRANCH   1  30
TORSDOF 13
ENDMDL