MODEL 3
REMARK VINA RESULT: -6.132333280      3.388      5.590
REMARK  10 active torsions:
REMARK  status: ('A' for Active; 'I' for Inactive)
REMARK    1  A    between atoms: O1_2  and  C2_3
REMARK    2  A    between atoms: C2_3  and  C3_5
REMARK    3  A    between atoms: C3_5  and  C4_6
REMARK    4  A    between atoms: C3_5  and  C5_9
REMARK    5  A    between atoms: C5_9  and  O5_10
REMARK    6  A    between atoms: C5_9  and  C6_12
REMARK    7  A    between atoms: C6_12  and  S1_13
REMARK    8  A    between atoms: S1_13  and  C7_14
REMARK    9  A    between atoms: C7_14  and  C8_15
REMARK       I    between atoms: C8_15  and  N1_17
REMARK   10  A    between atoms: N1_17  and  C9_19
ROOT
HETATM    1  C7  UNL     1     -63.756 -21.599 -22.224  1.00  0.00     0.177 C
ENDROOT
BRANCH   1   2
HETATM    2  S1  UNL     1     -63.503 -20.396 -23.542  1.00  0.00    -0.157 SA
BRANCH   2   3
HETATM    3  C6  UNL     1     -62.979 -18.815 -22.800  1.00  0.00     0.107 C
BRANCH   3   4
HETATM    4  C5  UNL     1     -61.524 -18.990 -22.358  1.00  0.00     0.151 C
BRANCH   4   5
HETATM    5  C3  UNL     1     -61.340 -18.463 -20.956  1.00  0.00     0.215 C
BRANCH   5   6
HETATM    6  C2  UNL     1     -60.343 -19.250 -20.217  1.00  0.00     0.275 C
HETATM    7  O2  UNL     1     -60.443 -19.435 -18.997  1.00  0.00    -0.264 OA
BRANCH   6   8
HETATM    8  O1  UNL     1     -59.237 -19.827 -20.867  1.00  0.00    -0.326 OA
HETATM    9  C1  UNL     1     -59.183 -21.234 -20.971  1.00  0.00     0.213 C
ENDBRANCH   6   8
ENDBRANCH   5   6
BRANCH   5  10
HETATM   10  C4  UNL     1     -60.929 -17.030 -20.975  1.00  0.00     0.189 C
HETATM   11  O3  UNL     1     -59.726 -16.659 -20.991  1.00  0.00    -0.647 OA
HETATM   12  O4  UNL     1     -61.906 -16.050 -20.976  1.00  0.00    -0.647 OA
ENDBRANCH   5  10
ENDBRANCH   4   5
BRANCH   4  13
HETATM   13  O5  UNL     1     -60.767 -18.213 -23.266  1.00  0.00    -0.393 OA
ATOM     14  H5  UNL     1     -59.961 -18.667 -23.483  1.00  0.00     0.210 HD
ENDBRANCH   4  13
ENDBRANCH   3   4
ENDBRANCH   2   3
ENDBRANCH   1   2
BRANCH   1  15
HETATM   15  C8  UNL     1     -64.648 -21.037 -21.181  1.00  0.00     0.232 C
HETATM   16  O6  UNL     1     -64.192 -20.489 -20.152  1.00  0.00    -0.272 OA
HETATM   17  N1  UNL     1     -66.042 -21.132 -21.371  1.00  0.00    -0.306 N
ATOM     18  H1  UNL     1     -66.566 -21.932 -21.016  1.00  0.00     0.171 HD
BRANCH  17  19
HETATM   19  C9  UNL     1     -66.647 -20.165 -22.017  1.00  0.00     0.156 A
HETATM   20  N2  UNL     1     -66.546 -18.883 -21.625  1.00  0.00    -0.323 N
HETATM   21  C10 UNL     1     -67.109 -17.834 -22.200  1.00  0.00     0.147 A
ATOM     22  H2  UNL     1     -65.975 -18.701 -20.799  1.00  0.00     0.169 HD
HETATM   23  N3  UNL     1     -66.848 -16.552 -21.585  1.00  0.00    -0.080 NA
HETATM   24  C11 UNL     1     -67.914 -17.835 -23.320  1.00  0.00     0.144 A
HETATM   25  N4  UNL     1     -68.429 -16.566 -23.786  1.00  0.00    -0.094 NA
HETATM   26  C12 UNL     1     -68.261 -18.969 -24.025  1.00  0.00     0.243 A
HETATM   27  O7  UNL     1     -69.008 -18.900 -25.052  1.00  0.00    -0.278 OA
HETATM   28  S2  UNL     1     -67.609 -20.412 -23.404  1.00  0.00    -0.010 SA
ENDBRANCH  17  19
ENDBRANCH   1  15
TORSDOF 10
ENDMDL