MODEL 1
REMARK VINA RESULT: -6.227513266      0.000      0.000
REMARK  8 active torsions:
REMARK  status: ('A' for Active; 'I' for Inactive)
REMARK    1  A    between atoms: N1_2  and  S1_4
REMARK    2  A    between atoms: S1_4  and  N2_6
REMARK    3  A    between atoms: S1_4  and  C4_11
REMARK       I    between atoms: N2_6  and  C2_8
REMARK    4  A    between atoms: C4_11  and  C5_12
REMARK    5  A    between atoms: C4_11  and  C12_32
REMARK    6  A    between atoms: N3_13  and  N4_15
REMARK       I    between atoms: N4_15  and  C6_17
REMARK    7  A    between atoms: C6_17  and  C7_19
REMARK    8  A    between atoms: C9_21  and  O4_22
ROOT
HETATM    1  C5  UNL     1     -64.204 -19.164 -22.810  1.00  0.00     0.111 C
HETATM    2  N3  UNL     1     -65.091 -18.847 -21.960  1.00  0.00    -0.311 N
ATOM      3  H3  UNL     1     -65.108 -19.407 -21.108  1.00  0.00     0.185 HD
ENDROOT
BRANCH   2   4
HETATM    4  N4  UNL     1     -66.028 -17.850 -22.037  1.00  0.00    -0.265 N
HETATM    5  C6  UNL     1     -67.398 -18.024 -21.869  1.00  0.00     0.287 C
HETATM    6  O3  UNL     1     -67.844 -19.186 -21.623  1.00  0.00    -0.264 OA
ATOM      7  H4  UNL     1     -65.695 -16.906 -22.233  1.00  0.00     0.190 HD
BRANCH   5   8
HETATM    8  C7  UNL     1     -68.336 -16.937 -21.960  1.00  0.00     0.122 A
HETATM    9  C8  UNL     1     -67.929 -15.671 -21.594  1.00  0.00     0.092 A
HETATM   10  C9  UNL     1     -68.774 -14.587 -21.658  1.00  0.00     0.159 A
HETATM   11  N5  UNL     1     -70.041 -14.819 -22.105  1.00  0.00    -0.171 N
HETATM   12  C11 UNL     1     -70.456 -16.039 -22.466  1.00  0.00     0.678 A
ATOM     13  H5  UNL     1     -70.695 -14.037 -22.166  1.00  0.00     0.186 HD
HETATM   14  N6  UNL     1     -71.643 -16.293 -22.893  1.00  0.00    -0.234 N
HETATM   15  N7  UNL     1     -69.591 -17.094 -22.388  1.00  0.00    -0.186 N
ATOM     16  H62 UNL     1     -72.289 -15.506 -22.951  1.00  0.00     0.174 HD
ATOM     17  H61 UNL     1     -71.959 -17.223 -23.168  1.00  0.00     0.174 HD
ATOM     18  H7  UNL     1     -69.911 -18.022 -22.664  1.00  0.00     0.184 HD
BRANCH  10  19
HETATM   19  O4  UNL     1     -68.365 -13.315 -21.290  1.00  0.00    -0.340 OA
HETATM   20  C10 UNL     1     -69.164 -12.220 -21.673  1.00  0.00     0.211 C
ENDBRANCH  10  19
ENDBRANCH   5   8
ENDBRANCH   2   4
BRANCH   1  21
HETATM   21  C4  UNL     1     -63.314 -20.305 -22.452  1.00  0.00     0.247 C
BRANCH  21  22
HETATM   22  S1  UNL     1     -61.699 -19.681 -22.126  1.00  0.00     0.127 S
HETATM   23  O1  UNL     1     -60.866 -19.569 -23.365  1.00  0.00    -0.227 OA
BRANCH  22  24
HETATM   24  N1  UNL     1     -60.941 -20.636 -21.155  1.00  0.00    -0.339 N
HETATM   25  C1  UNL     1     -59.786 -21.307 -21.692  1.00  0.00     0.157 C
ATOM     26  H1  UNL     1     -61.246 -20.777 -20.192  1.00  0.00     0.170 HD
ENDBRANCH  22  24
BRANCH  22  27
HETATM   27  N2  UNL     1     -61.844 -18.104 -21.445  1.00  0.00    -0.271 N
HETATM   28  C2  UNL     1     -60.841 -17.504 -20.658  1.00  0.00     0.225 C
HETATM   29  C3  UNL     1     -61.010 -16.146 -20.096  1.00  0.00     0.118 C
HETATM   30  O2  UNL     1     -59.787 -18.128 -20.428  1.00  0.00    -0.273 OA
ATOM     31  H2  UNL     1     -62.700 -17.578 -21.621  1.00  0.00     0.180 HD
ENDBRANCH  22  27
ENDBRANCH  21  22
BRANCH  21  32
HETATM   32  C12 UNL     1     -63.848 -21.013 -21.271  1.00  0.00     0.197 C
HETATM   33  O5  UNL     1     -64.504 -22.076 -21.376  1.00  0.00    -0.647 OA
HETATM   34  O6  UNL     1     -63.631 -20.502 -19.978  1.00  0.00    -0.647 OA
ENDBRANCH  21  32
ENDBRANCH   1  21
TORSDOF 8
ENDMDL