MODEL 3
REMARK VINA RESULT: -3.633551885      2.062      4.381
REMARK  1 active torsions:
REMARK  status: ('A' for Active; 'I' for Inactive)
REMARK    1  A    between atoms: N3_9  and  C6_11
ROOT
HETATM    1  C1  UNL     1      16.124  17.387  57.376  1.00  0.00     0.229 C
HETATM    2  N1  UNL     1      16.663  16.610  56.709  1.00  0.00    -0.429 NA
HETATM    3  C2  UNL     1      17.315  15.669  55.919  1.00  0.00     0.110 A
HETATM    4  C3  UNL     1      17.306  14.333  56.225  1.00  0.00     0.062 A
HETATM    5  C4  UNL     1      17.959  13.435  55.422  1.00  0.00     0.093 A
HETATM    6  N2  UNL     1      18.608  13.847  54.341  1.00  0.00    -0.352 N
ATOM      7  H2  UNL     1      19.087  13.157  53.762  1.00  0.00     0.166 HD
HETATM    8  C5  UNL     1      18.657  15.142  53.981  1.00  0.00     0.103 A
HETATM    9  N3  UNL     1      19.285  15.521  52.939  1.00  0.00    -0.377 N
ATOM     10  H3  UNL     1      19.764  14.834  52.357  1.00  0.00     0.161 HD
HETATM   11  C8  UNL     1      18.005  16.055  54.778  1.00  0.00     0.092 A
ENDROOT
BRANCH   9  12
HETATM   12  C6  UNL     1      19.320  16.903  52.583  1.00  0.00     0.116 C
HETATM   13  C7  UNL     1      18.579  17.146  51.278  1.00  0.00     0.026 C
ENDBRANCH   9  12
TORSDOF 1
ENDMDL