MODEL 1
REMARK VINA RESULT: -4.006740192      0.000      0.000
REMARK  1 active torsions:
REMARK  status: ('A' for Active; 'I' for Inactive)
REMARK    1  A    between atoms: O1_2  and  C2_3
ROOT
HETATM    1  C2  UNL     1      18.765  15.456  56.302  1.00  0.00     0.070 A
HETATM    2  C3  UNL     1      19.852  16.092  56.862  1.00  0.00     0.039 A
HETATM    3  C4  UNL     1      19.628  16.981  57.910  1.00  0.00     0.036 A
HETATM    4  C5  UNL     1      18.356  17.230  58.386  1.00  0.00     0.080 A
HETATM    5  C6  UNL     1      17.265  16.592  57.824  1.00  0.00     0.080 A
HETATM    6  C7  UNL     1      17.495  15.718  56.792  1.00  0.00     0.070 A
HETATM    7  N1  UNL     1      16.173  17.029  58.487  1.00  0.00    -0.284 N
ATOM      8  H1  UNL     1      15.208  16.749  58.313  1.00  0.00     0.188 HD
HETATM    9  N2  UNL     1      16.587  17.890  59.405  1.00  0.00    -0.240 N
ATOM     10  H2  UNL     1      15.974  18.381  60.057  1.00  0.00     0.208 HD
HETATM   11  N3  UNL     1      17.886  18.026  59.364  1.00  0.00    -0.280 N
HETATM   12  C8  UNL     1      18.645  18.895  60.239  1.00  0.00     0.179 C
ENDROOT
BRANCH   1  13
HETATM   13  O1  UNL     1      18.936  14.548  55.241  1.00  0.00    -0.356 OA
HETATM   14  C1  UNL     1      18.014  13.489  55.089  1.00  0.00     0.210 C
ENDBRANCH   1  13
TORSDOF 1
ENDMDL