MODEL 4
REMARK VINA RESULT: -3.918357547      1.141      4.013
REMARK  3 active torsions:
REMARK  status: ('A' for Active; 'I' for Inactive)
REMARK    1  A    between atoms: C2_2  and  N1_4
REMARK    2  A    between atoms: N1_4  and  C4_6
REMARK    3  A    between atoms: N3_12  and  O1_13
ROOT
HETATM    1  C4  UNL     1      16.965  16.686  56.810  1.00  0.00     0.704 A
HETATM    2  N2  UNL     1      17.168  17.817  56.077  1.00  0.00    -0.200 N
ATOM      3  H2  UNL     1      17.445  17.719  55.101  1.00  0.00     0.183 HD
HETATM    4  C5  UNL     1      17.021  19.050  56.576  1.00  0.00     0.107 A
HETATM    5  C6  UNL     1      16.647  19.184  57.897  1.00  0.00     0.038 A
HETATM    6  C7  UNL     1      16.439  18.055  58.643  1.00  0.00     0.143 A
HETATM    7  N3  UNL     1      16.603  16.841  58.085  1.00  0.00    -0.064 N
ENDROOT
BRANCH   1   8
HETATM    8  N1  UNL     1      17.135  15.594  56.228  1.00  0.00    -0.220 N
ATOM      9  H1  UNL     1      16.321  14.981  56.284  1.00  0.00     0.178 HD
BRANCH   8  10
HETATM   10  C2  UNL     1      18.211  15.023  55.508  1.00  0.00     0.091 C
HETATM   11  C1  UNL     1      17.966  13.522  55.241  1.00  0.00     0.032 C
HETATM   12  C3  UNL     1      19.486  15.085  56.359  1.00  0.00     0.032 C
ENDBRANCH   8  10
ENDBRANCH   1   8
BRANCH   7  13
HETATM   13  O1  UNL     1      16.373  15.742  58.914  1.00  0.00    -0.270 OA
ATOM     14  H1  UNL     1      16.836  14.922  58.790  1.00  0.00     0.245 HD
ENDBRANCH   7  13
TORSDOF 3
ENDMDL