MODEL 4
REMARK VINA RESULT: -3.820188898      2.205      4.258
REMARK  1 active torsions:
REMARK  status: ('A' for Active; 'I' for Inactive)
REMARK    1  A    between atoms: C3_3  and  N1_4
ROOT
HETATM    1  C1  UNL     1      17.448  16.794  51.485  1.00  0.00     0.014 C
HETATM    2  C2  UNL     1      18.016  16.070  52.267  1.00  0.00    -0.097 C
HETATM    3  C3  UNL     1      18.693  15.186  53.243  1.00  0.00     0.220 C
ENDROOT
BRANCH   3   4
HETATM    4  N1  UNL     1      18.135  15.364  54.563  1.00  0.00    -0.354 N
HETATM    5  C4  UNL     1      17.665  14.288  55.201  1.00  0.00     0.093 A
HETATM    6  C5  UNL     1      17.110  14.348  56.468  1.00  0.00     0.045 A
HETATM    7  C6  UNL     1      17.045  15.573  57.088  1.00  0.00     0.069 A
HETATM    8  N2  UNL     1      16.474  15.618  58.385  1.00  0.00    -0.101 NA
HETATM    9  C7  UNL     1      17.529  16.664  56.425  1.00  0.00     0.084 A
HETATM   10  C8  UNL     1      17.471  17.946  57.051  1.00  0.00     0.102 C
HETATM   11  C9  UNL     1      18.078  16.558  55.154  1.00  0.00     0.116 A
HETATM   12  N3  UNL     1      17.410  18.994  57.562  1.00  0.00    -0.191 NA
ENDBRANCH   3   4
TORSDOF 1
ENDMDL