MODEL 5
REMARK VINA RESULT: -3.813544185      0.803      1.415
REMARK  2 active torsions:
REMARK  status: ('A' for Active; 'I' for Inactive)
REMARK    1  A    between atoms: C3_3  and  N1_4
REMARK    2  A    between atoms: N1_4  and  C4_6
ROOT
HETATM    1  C1  UNL     1      17.984  13.797  55.026  1.00  0.00     0.014 C
HETATM    2  C2  UNL     1      18.318  14.779  54.405  1.00  0.00    -0.098 C
HETATM    3  C3  UNL     1      18.704  15.979  53.632  1.00  0.00     0.214 C
ENDROOT
BRANCH   3   4
HETATM    4  N1  UNL     1      18.431  15.818  52.242  1.00  0.00    -0.366 N
ATOM      5  H1  UNL     1      19.035  15.179  51.725  1.00  0.00     0.162 HD
BRANCH   4   6
HETATM    6  C4  UNL     1      17.502  16.399  51.580  1.00  0.00     0.101 A
HETATM    7  C5  UNL     1      17.226  16.187  50.260  1.00  0.00     0.050 A
HETATM    8  C6  UNL     1      16.194  16.872  49.645  1.00  0.00     0.028 A
HETATM    9  C7  UNL     1      15.413  17.789  50.336  1.00  0.00     0.060 A
HETATM   10  C8  UNL     1      14.338  18.508  49.709  1.00  0.00     0.101 C
HETATM   11  C9  UNL     1      15.729  17.971  51.667  1.00  0.00     0.112 A
HETATM   12  N2  UNL     1      13.473  19.112  49.194  1.00  0.00    -0.191 NA
HETATM   13  N3  UNL     1      16.737  17.294  52.250  1.00  0.00    -0.351 N
ATOM     14  H3  UNL     1      16.931  17.462  53.238  1.00  0.00     0.166 HD
ENDBRANCH   4   6
ENDBRANCH   3   4
TORSDOF 2
ENDMDL