MODEL 2
REMARK VINA RESULT: -4.264760521      4.829      5.674
REMARK  2 active torsions:
REMARK  status: ('A' for Active; 'I' for Inactive)
REMARK    1  A    between atoms: C3_3  and  C4_4
REMARK    2  A    between atoms: N1_11  and  N2_13
ROOT
HETATM    1  C1  UNL     1      22.144  15.702  58.569  1.00  0.00     0.012 C
HETATM    2  C2  UNL     1      21.266  16.235  57.921  1.00  0.00    -0.113 C
HETATM    3  C3  UNL     1      20.223  16.899  57.141  1.00  0.00     0.134 C
ENDROOT
BRANCH   3   4
HETATM    4  C4  UNL     1      19.066  16.004  56.876  1.00  0.00    -0.015 A
HETATM    5  C5  UNL     1      19.203  15.002  56.006  1.00  0.00     0.065 A
HETATM    6  C6  UNL     1      18.055  14.120  55.747  1.00  0.00     0.172 A
HETATM    7  O1  UNL     1      18.205  13.172  54.916  1.00  0.00    -0.289 OA
HETATM    8  C7  UNL     1      16.773  14.309  56.414  1.00  0.00     0.057 A
HETATM    9  C8  UNL     1      16.690  15.318  57.269  1.00  0.00     0.035 A
HETATM   10  C9  UNL     1      17.799  16.208  57.549  1.00  0.00     0.054 A
HETATM   11  N1  UNL     1      17.652  17.160  58.382  1.00  0.00    -0.307 N
ATOM     12  H1  UNL     1      18.458  17.762  58.550  1.00  0.00     0.186 HD
BRANCH  11  13
HETATM   13  N2  UNL     1      16.494  17.443  59.076  1.00  0.00    -0.345 N
ATOM     14  H22 UNL     1      15.976  16.641  59.436  1.00  0.00     0.176 HD
ATOM     15  H21 UNL     1      16.124  18.377  59.252  1.00  0.00     0.176 HD
ENDBRANCH  11  13
ENDBRANCH   3   4
TORSDOF 2
ENDMDL