MODEL 3
REMARK VINA RESULT: -3.613950260      2.000      3.909
REMARK  1 active torsions:
REMARK  status: ('A' for Active; 'I' for Inactive)
REMARK    1  A    between atoms: O1_2  and  C2_3
ROOT
HETATM    1  C2  UNL     1      18.083  15.540  56.475  1.00  0.00     0.144 A
HETATM    2  C3  UNL     1      17.705  14.226  56.245  1.00  0.00     0.056 A
HETATM    3  C4  UNL     1      17.969  13.693  55.002  1.00  0.00     0.007 A
HETATM    4  C5  UNL     1      18.583  14.420  54.013  1.00  0.00     0.041 A
HETATM    5  C6  UNL     1      18.947  15.725  54.272  1.00  0.00     0.117 A
HETATM    6  C7  UNL     1      19.599  16.542  53.266  1.00  0.00     0.118 C
HETATM    7  N1  UNL     1      20.133  17.189  52.463  1.00  0.00    -0.190 NA
HETATM    8  N2  UNL     1      18.688  16.240  55.486  1.00  0.00    -0.324 N
HETATM    9  C8  UNL     1      19.094  17.634  55.714  1.00  0.00     0.159 C
ENDROOT
BRANCH   1  10
HETATM   10  O1  UNL     1      17.851  16.139  57.694  1.00  0.00    -0.341 OA
HETATM   11  C1  UNL     1      16.581  16.408  58.200  1.00  0.00     0.211 C
ENDBRANCH   1  10
TORSDOF 1
ENDMDL