MODEL 5
REMARK VINA RESULT: -3.876386653      1.045      1.054
REMARK  1 active torsions:
REMARK  status: ('A' for Active; 'I' for Inactive)
REMARK    1  A    between atoms: C1_4  and  N2_5
ROOT
HETATM    1  N2  UNL     1      17.110  17.831  58.696  1.00  0.00    -0.192 N
HETATM    2  N3  UNL     1      16.358  16.760  58.518  1.00  0.00    -0.277 N
ATOM      3  H3  UNL     1      15.471  16.571  58.985  1.00  0.00     0.189 HD
HETATM    4  C2  UNL     1      16.960  15.951  57.609  1.00  0.00     0.078 A
HETATM    5  C3  UNL     1      16.640  14.727  57.048  1.00  0.00     0.033 A
HETATM    6  C4  UNL     1      17.494  14.153  56.119  1.00  0.00     0.002 A
HETATM    7  C5  UNL     1      18.668  14.760  55.724  1.00  0.00     0.002 A
HETATM    8  C6  UNL     1      18.956  15.980  56.305  1.00  0.00     0.033 A
HETATM    9  C7  UNL     1      18.127  16.580  57.233  1.00  0.00     0.078 A
HETATM   10  N4  UNL     1      18.181  17.745  57.933  1.00  0.00    -0.277 N
ATOM     11  H4  UNL     1      18.927  18.439  57.876  1.00  0.00     0.189 HD
ENDROOT
BRANCH   1  12
HETATM   12  C1  UNL     1      16.786  18.911  59.592  1.00  0.00     0.220 C
HETATM   13  N1  UNL     1      16.259  18.626  60.739  1.00  0.00    -0.392 N
ATOM     14  H12 UNL     1      16.083  17.652  60.987  1.00  0.00     0.157 HD
ATOM     15  H11 UNL     1      16.029  19.390  61.373  1.00  0.00     0.157 HD
ENDBRANCH   1  12
TORSDOF 1
ENDMDL