MODEL 5
REMARK VINA RESULT: -3.571098409      5.421      6.611
REMARK  2 active torsions:
REMARK  status: ('A' for Active; 'I' for Inactive)
REMARK    1  A    between atoms: C2_2  and  N1_3
REMARK    2  A    between atoms: N3_12  and  O1_13
ROOT
HETATM    1  N1  UNL     1      16.493  17.508  59.084  1.00  0.00    -0.224 N
ATOM      2  H1  UNL     1      15.561  17.222  59.386  1.00  0.00     0.177 HD
HETATM    3  C3  UNL     1      16.993  16.750  58.218  1.00  0.00     0.704 A
HETATM    4  N2  UNL     1      16.221  15.690  57.833  1.00  0.00    -0.200 N
ATOM      5  H2  UNL     1      15.301  15.572  58.258  1.00  0.00     0.183 HD
HETATM    6  C4  UNL     1      16.627  14.797  56.917  1.00  0.00     0.108 A
HETATM    7  C5  UNL     1      17.877  14.972  56.351  1.00  0.00     0.045 A
HETATM    8  C6  UNL     1      18.687  16.032  56.716  1.00  0.00     0.056 A
HETATM    9  C7  UNL     1      20.037  16.216  56.102  1.00  0.00     0.071 C
HETATM   10  N3  UNL     1      18.194  16.875  57.644  1.00  0.00    -0.057 N
ENDROOT
BRANCH   1  11
HETATM   11  C2  UNL     1      16.956  18.668  59.720  1.00  0.00     0.134 C
HETATM   12  C1  UNL     1      16.018  19.871  59.586  1.00  0.00     0.027 C
ENDBRANCH   1  11
BRANCH  10  13
HETATM   13  O1  UNL     1      18.981  17.921  58.010  1.00  0.00    -0.269 OA
ATOM     14  H1  UNL     1      18.772  18.784  57.671  1.00  0.00     0.245 HD
ENDBRANCH  10  13
TORSDOF 2
ENDMDL