MODEL 5
REMARK VINA RESULT: -3.358005764      1.072      1.072
REMARK  1 active torsions:
REMARK  status: ('A' for Active; 'I' for Inactive)
REMARK    1  A    between atoms: C4_8  and  N3_9
ROOT
HETATM    1  C1  UNL     1      19.084  18.638  60.636  1.00  0.00     0.165 C
HETATM    2  N1  UNL     1      17.880  17.966  60.254  1.00  0.00    -0.230 N
ATOM      3  H1  UNL     1      17.055  18.000  60.852  1.00  0.00     0.177 HD
HETATM    4  C2  UNL     1      17.857  17.308  59.124  1.00  0.00     0.677 A
HETATM    5  N2  UNL     1      16.693  16.622  58.691  1.00  0.00    -0.200 N
ATOM      6  H2  UNL     1      15.852  16.638  59.268  1.00  0.00     0.183 HD
HETATM    7  C3  UNL     1      16.688  15.969  57.558  1.00  0.00     0.136 A
HETATM    8  C4  UNL     1      17.858  15.916  56.702  1.00  0.00     0.061 A
HETATM    9  C7  UNL     1      18.961  16.539  57.065  1.00  0.00     0.136 A
HETATM   10  N4  UNL     1      19.007  17.261  58.290  1.00  0.00    -0.200 N
ATOM     11  H4  UNL     1      19.861  17.743  58.569  1.00  0.00     0.183 HD
ENDROOT
BRANCH   8  12
HETATM   12  N3  UNL     1      17.823  15.201  55.481  1.00  0.00    -0.387 N
HETATM   13  C5  UNL     1      18.195  15.767  54.210  1.00  0.00     0.149 C
HETATM   14  C6  UNL     1      17.379  13.808  55.541  1.00  0.00     0.149 C
ENDBRANCH   8  12
TORSDOF 1
ENDMDL