MODEL 5
REMARK VINA RESULT: -7.427943015      2.316      4.947
REMARK  16 active torsions:
REMARK  status: ('A' for Active; 'I' for Inactive)
REMARK    1  A    between atoms: C2_2  and  C3_3
REMARK    2  A    between atoms: C4_4  and  C5_5
REMARK    3  A    between atoms: C5_5  and  N1_6
REMARK    4  A    between atoms: C6_7  and  O1_8
REMARK    5  A    between atoms: C7_10  and  C8_11
REMARK    6  A    between atoms: C8_11  and  C9_12
REMARK    7  A    between atoms: C9_12  and  C10_13
REMARK    8  A    between atoms: C10_13  and  N2_14
REMARK    9  A    between atoms: C16_28  and  O3_29
REMARK   10  A    between atoms: C17_31  and  C18_32
REMARK   11  A    between atoms: C18_32  and  C19_33
REMARK   12  A    between atoms: C19_33  and  C20_34
REMARK   13  A    between atoms: C20_34  and  C21_35
REMARK   14  A    between atoms: C24_38  and  C25_39
REMARK   15  A    between atoms: N7_40  and  N8_42
REMARK   16  A    between atoms: C26_45  and  O4_46
ROOT
HETATM    1  N1  UNL     1      15.784 -15.622  21.788  1.00  0.00    -0.341 N
HETATM    2  C6  UNL     1      14.601 -14.873  21.847  1.00  0.00     0.138 C
HETATM    3  C7  UNL     1      14.281 -13.504  21.419  1.00  0.00     0.159 C
HETATM    4  N5  UNL     1      15.380 -12.574  21.386  1.00  0.00    -0.347 N
ATOM      5  H5  UNL     1      15.627 -12.156  22.282  1.00  0.00     0.163 HD
HETATM    6  C12 UNL     1      16.162 -12.160  20.292  1.00  0.00     0.245 C
HETATM    7  O2  UNL     1      16.251 -10.881  20.144  1.00  0.00    -0.271 OA
HETATM    8  C13 UNL     1      16.872 -13.018  19.328  1.00  0.00     0.105 C
HETATM    9  C14 UNL     1      17.765 -12.072  18.459  1.00  0.00     0.048 C
HETATM   10  C15 UNL     1      15.944 -13.573  18.256  1.00  0.00     0.048 C
HETATM   11  N6  UNL     1      17.730 -14.032  19.900  1.00  0.00    -0.355 N
ATOM     12  H6  UNL     1      18.307 -14.517  19.213  1.00  0.00     0.162 HD
HETATM   13  C16 UNL     1      17.922 -14.472  21.199  1.00  0.00     0.136 C
HETATM   14  C17 UNL     1      17.125 -15.281  22.121  1.00  0.00     0.161 C
ENDROOT
BRANCH  14  15
HETATM   15  C18 UNL     1      17.187 -14.758  23.549  1.00  0.00     0.034 C
BRANCH  15  16
HETATM   16  C19 UNL     1      17.582 -15.747  24.578  1.00  0.00     0.007 C
BRANCH  16  17
HETATM   17  C20 UNL     1      18.155 -15.225  25.842  1.00  0.00     0.039 C
BRANCH  17  18
HETATM   18  C21 UNL     1      19.582 -14.829  25.632  1.00  0.00    -0.049 A
HETATM   19  C22 UNL     1      19.880 -13.507  25.575  1.00  0.00     0.009 A
HETATM   20  C23 UNL     1      21.169 -13.131  25.385  1.00  0.00     0.016 A
HETATM   21  C24 UNL     1      22.243 -14.060  25.239  1.00  0.00     0.015 A
HETATM   22  C26 UNL     1      21.862 -15.361  25.303  1.00  0.00     0.086 A
HETATM   23  C28 UNL     1      20.536 -15.801  25.502  1.00  0.00    -0.021 A
HETATM   24  C29 UNL     1      20.252 -17.264  25.565  1.00  0.00     0.052 C
BRANCH  21  25
HETATM   25  C25 UNL     1      23.541 -13.472  25.213  1.00  0.00     0.120 C
HETATM   26  N7  UNL     1      24.610 -13.722  24.610  1.00  0.00    -0.318 N
ATOM     27  H7  UNL     1      25.358 -13.066  24.838  1.00  0.00     0.185 HD
BRANCH  26  28
HETATM   28  N8  UNL     1      24.996 -14.676  23.714  1.00  0.00    -0.345 N
ATOM     29  H82 UNL     1      25.143 -15.579  24.167  1.00  0.00     0.176 HD
ATOM     30  H81 UNL     1      25.164 -14.680  22.708  1.00  0.00     0.176 HD
ENDBRANCH  26  28
ENDBRANCH  21  25
BRANCH  22  31
HETATM   31  O4  UNL     1      22.786 -16.389  25.150  1.00  0.00    -0.354 OA
HETATM   32  C27 UNL     1      23.568 -16.760  26.325  1.00  0.00     0.210 C
ENDBRANCH  22  31
ENDBRANCH  17  18
ENDBRANCH  16  17
ENDBRANCH  15  16
ENDBRANCH  14  15
BRANCH   1  33
HETATM   33  C5  UNL     1      15.597 -17.022  21.323  1.00  0.00     0.220 C
BRANCH  33  34
HETATM   34  C4  UNL     1      15.847 -18.016  22.319  1.00  0.00    -0.087 C
HETATM   35  C3  UNL     1      16.070 -18.833  23.174  1.00  0.00    -0.105 C
BRANCH  35  36
HETATM   36  C2  UNL     1      16.313 -19.826  24.209  1.00  0.00     0.089 C
HETATM   37  C1  UNL     1      16.565 -19.156  25.555  1.00  0.00     0.018 C
ENDBRANCH  35  36
ENDBRANCH  33  34
ENDBRANCH   1  33
BRANCH  13  38
HETATM   38  O3  UNL     1      19.047 -14.107  21.748  1.00  0.00    -0.348 OA
ATOM     39  H3  UNL     1      19.447 -13.332  21.371  1.00  0.00     0.219 HD
ENDBRANCH  13  38
BRANCH   2  40
HETATM   40  O1  UNL     1      13.575 -15.481  22.372  1.00  0.00    -0.348 OA
ATOM     41  H1  UNL     1      12.801 -14.944  22.501  1.00  0.00     0.219 HD
ENDBRANCH   2  40
BRANCH   3  42
HETATM   42  C8  UNL     1      13.142 -12.928  22.268  1.00  0.00     0.035 C
BRANCH  42  43
HETATM   43  C9  UNL     1      11.962 -12.482  21.510  1.00  0.00     0.022 C
BRANCH  43  44
HETATM   44  C10 UNL     1      11.944 -10.950  21.414  1.00  0.00     0.122 C
BRANCH  44  45
HETATM   45  N2  UNL     1      11.452 -10.352  22.613  1.00  0.00    -0.367 N
HETATM   46  C11 UNL     1      12.072  -9.478  23.306  1.00  0.00     0.196 C
HETATM   47  N3  UNL     1      11.459  -8.977  24.468  1.00  0.00    -0.067 NA
HETATM   48  N4  UNL     1      13.354  -9.061  22.855  1.00  0.00    -0.067 NA
ATOM     49  H2  UNL     1      10.532 -10.647  22.942  1.00  0.00     0.161 HD
ENDBRANCH  44  45
ENDBRANCH  43  44
ENDBRANCH  42  43
ENDBRANCH   3  42
TORSDOF 16
ENDMDL