MODEL 1
REMARK VINA RESULT: -8.213102960      0.000      0.000
REMARK  13 active torsions:
REMARK  status: ('A' for Active; 'I' for Inactive)
REMARK    1  A    between atoms: C2_2  and  C4_4
REMARK    2  A    between atoms: C4_4  and  C5_5
REMARK    3  A    between atoms: C10_16  and  C11_17
REMARK    4  A    between atoms: C11_17  and  C12_18
REMARK    5  A    between atoms: C16_23  and  O3_24
REMARK    6  A    between atoms: C17_26  and  C18_27
REMARK    7  A    between atoms: C18_27  and  C19_28
REMARK    8  A    between atoms: C19_28  and  C20_29
REMARK    9  A    between atoms: C20_29  and  N4_30
REMARK   10  A    between atoms: C22_37  and  O4_38
REMARK   11  A    between atoms: C23_40  and  C24_41
REMARK   12  A    between atoms: C24_41  and  C25_42
REMARK   13  A    between atoms: C28_47  and  O5_48
ROOT
HETATM    1  C5  UNL     1      16.238 -12.418  19.047  1.00  0.00     0.159 C
HETATM    2  N1  UNL     1      14.787 -12.603  19.043  1.00  0.00    -0.347 N
ATOM      3  H1  UNL     1      14.358 -12.783  18.135  1.00  0.00     0.163 HD
HETATM    4  C6  UNL     1      13.923 -12.562  20.131  1.00  0.00     0.240 C
HETATM    5  O1  UNL     1      12.827 -11.908  19.959  1.00  0.00    -0.271 OA
HETATM    6  C7  UNL     1      14.080 -13.169  21.471  1.00  0.00     0.172 C
HETATM    7  C8  UNL     1      13.366 -12.222  22.453  1.00  0.00     0.042 C
HETATM    8  N2  UNL     1      13.483 -14.488  21.585  1.00  0.00    -0.346 N
ATOM      9  H2  UNL     1      12.472 -14.523  21.719  1.00  0.00     0.163 HD
HETATM   10  C9  UNL     1      14.157 -15.723  21.529  1.00  0.00     0.241 C
HETATM   11  O2  UNL     1      13.836 -16.602  22.392  1.00  0.00    -0.271 OA
HETATM   12  C10 UNL     1      15.196 -16.105  20.579  1.00  0.00     0.178 C
HETATM   13  N3  UNL     1      16.175 -17.068  21.107  1.00  0.00    -0.355 N
HETATM   14  C15 UNL     1      16.472 -18.154  20.146  1.00  0.00     0.152 C
HETATM   15  C16 UNL     1      16.809 -17.076  22.342  1.00  0.00     0.137 C
HETATM   16  C17 UNL     1      17.612 -16.160  23.142  1.00  0.00     0.158 C
HETATM   17  N7  UNL     1      17.478 -14.769  23.035  1.00  0.00    -0.357 N
ATOM     18  H7  UNL     1      16.530 -14.485  23.284  1.00  0.00     0.162 HD
HETATM   19  C22 UNL     1      18.246 -13.649  22.692  1.00  0.00     0.159 C
HETATM   20  C23 UNL     1      18.560 -13.018  21.408  1.00  0.00     0.062 C
HETATM   21  N8  UNL     1      17.718 -11.868  21.131  1.00  0.00    -0.339 N
ATOM     22  H8  UNL     1      17.932 -11.054  21.707  1.00  0.00     0.167 HD
HETATM   23  C28 UNL     1      16.681 -11.661  20.237  1.00  0.00     0.139 C
ENDROOT
BRANCH  16  24
HETATM   24  C18 UNL     1      17.482 -16.529  24.639  1.00  0.00     0.035 C
BRANCH  24  25
HETATM   25  C19 UNL     1      18.569 -16.041  25.498  1.00  0.00     0.022 C
BRANCH  25  26
HETATM   26  C20 UNL     1      19.885 -16.487  24.847  1.00  0.00     0.122 C
BRANCH  26  27
HETATM   27  N4  UNL     1      20.780 -15.345  24.650  1.00  0.00    -0.367 N
HETATM   28  C21 UNL     1      21.365 -15.149  23.509  1.00  0.00     0.196 C
HETATM   29  N5  UNL     1      21.173 -16.022  22.395  1.00  0.00    -0.067 NA
HETATM   30  N6  UNL     1      22.220 -14.022  23.397  1.00  0.00    -0.067 NA
ATOM     31  H4  UNL     1      20.944 -14.696  25.420  1.00  0.00     0.161 HD
ENDBRANCH  26  27
ENDBRANCH  25  26
ENDBRANCH  24  25
ENDBRANCH  16  24
BRANCH  15  32
HETATM   32  O3  UNL     1      16.642 -18.225  22.952  1.00  0.00    -0.348 OA
ATOM     33  H3  UNL     1      16.353 -18.098  23.848  1.00  0.00     0.219 HD
ENDBRANCH  15  32
BRANCH  19  34
HETATM   34  O4  UNL     1      18.818 -12.978  23.678  1.00  0.00    -0.345 OA
ATOM     35  H4  UNL     1      18.875 -12.033  23.590  1.00  0.00     0.219 HD
ENDBRANCH  19  34
BRANCH  12  36
HETATM   36  C11 UNL     1      14.626 -16.441  19.271  1.00  0.00     0.038 C
BRANCH  36  37
HETATM   37  C12 UNL     1      13.266 -16.992  19.101  1.00  0.00    -0.020 C
HETATM   38  C13 UNL     1      13.306 -18.033  17.925  1.00  0.00     0.009 C
HETATM   39  C14 UNL     1      12.204 -16.018  18.616  1.00  0.00     0.009 C
ENDBRANCH  36  37
ENDBRANCH  12  36
BRANCH  20  40
HETATM   40  C24 UNL     1      19.151 -13.725  20.273  1.00  0.00     0.065 C
BRANCH  40  41
HETATM   41  C25 UNL     1      20.317 -13.097  19.564  1.00  0.00    -0.017 C
HETATM   42  C26 UNL     1      20.142 -12.457  18.272  1.00  0.00     0.010 C
HETATM   43  C27 UNL     1      21.023 -12.094  20.493  1.00  0.00     0.010 C
ENDBRANCH  40  41
ENDBRANCH  20  40
BRANCH  23  44
HETATM   44  O5  UNL     1      15.922 -10.619  20.432  1.00  0.00    -0.348 OA
ATOM     45  H5  UNL     1      15.081 -10.878  20.791  1.00  0.00     0.219 HD
ENDBRANCH  23  44
BRANCH   1  46
HETATM   46  C4  UNL     1      16.650 -11.677  17.762  1.00  0.00     0.037 C
BRANCH  46  47
HETATM   47  C2  UNL     1      15.684 -11.751  16.660  1.00  0.00    -0.020 C
HETATM   48  C1  UNL     1      15.942 -12.834  15.647  1.00  0.00     0.009 C
HETATM   49  C3  UNL     1      15.759 -10.413  15.908  1.00  0.00     0.009 C
ENDBRANCH  46  47
ENDBRANCH   1  46
TORSDOF 13
ENDMDL