MODEL 5
REMARK VINA RESULT: -7.496118539      1.997      4.477
REMARK  13 active torsions:
REMARK  status: ('A' for Active; 'I' for Inactive)
REMARK    1  A    between atoms: C2_2  and  C4_4
REMARK    2  A    between atoms: C4_4  and  C5_5
REMARK    3  A    between atoms: C7_10  and  C8_11
REMARK    4  A    between atoms: C8_11  and  C9_12
REMARK    5  A    between atoms: C19_28  and  O4_29
REMARK    6  A    between atoms: C20_31  and  C21_32
REMARK    7  A    between atoms: C21_32  and  C22_33
REMARK    8  A    between atoms: C22_33  and  C23_34
REMARK    9  A    between atoms: C23_34  and  C24_35
REMARK   10  A    between atoms: C24_35  and  C25_36
REMARK   11  A    between atoms: C25_36  and  C26_37
REMARK   12  A    between atoms: C26_37  and  C27_38
REMARK   13  A    between atoms: C28_45  and  O5_46
ROOT
HETATM    1  C5  UNL     1      15.533 -13.739  20.676  1.00  0.00     0.063 C
HETATM    2  N1  UNL     1      15.158 -15.004  21.287  1.00  0.00    -0.325 N
ATOM      3  H1  UNL     1      15.761 -15.255  22.070  1.00  0.00     0.169 HD
HETATM    4  C6  UNL     1      14.189 -15.930  21.057  1.00  0.00     0.244 C
HETATM    5  O1  UNL     1      13.493 -16.333  22.070  1.00  0.00    -0.271 OA
HETATM    6  C7  UNL     1      13.723 -16.626  19.815  1.00  0.00     0.177 C
HETATM    7  N2  UNL     1      14.188 -17.971  19.741  1.00  0.00    -0.346 N
ATOM      8  H2  UNL     1      14.114 -18.369  18.805  1.00  0.00     0.163 HD
HETATM    9  C12 UNL     1      14.721 -18.857  20.669  1.00  0.00     0.240 C
HETATM   10  O2  UNL     1      14.098 -19.914  20.967  1.00  0.00    -0.271 OA
HETATM   11  C13 UNL     1      16.018 -18.750  21.428  1.00  0.00     0.174 C
HETATM   12  C14 UNL     1      16.155 -19.896  22.440  1.00  0.00     0.042 C
HETATM   13  N3  UNL     1      17.166 -18.810  20.607  1.00  0.00    -0.342 N
HETATM   14  C15 UNL     1      17.114 -19.375  19.258  1.00  0.00     0.153 C
HETATM   15  C16 UNL     1      18.409 -18.325  21.063  1.00  0.00     0.238 C
HETATM   16  O3  UNL     1      19.508 -18.703  20.533  1.00  0.00    -0.272 OA
HETATM   17  C17 UNL     1      18.473 -17.345  22.193  1.00  0.00     0.227 C
HETATM   18  N4  UNL     1      19.672 -16.538  22.161  1.00  0.00    -0.356 N
HETATM   19  C18 UNL     1      20.946 -17.274  22.136  1.00  0.00     0.152 C
HETATM   20  C19 UNL     1      19.726 -15.121  22.152  1.00  0.00     0.161 C
HETATM   21  C20 UNL     1      18.744 -14.148  22.652  1.00  0.00     0.062 C
HETATM   22  N7  UNL     1      18.022 -13.547  21.550  1.00  0.00    -0.335 N
ATOM     23  H7  UNL     1      18.656 -13.387  20.767  1.00  0.00     0.168 HD
HETATM   24  C28 UNL     1      16.765 -13.125  21.223  1.00  0.00     0.163 C
ENDROOT
BRANCH  21  25
HETATM   25  C21 UNL     1      18.062 -14.354  23.921  1.00  0.00     0.062 C
BRANCH  25  26
HETATM   26  C22 UNL     1      18.831 -14.249  25.202  1.00  0.00     0.006 C
BRANCH  26  27
HETATM   27  C23 UNL     1      19.931 -13.276  25.281  1.00  0.00     0.000 C
BRANCH  27  28
HETATM   28  C24 UNL     1      20.652 -13.418  26.601  1.00  0.00     0.000 C
BRANCH  28  29
HETATM   29  C25 UNL     1      22.137 -13.286  26.517  1.00  0.00     0.007 C
BRANCH  29  30
HETATM   30  C26 UNL     1      22.680 -14.454  25.696  1.00  0.00     0.072 C
BRANCH  30  31
HETATM   31  C27 UNL     1      23.495 -13.887  24.600  1.00  0.00     0.086 C
HETATM   32  N5  UNL     1      24.746 -13.617  24.776  1.00  0.00    -0.391 N
ATOM     33  H52 UNL     1      25.193 -13.791  25.677  1.00  0.00     0.157 HD
ATOM     34  H51 UNL     1      25.307 -13.226  24.021  1.00  0.00     0.157 HD
HETATM   35  N6  UNL     1      22.863 -13.642  23.330  1.00  0.00    -0.088 NA
ENDBRANCH  30  31
ENDBRANCH  29  30
ENDBRANCH  28  29
ENDBRANCH  27  28
ENDBRANCH  26  27
ENDBRANCH  25  26
ENDBRANCH  21  25
BRANCH  20  36
HETATM   36  O4  UNL     1      20.797 -14.598  21.623  1.00  0.00    -0.345 OA
ATOM     37  H4  UNL     1      21.610 -15.059  21.793  1.00  0.00     0.219 HD
ENDBRANCH  20  36
BRANCH  24  38
HETATM   38  O5  UNL     1      16.578 -11.834  21.442  1.00  0.00    -0.345 OA
ATOM     39  H5  UNL     1      17.201 -11.514  22.083  1.00  0.00     0.219 HD
ENDBRANCH  24  38
BRANCH   1  40
HETATM   40  C4  UNL     1      15.335 -13.708  19.213  1.00  0.00     0.065 C
BRANCH  40  41
HETATM   41  C2  UNL     1      14.351 -12.803  18.588  1.00  0.00    -0.017 C
HETATM   42  C1  UNL     1      14.768 -11.921  17.472  1.00  0.00     0.010 C
HETATM   43  C3  UNL     1      13.467 -12.081  19.598  1.00  0.00     0.010 C
ENDBRANCH  40  41
ENDBRANCH   1  40
BRANCH   6  44
HETATM   44  C8  UNL     1      12.220 -16.560  19.751  1.00  0.00     0.038 C
BRANCH  44  45
HETATM   45  C9  UNL     1      11.503 -17.341  18.726  1.00  0.00    -0.020 C
HETATM   46  C10 UNL     1      10.980 -18.687  19.062  1.00  0.00     0.009 C
HETATM   47  C11 UNL     1      10.273 -16.489  18.310  1.00  0.00     0.009 C
ENDBRANCH  44  45
ENDBRANCH   6  44
TORSDOF 13
ENDMDL