MODEL 4
REMARK VINA RESULT: -7.040724466      3.041      8.297
REMARK  11 active torsions:
REMARK  status: ('A' for Active; 'I' for Inactive)
REMARK    1  A    between atoms: C2_2  and  C3_3
REMARK    2  A    between atoms: C3_3  and  N1_5
REMARK    3  A    between atoms: C8_11  and  C9_12
REMARK    4  A    between atoms: C9_12  and  C10_13
REMARK    5  A    between atoms: C10_13  and  C11_14
REMARK    6  A    between atoms: C11_14  and  N3_15
REMARK    7  A    between atoms: C13_20  and  O2_21
REMARK    8  A    between atoms: C14_25  and  C15_26
REMARK    9  A    between atoms: C15_26  and  C16_27
REMARK   10  A    between atoms: C20_34  and  C21_35
REMARK   11  A    between atoms: C21_35  and  C22_36
ROOT
HETATM    1  N1  UNL     1      18.444 -14.404  21.627  1.00  0.00    -0.353 N
HETATM    2  C5  UNL     1      18.246 -13.015  22.169  1.00  0.00     0.228 C
HETATM    3  C6  UNL     1      18.252 -12.368  20.791  1.00  0.00     0.247 C
HETATM    4  O1  UNL     1      18.971 -11.444  20.509  1.00  0.00    -0.271 OA
HETATM    5  N2  UNL     1      17.230 -13.152  20.048  1.00  0.00    -0.272 N
HETATM    6  C7  UNL     1      17.354 -14.456  20.608  1.00  0.00     0.123 C
HETATM    7  C8  UNL     1      16.650 -15.580  20.336  1.00  0.00     0.037 C
HETATM    8  C13 UNL     1      15.553 -15.786  19.403  1.00  0.00     0.146 C
HETATM    9  N6  UNL     1      14.213 -15.357  19.322  1.00  0.00    -0.357 N
ATOM     10  H6  UNL     1      13.878 -15.168  18.377  1.00  0.00     0.162 HD
HETATM   11  C14 UNL     1      13.229 -15.142  20.381  1.00  0.00     0.176 C
HETATM   12  C19 UNL     1      12.177 -14.187  19.994  1.00  0.00     0.241 C
HETATM   13  O3  UNL     1      11.147 -14.671  19.409  1.00  0.00    -0.271 OA
HETATM   14  N7  UNL     1      12.205 -12.796  20.206  1.00  0.00    -0.346 N
ATOM     15  H7  UNL     1      11.973 -12.198  19.412  1.00  0.00     0.163 HD
HETATM   16  C20 UNL     1      12.539 -12.132  21.471  1.00  0.00     0.177 C
HETATM   17  C25 UNL     1      13.999 -12.077  21.645  1.00  0.00     0.240 C
HETATM   18  O4  UNL     1      14.427 -12.496  22.789  1.00  0.00    -0.271 OA
HETATM   19  N8  UNL     1      14.977 -11.640  20.752  1.00  0.00    -0.354 N
ATOM     20  H8  UNL     1      15.672 -11.019  21.164  1.00  0.00     0.162 HD
HETATM   21  C26 UNL     1      15.178 -11.906  19.369  1.00  0.00     0.175 C
HETATM   22  C27 UNL     1      16.492 -12.493  19.023  1.00  0.00     0.013 C
HETATM   23  C28 UNL     1      16.462 -13.109  17.656  1.00  0.00     0.066 C
ENDROOT
BRANCH   7  24
HETATM   24  C9  UNL     1      17.021 -16.830  21.123  1.00  0.00     0.048 C
BRANCH  24  25
HETATM   25  C10 UNL     1      15.895 -17.289  22.031  1.00  0.00     0.025 C
BRANCH  25  26
HETATM   26  C11 UNL     1      16.466 -17.487  23.454  1.00  0.00     0.122 C
BRANCH  26  27
HETATM   27  N3  UNL     1      16.613 -16.214  24.071  1.00  0.00    -0.367 N
HETATM   28  C12 UNL     1      17.583 -15.999  24.887  1.00  0.00     0.196 C
HETATM   29  N4  UNL     1      17.730 -14.724  25.506  1.00  0.00    -0.067 NA
HETATM   30  N5  UNL     1      18.489 -17.069  25.143  1.00  0.00    -0.067 NA
ATOM     31  H3  UNL     1      15.948 -15.469  23.866  1.00  0.00     0.161 HD
ENDBRANCH  26  27
ENDBRANCH  25  26
ENDBRANCH  24  25
ENDBRANCH   7  24
BRANCH   8  32
HETATM   32  O2  UNL     1      15.824 -16.546  18.378  1.00  0.00    -0.346 OA
ATOM     33  H2  UNL     1      15.112 -17.100  18.081  1.00  0.00     0.219 HD
ENDBRANCH   8  32
BRANCH   1  34
HETATM   34  C3  UNL     1      19.503 -15.201  22.007  1.00  0.00     0.082 C
HETATM   35  C4  UNL     1      20.392 -15.412  20.718  1.00  0.00     0.032 C
BRANCH  34  36
HETATM   36  C2  UNL     1      20.484 -14.371  22.872  1.00  0.00     0.020 C
HETATM   37  C1  UNL     1      21.375 -15.293  23.674  1.00  0.00     0.007 C
ENDBRANCH  34  36
ENDBRANCH   1  34
BRANCH  11  38
HETATM   38  C15 UNL     1      12.514 -16.427  20.738  1.00  0.00     0.038 C
BRANCH  38  39
HETATM   39  C16 UNL     1      12.831 -17.581  19.871  1.00  0.00    -0.020 C
HETATM   40  C17 UNL     1      11.705 -17.844  18.875  1.00  0.00     0.009 C
HETATM   41  C18 UNL     1      12.982 -18.799  20.795  1.00  0.00     0.009 C
ENDBRANCH  38  39
ENDBRANCH  11  38
BRANCH  16  42
HETATM   42  C21 UNL     1      11.927 -10.775  21.523  1.00  0.00     0.038 C
BRANCH  42  43
HETATM   43  C22 UNL     1      11.581 -10.176  22.832  1.00  0.00    -0.020 C
HETATM   44  C23 UNL     1      11.336 -11.039  24.002  1.00  0.00     0.009 C
HETATM   45  C24 UNL     1      12.634  -9.129  23.226  1.00  0.00     0.009 C
ENDBRANCH  42  43
ENDBRANCH  16  42
TORSDOF 11
ENDMDL