MODEL 4
REMARK VINA RESULT: -7.766761153      1.136      1.362
REMARK  12 active torsions:
REMARK  status: ('A' for Active; 'I' for Inactive)
REMARK    1  A    between atoms: C2_2  and  C4_4
REMARK    2  A    between atoms: C4_4  and  C5_5
REMARK    3  A    between atoms: C7_7  and  O1_8
REMARK    4  A    between atoms: C9_12  and  C10_13
REMARK    5  A    between atoms: C10_13  and  C11_14
REMARK    6  A    between atoms: C14_17  and  O2_18
REMARK    7  A    between atoms: C15_22  and  C16_23
REMARK    8  A    between atoms: C16_23  and  C17_24
REMARK    9  A    between atoms: C21_31  and  C22_32
REMARK   10  A    between atoms: C22_32  and  C23_33
REMARK   11  A    between atoms: C23_33  and  C24_34
REMARK   12  A    between atoms: C24_34  and  N4_35
ROOT
HETATM    1  C5  UNL     1      13.458 -16.407  19.231  1.00  0.00     0.092 C
HETATM    2  C6  UNL     1      14.161 -15.165  18.731  1.00  0.00     0.108 C
HETATM    3  C7  UNL     1      13.536 -13.942  19.270  1.00  0.00     0.115 C
HETATM    4  N1  UNL     1      14.089 -12.715  19.583  1.00  0.00    -0.357 N
HETATM    5  C8  UNL     1      13.499 -12.041  20.766  1.00  0.00     0.152 C
HETATM    6  C9  UNL     1      15.133 -11.952  18.915  1.00  0.00     0.160 C
HETATM    7  C14 UNL     1      16.299 -11.802  19.817  1.00  0.00     0.135 C
HETATM    8  N2  UNL     1      17.339 -12.635  20.162  1.00  0.00    -0.359 N
ATOM      9  H2  UNL     1      18.249 -12.246  19.913  1.00  0.00     0.162 HD
HETATM   10  C15 UNL     1      17.444 -13.915  20.786  1.00  0.00     0.175 C
HETATM   11  C20 UNL     1      16.473 -14.144  21.896  1.00  0.00     0.241 C
HETATM   12  O3  UNL     1      16.362 -13.149  22.695  1.00  0.00    -0.271 OA
HETATM   13  N3  UNL     1      15.703 -15.262  22.163  1.00  0.00    -0.347 N
ATOM     14  H3  UNL     1      14.724 -15.110  22.404  1.00  0.00     0.163 HD
HETATM   15  C21 UNL     1      16.188 -16.669  22.125  1.00  0.00     0.164 C
HETATM   16  C26 UNL     1      14.990 -17.531  21.947  1.00  0.00     0.238 C
HETATM   17  O4  UNL     1      14.251 -17.730  22.952  1.00  0.00    -0.285 OA
HETATM   18  C27 UNL     1      14.588 -18.172  20.696  1.00  0.00     0.289 C
HETATM   19  O5  UNL     1      14.389 -19.448  20.676  1.00  0.00    -0.264 OA
HETATM   20  N7  UNL     1      14.386 -17.503  19.460  1.00  0.00    -0.349 N
ATOM     21  H7  UNL     1      14.939 -17.819  18.663  1.00  0.00     0.163 HD
ENDROOT
BRANCH  15  22
HETATM   22  C22 UNL     1      16.761 -16.896  23.487  1.00  0.00     0.035 C
BRANCH  22  23
HETATM   23  C23 UNL     1      18.194 -17.122  23.663  1.00  0.00     0.022 C
BRANCH  23  24
HETATM   24  C24 UNL     1      19.008 -17.718  22.569  1.00  0.00     0.122 C
BRANCH  24  25
HETATM   25  N4  UNL     1      20.425 -17.691  23.005  1.00  0.00    -0.367 N
HETATM   26  C25 UNL     1      21.373 -17.334  22.214  1.00  0.00     0.196 C
HETATM   27  N5  UNL     1      22.694 -17.342  22.730  1.00  0.00    -0.067 NA
HETATM   28  N6  UNL     1      21.181 -16.934  20.870  1.00  0.00    -0.067 NA
ATOM     29  H4  UNL     1      20.654 -17.964  23.961  1.00  0.00     0.161 HD
ENDBRANCH  24  25
ENDBRANCH  23  24
ENDBRANCH  22  23
ENDBRANCH  15  22
BRANCH  10  30
HETATM   30  C16 UNL     1      18.779 -14.216  21.387  1.00  0.00     0.038 C
BRANCH  30  31
HETATM   31  C17 UNL     1      19.804 -13.178  21.485  1.00  0.00    -0.020 C
HETATM   32  C18 UNL     1      20.514 -12.867  20.204  1.00  0.00     0.009 C
HETATM   33  C19 UNL     1      20.927 -13.619  22.462  1.00  0.00     0.009 C
ENDBRANCH  30  31
ENDBRANCH  10  30
BRANCH   1  34
HETATM   34  C4  UNL     1      12.373 -16.842  18.245  1.00  0.00     0.029 C
BRANCH  34  35
HETATM   35  C2  UNL     1      11.137 -17.335  18.940  1.00  0.00    -0.021 C
HETATM   36  C1  UNL     1       9.960 -16.589  18.318  1.00  0.00     0.009 C
HETATM   37  C3  UNL     1      11.141 -17.073  20.414  1.00  0.00     0.009 C
ENDBRANCH  34  35
ENDBRANCH   1  34
BRANCH   7  38
HETATM   38  O2  UNL     1      16.326 -10.627  20.392  1.00  0.00    -0.348 OA
ATOM     39  H2  UNL     1      15.624 -10.524  21.024  1.00  0.00     0.219 HD
ENDBRANCH   7  38
BRANCH   6  40
HETATM   40  C10 UNL     1      15.366 -12.357  17.521  1.00  0.00     0.037 C
BRANCH  40  41
HETATM   41  C11 UNL     1      15.822 -11.369  16.525  1.00  0.00    -0.020 C
HETATM   42  C12 UNL     1      15.258 -11.340  15.172  1.00  0.00     0.009 C
HETATM   43  C13 UNL     1      17.361 -11.432  16.338  1.00  0.00     0.009 C
ENDBRANCH  40  41
ENDBRANCH   6  40
BRANCH   3  44
HETATM   44  O1  UNL     1      12.257 -14.066  19.473  1.00  0.00    -0.349 OA
ATOM     45  H1  UNL     1      11.754 -13.325  19.158  1.00  0.00     0.219 HD
ENDBRANCH   3  44
TORSDOF 12
ENDMDL