MODEL 4
REMARK VINA RESULT: -7.095614624      1.004      1.171
REMARK  14 active torsions:
REMARK  status: ('A' for Active; 'I' for Inactive)
REMARK    1  A    between atoms: C2_2  and  N1_3
REMARK    2  A    between atoms: N3_10  and  C7_12
REMARK    3  A    between atoms: C7_12  and  C8_13
REMARK    4  A    between atoms: C8_13  and  N4_14
REMARK       I    between atoms: N4_14  and  C9_16
REMARK       I    between atoms: C9_16  and  N5_18
REMARK    5  A    between atoms: C10_21  and  O2_22
REMARK    6  A    between atoms: C11_24  and  C12_25
REMARK    7  A    between atoms: C16_32  and  C17_33
REMARK    8  A    between atoms: C17_33  and  C18_34
REMARK    9  A    between atoms: C22_39  and  O4_40
REMARK   10  A    between atoms: C23_42  and  C24_43
REMARK   11  A    between atoms: C24_43  and  C25_44
REMARK   12  A    between atoms: C25_44  and  C26_45
REMARK   13  A    between atoms: C26_45  and  C27_46
REMARK   14  A    between atoms: C27_46  and  N9_47
ROOT
HETATM    1  N4  UNL     1      17.474 -17.268  23.004  1.00  0.00    -0.340 N
ATOM      2  H4  UNL     1      17.133 -18.005  22.387  1.00  0.00     0.164 HD
HETATM    3  C9  UNL     1      17.166 -15.911  22.747  1.00  0.00     0.338 C
HETATM    4  O1  UNL     1      17.580 -15.010  23.498  1.00  0.00    -0.245 OA
HETATM    5  N5  UNL     1      16.347 -15.501  21.585  1.00  0.00    -0.225 N
HETATM    6  N6  UNL     1      15.793 -16.422  20.746  1.00  0.00    -0.275 N
ATOM      7  H6  UNL     1      16.539 -16.915  20.255  1.00  0.00     0.189 HD
HETATM    8  C10 UNL     1      14.562 -16.926  20.326  1.00  0.00     0.154 C
HETATM    9  C11 UNL     1      13.412 -16.302  19.625  1.00  0.00     0.164 C
HETATM   10  N7  UNL     1      13.759 -15.928  18.270  1.00  0.00    -0.343 N
ATOM     11  H7  UNL     1      13.357 -16.493  17.522  1.00  0.00     0.163 HD
HETATM   12  C15 UNL     1      14.583 -14.878  17.886  1.00  0.00     0.268 C
HETATM   13  O3  UNL     1      15.241 -15.106  16.795  1.00  0.00    -0.266 OA
HETATM   14  C16 UNL     1      14.870 -13.578  18.444  1.00  0.00     0.100 C
HETATM   15  N8  UNL     1      14.468 -13.251  19.784  1.00  0.00    -0.329 N
HETATM   16  C21 UNL     1      13.274 -12.375  19.820  1.00  0.00     0.158 C
HETATM   17  C22 UNL     1      15.035 -13.620  20.998  1.00  0.00     0.147 C
HETATM   18  C23 UNL     1      16.324 -14.017  21.504  1.00  0.00     0.210 C
ENDROOT
BRANCH  18  19
HETATM   19  C24 UNL     1      17.581 -13.510  20.934  1.00  0.00     0.005 C
BRANCH  19  20
HETATM   20  C25 UNL     1      18.151 -12.222  21.315  1.00  0.00    -0.026 C
BRANCH  20  21
HETATM   21  C26 UNL     1      19.451 -11.728  20.884  1.00  0.00     0.054 C
BRANCH  21  22
HETATM   22  C27 UNL     1      20.142 -12.912  20.158  1.00  0.00     0.233 C
BRANCH  22  23
HETATM   23  N9  UNL     1      20.408 -12.578  18.794  1.00  0.00    -0.079 N
ATOM     24  H93 UNL     1      20.989 -13.282  18.338  1.00  0.00     0.274 HD
ATOM     25  H92 UNL     1      19.574 -12.668  18.213  1.00  0.00     0.274 HD
ATOM     26  H91 UNL     1      20.818 -11.647  18.727  1.00  0.00     0.274 HD
ENDBRANCH  22  23
ENDBRANCH  21  22
ENDBRANCH  20  21
ENDBRANCH  19  20
ENDBRANCH  18  19
BRANCH   1  27
HETATM   27  C8  UNL     1      18.280 -17.590  24.156  1.00  0.00     0.153 C
BRANCH  27  28
HETATM   28  C7  UNL     1      19.728 -17.387  23.776  1.00  0.00     0.266 C
BRANCH  28  29
HETATM   29  N3  UNL     1      20.531 -16.916  24.859  1.00  0.00    -0.008 N
HETATM   30  C3  UNL     1      20.763 -15.504  24.685  1.00  0.00     0.279 C
HETATM   31  N1  UNL     1      20.221 -14.649  25.425  1.00  0.00    -0.336 N
HETATM   32  N2  UNL     1      21.679 -15.450  23.606  1.00  0.00    -0.354 N
ATOM     33  H1  UNL     1      19.587 -15.022  26.132  1.00  0.00     0.167 HD
HETATM   34  C4  UNL     1      22.624 -16.558  23.823  1.00  0.00     0.151 C
ATOM     35  H2  UNL     1      21.683 -14.780  22.836  1.00  0.00     0.162 HD
HETATM   36  C5  UNL     1      21.841 -17.491  24.713  1.00  0.00     0.266 C
HETATM   37  C6  UNL     1      19.950 -17.188  26.152  1.00  0.00     0.283 C
BRANCH  31  38
HETATM   38  C2  UNL     1      20.361 -13.262  25.420  1.00  0.00     0.059 C
HETATM   39  C1  UNL     1      21.039 -12.737  26.654  1.00  0.00     0.055 C
ENDBRANCH  31  38
ENDBRANCH  28  29
ENDBRANCH  27  28
ENDBRANCH   1  27
BRANCH   8  40
HETATM   40  O2  UNL     1      14.262 -18.200  20.541  1.00  0.00    -0.347 OA
ATOM     41  H2  UNL     1      13.735 -18.441  21.293  1.00  0.00     0.219 HD
ENDBRANCH   8  40
BRANCH  17  42
HETATM   42  O4  UNL     1      14.146 -13.608  21.961  1.00  0.00    -0.347 OA
ATOM     43  H4  UNL     1      14.215 -14.385  22.503  1.00  0.00     0.219 HD
ENDBRANCH  17  42
BRANCH   9  44
HETATM   44  C12 UNL     1      12.233 -17.303  19.452  1.00  0.00     0.008 C
HETATM   45  C13 UNL     1      11.981 -17.614  18.009  1.00  0.00     0.012 C
HETATM   46  C14 UNL     1      11.026 -16.871  20.211  1.00  0.00     0.012 C
ENDBRANCH   9  44
BRANCH  14  47
HETATM   47  C17 UNL     1      14.683 -12.539  17.418  1.00  0.00     0.012 C
BRANCH  47  48
HETATM   48  C18 UNL     1      15.749 -11.724  16.869  1.00  0.00     0.002 C
HETATM   49  C19 UNL     1      16.245 -11.955  15.487  1.00  0.00     0.013 C
HETATM   50  C20 UNL     1      17.005 -12.007  17.750  1.00  0.00     0.013 C
ENDBRANCH  47  48
ENDBRANCH  14  47
TORSDOF 14
ENDMDL