MODEL 1
REMARK VINA RESULT: -6.385743923      0.000      0.000
REMARK  11 active torsions:
REMARK  status: ('A' for Active; 'I' for Inactive)
REMARK    1  A    between atoms: C2_2  and  C3_3
REMARK    2  A    between atoms: C3_3  and  C4_4
REMARK    3  A    between atoms: C4_4  and  C5_5
REMARK    4  A    between atoms: C7_10  and  C8_11
REMARK    5  A    between atoms: C8_11  and  C9_12
REMARK    6  A    between atoms: C9_12  and  C10_13
REMARK    7  A    between atoms: C10_13  and  N2_14
REMARK    8  A    between atoms: C14_23  and  C15_24
REMARK    9  A    between atoms: C15_24  and  C17_26
REMARK   10  A    between atoms: C20_32  and  C21_33
REMARK   11  A    between atoms: C21_33  and  C22_34
ROOT
HETATM    1  C5  UNL     1      17.482 -18.145  22.716  1.00  0.00     0.171 C
HETATM    2  C6  UNL     1      18.708 -18.960  22.782  1.00  0.00     0.240 C
HETATM    3  O1  UNL     1      18.479 -20.226  22.617  1.00  0.00    -0.271 OA
HETATM    4  N1  UNL     1      20.021 -18.597  22.987  1.00  0.00    -0.346 N
ATOM      5  H1  UNL     1      20.476 -19.111  23.742  1.00  0.00     0.163 HD
HETATM    6  C7  UNL     1      20.876 -17.633  22.343  1.00  0.00     0.176 C
HETATM    7  C12 UNL     1      21.811 -16.991  23.330  1.00  0.00     0.243 C
HETATM    8  O2  UNL     1      23.055 -17.108  23.065  1.00  0.00    -0.271 OA
HETATM    9  N5  UNL     1      21.431 -16.282  24.504  1.00  0.00    -0.341 N
HETATM   10  C13 UNL     1      22.292 -16.535  25.643  1.00  0.00     0.153 C
HETATM   11  C14 UNL     1      20.279 -15.413  24.479  1.00  0.00     0.182 C
HETATM   12  C19 UNL     1      20.507 -14.169  23.681  1.00  0.00     0.241 C
HETATM   13  O3  UNL     1      21.761 -13.859  23.613  1.00  0.00    -0.271 OA
HETATM   14  N6  UNL     1      19.613 -13.343  23.042  1.00  0.00    -0.346 N
ATOM     15  H6  UNL     1      19.603 -12.398  23.426  1.00  0.00     0.163 HD
HETATM   16  C20 UNL     1      18.687 -13.514  21.953  1.00  0.00     0.177 C
HETATM   17  C25 UNL     1      17.327 -13.857  22.334  1.00  0.00     0.240 C
HETATM   18  O4  UNL     1      16.980 -13.682  23.536  1.00  0.00    -0.271 OA
HETATM   19  N7  UNL     1      16.344 -14.374  21.474  1.00  0.00    -0.358 N
ATOM     20  H7  UNL     1      15.436 -13.908  21.488  1.00  0.00     0.162 HD
HETATM   21  C26 UNL     1      16.483 -15.502  20.567  1.00  0.00     0.142 C
HETATM   22  C27 UNL     1      17.492 -16.493  20.982  1.00  0.00     0.136 C
HETATM   23  N8  UNL     1      17.034 -17.786  21.404  1.00  0.00    -0.403 N
HETATM   24  C28 UNL     1      15.712 -18.136  21.055  1.00  0.00     0.144 C
ENDROOT
BRANCH   6  25
HETATM   25  C8  UNL     1      21.721 -18.262  21.233  1.00  0.00     0.036 C
BRANCH  25  26
HETATM   26  C9  UNL     1      21.832 -19.736  21.309  1.00  0.00     0.022 C
BRANCH  26  27
HETATM   27  C10 UNL     1      21.421 -20.373  19.989  1.00  0.00     0.122 C
BRANCH  27  28
HETATM   28  N2  UNL     1      20.003 -20.279  19.880  1.00  0.00    -0.367 N
HETATM   29  C11 UNL     1      19.306 -20.296  18.804  1.00  0.00     0.196 C
HETATM   30  N3  UNL     1      17.898 -20.191  18.904  1.00  0.00    -0.067 NA
HETATM   31  N4  UNL     1      19.914 -20.414  17.536  1.00  0.00    -0.067 NA
ATOM     32  H2  UNL     1      19.486 -20.187  20.755  1.00  0.00     0.161 HD
ENDBRANCH  27  28
ENDBRANCH  26  27
ENDBRANCH  25  26
ENDBRANCH   6  25
BRANCH   1  33
HETATM   33  C4  UNL     1      16.307 -18.815  23.436  1.00  0.00     0.034 C
BRANCH  33  34
HETATM   34  C3  UNL     1      16.205 -18.258  24.860  1.00  0.00     0.002 C
BRANCH  34  35
HETATM   35  C2  UNL     1      16.079 -19.373  25.864  1.00  0.00    -0.004 C
HETATM   36  C1  UNL     1      17.366 -20.096  26.115  1.00  0.00     0.005 C
ENDBRANCH  34  35
ENDBRANCH  33  34
ENDBRANCH   1  33
BRANCH  11  37
HETATM   37  C15 UNL     1      19.822 -14.998  25.850  1.00  0.00     0.013 C
HETATM   38  C16 UNL     1      20.257 -13.665  26.311  1.00  0.00     0.012 C
BRANCH  37  39
HETATM   39  C17 UNL     1      18.454 -15.463  26.232  1.00  0.00     0.002 C
HETATM   40  C18 UNL     1      18.525 -16.688  27.150  1.00  0.00     0.005 C
ENDBRANCH  37  39
ENDBRANCH  11  37
BRANCH  16  41
HETATM   41  C21 UNL     1      18.531 -12.146  21.229  1.00  0.00     0.038 C
BRANCH  41  42
HETATM   42  C22 UNL     1      19.114 -12.210  19.844  1.00  0.00    -0.020 C
HETATM   43  C23 UNL     1      17.924 -12.388  18.901  1.00  0.00     0.009 C
HETATM   44  C24 UNL     1      20.029 -13.385  19.629  1.00  0.00     0.009 C
ENDBRANCH  41  42
ENDBRANCH  16  41
TORSDOF 11
ENDMDL