MODEL 3
REMARK VINA RESULT: -7.247984942      2.189      6.473
REMARK  11 active torsions:
REMARK  status: ('A' for Active; 'I' for Inactive)
REMARK    1  A    between atoms: C2_2  and  C3_3
REMARK    2  A    between atoms: C3_3  and  N1_4
REMARK       I    between atoms: N1_4  and  C4_6
REMARK    3  A    between atoms: C4_6  and  C5_8
REMARK    4  A    between atoms: C5_8  and  C6_9
REMARK    5  A    between atoms: C9_18  and  C10_19
REMARK    6  A    between atoms: C10_19  and  C11_20
REMARK    7  A    between atoms: C15_27  and  C16_28
REMARK    8  A    between atoms: C16_28  and  C17_29
REMARK    9  A    between atoms: C20_34  and  O5_35
REMARK   10  A    between atoms: C21_37  and  C22_38
REMARK   11  A    between atoms: C22_38  and  C23_39
ROOT
HETATM    1  C6  UNL     1      16.917 -12.491  20.495  1.00  0.00     0.187 C
HETATM    2  N2  UNL     1      15.933 -12.358  21.557  1.00  0.00    -0.329 N
ATOM      3  H2  UNL     1      16.300 -12.367  22.509  1.00  0.00     0.165 HD
HETATM    4  C7  UNL     1      14.558 -12.220  21.440  1.00  0.00     0.323 C
HETATM    5  O2  UNL     1      14.037 -11.328  22.226  1.00  0.00    -0.247 OA
HETATM    6  N3  UNL     1      13.635 -12.883  20.624  1.00  0.00    -0.278 N
ATOM      7  H3  UNL     1      12.831 -12.321  20.345  1.00  0.00     0.173 HD
HETATM    8  C8  UNL     1      13.636 -14.190  20.131  1.00  0.00     0.248 C
HETATM    9  O3  UNL     1      13.676 -14.363  18.859  1.00  0.00    -0.271 OA
HETATM   10  C9  UNL     1      13.592 -15.468  20.901  1.00  0.00     0.177 C
HETATM   11  N4  UNL     1      14.502 -16.398  20.264  1.00  0.00    -0.346 N
ATOM     12  H4  UNL     1      14.339 -16.576  19.273  1.00  0.00     0.163 HD
HETATM   13  C14 UNL     1      15.585 -17.088  20.846  1.00  0.00     0.241 C
HETATM   14  O4  UNL     1      15.706 -18.334  20.560  1.00  0.00    -0.271 OA
HETATM   15  C15 UNL     1      16.605 -16.531  21.748  1.00  0.00     0.175 C
HETATM   16  N5  UNL     1      17.723 -16.034  20.965  1.00  0.00    -0.359 N
ATOM     17  H5  UNL     1      17.581 -16.103  19.957  1.00  0.00     0.162 HD
HETATM   18  C20 UNL     1      18.935 -15.490  21.318  1.00  0.00     0.135 C
HETATM   19  C21 UNL     1      19.309 -14.323  22.152  1.00  0.00     0.161 C
HETATM   20  N6  UNL     1      19.339 -13.095  21.342  1.00  0.00    -0.343 N
HETATM   21  C26 UNL     1      20.684 -12.743  20.813  1.00  0.00     0.153 C
HETATM   22  C27 UNL     1      18.281 -12.249  21.023  1.00  0.00     0.243 C
HETATM   23  O6  UNL     1      18.481 -10.984  21.209  1.00  0.00    -0.271 OA
ENDROOT
BRANCH   1  24
HETATM   24  C5  UNL     1      16.566 -11.395  19.457  1.00  0.00     0.137 C
BRANCH  24  25
HETATM   25  C4  UNL     1      16.662 -11.868  18.076  1.00  0.00     0.220 C
HETATM   26  N1  UNL     1      15.676 -12.441  17.276  1.00  0.00    -0.358 N
ATOM     27  H1  UNL     1      14.744 -12.569  17.669  1.00  0.00     0.162 HD
HETATM   28  O1  UNL     1      17.817 -11.735  17.531  1.00  0.00    -0.274 OA
BRANCH  26  29
HETATM   29  C3  UNL     1      15.911 -12.860  15.923  1.00  0.00     0.149 C
BRANCH  29  30
HETATM   30  C2  UNL     1      15.537 -11.850  14.935  1.00  0.00    -0.018 C
HETATM   31  C1  UNL     1      16.486 -11.236  14.259  1.00  0.00     0.008 C
ENDBRANCH  29  30
ENDBRANCH  26  29
ENDBRANCH  24  25
ENDBRANCH   1  24
BRANCH  19  32
HETATM   32  C22 UNL     1      18.613 -14.207  23.452  1.00  0.00     0.037 C
BRANCH  32  33
HETATM   33  C23 UNL     1      19.508 -13.726  24.552  1.00  0.00    -0.020 C
HETATM   34  C24 UNL     1      20.949 -14.108  24.257  1.00  0.00     0.009 C
HETATM   35  C25 UNL     1      19.146 -14.435  25.864  1.00  0.00     0.009 C
ENDBRANCH  32  33
ENDBRANCH  19  32
BRANCH  18  36
HETATM   36  O5  UNL     1      19.942 -16.148  20.799  1.00  0.00    -0.348 OA
ATOM     37  H5  UNL     1      20.403 -16.668  21.448  1.00  0.00     0.219 HD
ENDBRANCH  18  36
BRANCH  10  38
HETATM   38  C10 UNL     1      12.190 -16.097  20.744  1.00  0.00     0.038 C
BRANCH  38  39
HETATM   39  C11 UNL     1      12.186 -17.299  19.867  1.00  0.00    -0.020 C
HETATM   40  C12 UNL     1      11.197 -17.133  18.763  1.00  0.00     0.009 C
HETATM   41  C13 UNL     1      11.787 -18.513  20.720  1.00  0.00     0.009 C
ENDBRANCH  38  39
ENDBRANCH  10  38
BRANCH  15  42
HETATM   42  C16 UNL     1      16.962 -17.462  22.828  1.00  0.00     0.038 C
BRANCH  42  43
HETATM   43  C17 UNL     1      16.118 -17.437  24.038  1.00  0.00    -0.020 C
HETATM   44  C18 UNL     1      17.037 -17.418  25.301  1.00  0.00     0.009 C
HETATM   45  C19 UNL     1      15.162 -18.535  24.319  1.00  0.00     0.009 C
ENDBRANCH  42  43
ENDBRANCH  15  42
TORSDOF 11
ENDMDL