MODEL 5
REMARK VINA RESULT: -6.544419772      2.749      7.540
REMARK  12 active torsions:
REMARK  status: ('A' for Active; 'I' for Inactive)
REMARK    1  A    between atoms: C2_2  and  C4_4
REMARK    2  A    between atoms: C4_4  and  C5_5
REMARK    3  A    between atoms: C7_10  and  C8_11
REMARK    4  A    between atoms: C8_11  and  N2_12
REMARK    5  A    between atoms: C14_21  and  C15_22
REMARK    6  A    between atoms: C15_22  and  C16_23
REMARK    7  A    between atoms: C16_23  and  C17_24
REMARK    8  A    between atoms: C17_24  and  N4_25
REMARK    9  A    between atoms: N7_32  and  C20_33
REMARK   10  A    between atoms: C20_33  and  C21_34
REMARK   11  A    between atoms: C24_37  and  C25_38
REMARK   12  A    between atoms: C28_43  and  O4_44
ROOT
HETATM    1  C5  UNL     1      18.397 -17.768  24.550  1.00  0.00     0.159 C
HETATM    2  N1  UNL     1      19.318 -17.500  23.505  1.00  0.00    -0.349 N
ATOM      3  H1  UNL     1      19.633 -18.321  22.989  1.00  0.00     0.163 HD
HETATM    4  C6  UNL     1      19.861 -16.295  23.074  1.00  0.00     0.224 C
HETATM    5  O1  UNL     1      20.394 -16.201  21.932  1.00  0.00    -0.273 OA
HETATM    6  C7  UNL     1      19.885 -15.005  23.868  1.00  0.00     0.112 C
HETATM    7  C12 UNL     1      19.012 -14.068  23.010  1.00  0.00     0.118 C
HETATM    8  C13 UNL     1      17.586 -14.178  23.414  1.00  0.00     0.219 C
HETATM    9  O2  UNL     1      17.333 -13.560  24.521  1.00  0.00    -0.274 OA
HETATM   10  N3  UNL     1      16.542 -14.833  22.785  1.00  0.00    -0.348 N
ATOM     11  H3  UNL     1      16.101 -15.559  23.349  1.00  0.00     0.163 HD
HETATM   12  C14 UNL     1      15.972 -14.669  21.478  1.00  0.00     0.176 C
HETATM   13  C19 UNL     1      15.091 -15.803  21.117  1.00  0.00     0.244 C
HETATM   14  O3  UNL     1      14.168 -15.544  20.255  1.00  0.00    -0.271 OA
HETATM   15  N7  UNL     1      15.165 -17.126  21.624  1.00  0.00    -0.328 N
HETATM   16  C24 UNL     1      16.423 -17.844  21.821  1.00  0.00     0.191 C
HETATM   17  N8  UNL     1      16.485 -18.621  23.010  1.00  0.00    -0.351 N
ATOM     18  H8  UNL     1      15.955 -19.491  22.967  1.00  0.00     0.163 HD
HETATM   19  C28 UNL     1      17.137 -18.412  24.222  1.00  0.00     0.136 C
ENDROOT
BRANCH  12  20
HETATM   20  C15 UNL     1      17.014 -14.360  20.423  1.00  0.00     0.036 C
BRANCH  20  21
HETATM   21  C16 UNL     1      16.751 -13.029  19.755  1.00  0.00     0.022 C
BRANCH  21  22
HETATM   22  C17 UNL     1      16.781 -11.960  20.857  1.00  0.00     0.122 C
BRANCH  22  23
HETATM   23  N4  UNL     1      15.760 -10.972  20.708  1.00  0.00    -0.367 N
HETATM   24  C18 UNL     1      14.656 -11.032  21.358  1.00  0.00     0.196 C
HETATM   25  N5  UNL     1      14.426 -12.095  22.251  1.00  0.00    -0.067 NA
HETATM   26  N6  UNL     1      13.672 -10.032  21.178  1.00  0.00    -0.067 NA
ATOM     27  H4  UNL     1      15.914 -10.196  20.064  1.00  0.00     0.161 HD
ENDBRANCH  22  23
ENDBRANCH  21  22
ENDBRANCH  20  21
ENDBRANCH  12  20
BRANCH  15  28
HETATM   28  C20 UNL     1      13.936 -17.814  21.922  1.00  0.00     0.132 C
BRANCH  28  29
HETATM   29  C21 UNL     1      13.308 -18.577  20.817  1.00  0.00    -0.005 C
HETATM   30  C22 UNL     1      11.854 -18.107  20.611  1.00  0.00     0.011 C
HETATM   31  C23 UNL     1      13.199 -20.066  21.039  1.00  0.00     0.011 C
ENDBRANCH  28  29
ENDBRANCH  15  28
BRANCH  16  32
HETATM   32  C25 UNL     1      16.551 -18.851  20.651  1.00  0.00     0.020 C
HETATM   33  C26 UNL     1      17.772 -19.700  20.828  1.00  0.00     0.013 C
HETATM   34  C27 UNL     1      16.587 -18.179  19.323  1.00  0.00     0.013 C
ENDBRANCH  16  32
BRANCH   6  35
HETATM   35  C8  UNL     1      21.317 -14.557  23.778  1.00  0.00     0.250 C
BRANCH  35  36
HETATM   36  N2  UNL     1      22.055 -14.462  24.985  1.00  0.00    -0.078 N
HETATM   37  C9  UNL     1      21.318 -13.658  25.950  1.00  0.00     0.271 C
HETATM   38  C10 UNL     1      23.310 -13.696  24.760  1.00  0.00     0.271 C
HETATM   39  C11 UNL     1      22.437 -15.673  25.623  1.00  0.00     0.271 C
ENDBRANCH  35  36
ENDBRANCH   6  35
BRANCH  19  40
HETATM   40  O4  UNL     1      16.512 -18.872  25.266  1.00  0.00    -0.348 OA
ATOM     41  H4  UNL     1      15.593 -19.045  25.103  1.00  0.00     0.219 HD
ENDBRANCH  19  40
BRANCH   1  42
HETATM   42  C4  UNL     1      19.084 -18.495  25.678  1.00  0.00     0.037 C
BRANCH  42  43
HETATM   43  C2  UNL     1      19.272 -17.763  26.942  1.00  0.00    -0.020 C
HETATM   44  C1  UNL     1      18.566 -16.398  26.751  1.00  0.00     0.009 C
HETATM   45  C3  UNL     1      18.636 -18.342  28.171  1.00  0.00     0.009 C
ENDBRANCH  42  43
ENDBRANCH   1  42
TORSDOF 12
ENDMDL