MODEL 2
REMARK VINA RESULT: -7.607707994      1.192      1.369
REMARK  11 active torsions:
REMARK  status: ('A' for Active; 'I' for Inactive)
REMARK    1  A    between atoms: C2_2  and  C4_4
REMARK    2  A    between atoms: C4_4  and  C5_5
REMARK    3  A    between atoms: C7_10  and  C8_11
REMARK    4  A    between atoms: C8_11  and  N2_12
REMARK    5  A    between atoms: C11_19  and  C12_20
REMARK    6  A    between atoms: C12_20  and  C13_21
REMARK    7  A    between atoms: C15_27  and  N7_28
REMARK    8  A    between atoms: N8_33  and  C17_34
REMARK    9  A    between atoms: C17_34  and  C18_35
REMARK   10  A    between atoms: C21_38  and  C22_39
REMARK   11  A    between atoms: C22_39  and  C23_40
ROOT
HETATM    1  C5  UNL     1      17.102 -17.523  21.249  1.00  0.00     0.179 C
HETATM    2  C6  UNL     1      16.059 -17.318  22.281  1.00  0.00     0.241 C
HETATM    3  O1  UNL     1      16.071 -18.102  23.291  1.00  0.00    -0.271 OA
HETATM    4  N1  UNL     1      15.084 -16.296  22.158  1.00  0.00    -0.346 N
ATOM      5  H1  UNL     1      14.805 -15.836  23.025  1.00  0.00     0.163 HD
HETATM    6  C7  UNL     1      14.453 -15.836  20.985  1.00  0.00     0.172 C
HETATM    7  C10 UNL     1      15.138 -14.952  20.072  1.00  0.00     0.164 C
HETATM    8  O2  UNL     1      14.883 -15.177  18.855  1.00  0.00    -0.295 OA
HETATM    9  C11 UNL     1      16.070 -13.846  20.252  1.00  0.00     0.154 C
HETATM   10  C16 UNL     1      16.702 -13.695  21.558  1.00  0.00     0.236 C
HETATM   11  O3  UNL     1      15.898 -13.292  22.478  1.00  0.00    -0.272 OA
HETATM   12  N8  UNL     1      18.085 -13.940  21.914  1.00  0.00    -0.316 N
HETATM   13  C21 UNL     1      18.877 -14.765  21.107  1.00  0.00     0.083 C
HETATM   14  C26 UNL     1      19.219 -16.131  21.571  1.00  0.00     0.266 C
HETATM   15  O4  UNL     1      20.452 -16.293  21.813  1.00  0.00    -0.266 OA
HETATM   16  N9  UNL     1      18.434 -17.272  21.789  1.00  0.00    -0.338 N
HETATM   17  C27 UNL     1      18.906 -18.383  22.639  1.00  0.00     0.154 C
ENDROOT
BRANCH   9  18
HETATM   18  C12 UNL     1      15.285 -12.525  20.049  1.00  0.00     0.065 C
BRANCH  18  19
HETATM   19  C13 UNL     1      15.333 -12.014  18.695  1.00  0.00     0.005 A
HETATM   20  C14 UNL     1      16.356 -12.201  17.795  1.00  0.00     0.118 A
HETATM   21  N5  UNL     1      16.008 -11.577  16.664  1.00  0.00    -0.310 N
HETATM   22  N6  UNL     1      14.826 -11.001  16.784  1.00  0.00    -0.286 N
ATOM     23  H5  UNL     1      16.581 -11.549  15.821  1.00  0.00     0.186 HD
HETATM   24  C15 UNL     1      14.385 -11.264  18.052  1.00  0.00     0.121 A
ATOM     25  H6  UNL     1      14.335 -10.464  16.070  1.00  0.00     0.188 HD
BRANCH  24  26
HETATM   26  N7  UNL     1      13.244 -10.816  18.449  1.00  0.00    -0.384 N
ATOM     27  H72 UNL     1      12.446 -11.446  18.535  1.00  0.00     0.157 HD
ATOM     28  H71 UNL     1      12.946  -9.878  18.717  1.00  0.00     0.157 HD
ENDBRANCH  24  26
ENDBRANCH  18  19
ENDBRANCH   9  18
BRANCH   6  29
HETATM   29  C8  UNL     1      13.092 -15.199  21.320  1.00  0.00     0.154 C
BRANCH  29  30
HETATM   30  N2  UNL     1      13.271 -14.092  22.237  1.00  0.00    -0.365 N
HETATM   31  C9  UNL     1      12.696 -12.976  21.946  1.00  0.00     0.197 C
HETATM   32  N3  UNL     1      12.910 -11.911  22.892  1.00  0.00    -0.067 NA
HETATM   33  N4  UNL     1      11.918 -12.810  20.790  1.00  0.00    -0.067 NA
ATOM     34  H2  UNL     1      13.833 -14.193  23.082  1.00  0.00     0.161 HD
ENDBRANCH  29  30
ENDBRANCH   6  29
BRANCH  12  35
HETATM   35  C17 UNL     1      18.498 -13.228  23.107  1.00  0.00     0.136 C
BRANCH  35  36
HETATM   36  C18 UNL     1      19.138 -13.962  24.204  1.00  0.00    -0.004 C
HETATM   37  C19 UNL     1      20.033 -13.312  25.156  1.00  0.00     0.011 C
HETATM   38  C20 UNL     1      17.993 -14.595  25.029  1.00  0.00     0.011 C
ENDBRANCH  35  36
ENDBRANCH  12  35
BRANCH  13  39
HETATM   39  C22 UNL     1      20.126 -14.212  20.491  1.00  0.00     0.067 C
BRANCH  39  40
HETATM   40  C23 UNL     1      20.144 -12.791  20.056  1.00  0.00    -0.017 C
HETATM   41  C24 UNL     1      20.360 -12.786  18.512  1.00  0.00     0.010 C
HETATM   42  C25 UNL     1      21.227 -11.907  20.580  1.00  0.00     0.010 C
ENDBRANCH  39  40
ENDBRANCH  13  39
BRANCH   1  43
HETATM   43  C4  UNL     1      16.921 -18.927  20.710  1.00  0.00     0.039 C
BRANCH  43  44
HETATM   44  C2  UNL     1      15.750 -19.017  19.778  1.00  0.00    -0.020 C
HETATM   45  C1  UNL     1      16.139 -18.429  18.430  1.00  0.00     0.009 C
HETATM   46  C3  UNL     1      15.430 -20.490  19.483  1.00  0.00     0.009 C
ENDBRANCH  43  44
ENDBRANCH   1  43
TORSDOF 11
ENDMDL