MODEL 3
REMARK VINA RESULT: -8.841725034      0.643      1.115
REMARK  13 active torsions:
REMARK  status: ('A' for Active; 'I' for Inactive)
REMARK    1  A    between atoms: C2_2  and  C4_4
REMARK    2  A    between atoms: C4_4  and  C5_5
REMARK    3  A    between atoms: C5_5  and  C6_6
REMARK    4  A    between atoms: C5_5  and  N1_9
REMARK    5  A    between atoms: C6_6  and  O1_7
REMARK    6  A    between atoms: N1_9  and  C7_11
REMARK    7  A    between atoms: C8_12  and  N2_13
REMARK    8  A    between atoms: C9_16  and  N4_17
REMARK    9  A    between atoms: N4_17  and  C10_19
REMARK   10  A    between atoms: C13_28  and  N9_29
REMARK   11  A    between atoms: C16_38  and  C17_39
REMARK       I    between atoms: C17_39  and  N12_41
REMARK   12  A    between atoms: N12_41  and  N13_43
REMARK   13  A    between atoms: N15_49  and  N16_50
ROOT
HETATM    1  C7  UNL     1     -24.582   2.643 -16.356  1.00  0.00     0.194 A
HETATM    2  C8  UNL     1     -24.797   1.859 -17.443  1.00  0.00     0.209 A
HETATM    3  N10 UNL     1     -25.662   0.868 -17.036  1.00  0.00    -0.061 N
HETATM    4  N11 UNL     1     -26.314  -0.206 -17.462  1.00  0.00    -0.257 N
ATOM      5  H11 UNL     1     -26.272  -0.574 -18.412  1.00  0.00     0.190 HD
HETATM    6  C16 UNL     1     -27.037  -0.738 -16.464  1.00  0.00     0.206 A
HETATM    7  N14 UNL     1     -26.804   0.057 -15.390  1.00  0.00    -0.166 N
ATOM      8  H14 UNL     1     -27.204  -0.068 -14.461  1.00  0.00     0.186 HD
HETATM    9  C18 UNL     1     -25.948   1.051 -15.757  1.00  0.00     0.730 A
HETATM   10  N15 UNL     1     -25.307   2.127 -15.303  1.00  0.00    -0.070 N
ENDROOT
BRANCH   2  11
HETATM   11  N2  UNL     1     -24.278   1.872 -18.793  1.00  0.00    -0.267 N
HETATM   12  N3  UNL     1     -25.017   2.276 -19.871  1.00  0.00    -0.308 N
HETATM   13  C9  UNL     1     -24.373   2.960 -20.939  1.00  0.00     0.216 C
ATOM     14  H3  UNL     1     -26.019   2.087 -19.910  1.00  0.00     0.182 HD
HETATM   15  C12 UNL     1     -22.866   2.838 -20.957  1.00  0.00     0.083 C
HETATM   16  C13 UNL     1     -22.419   1.520 -20.361  1.00  0.00     0.211 C
HETATM   17  C14 UNL     1     -22.923   1.374 -18.972  1.00  0.00     0.136 C
HETATM   18  C15 UNL     1     -22.834  -0.107 -18.602  1.00  0.00     0.036 C
BRANCH  13  19
HETATM   19  N4  UNL     1     -24.947   2.563 -22.213  1.00  0.00    -0.203 N
ATOM     20  H4  UNL     1     -25.278   3.299 -22.838  1.00  0.00     0.180 HD
BRANCH  19  21
HETATM   21  C10 UNL     1     -25.073   1.235 -22.641  1.00  0.00     0.689 C
HETATM   22  N5  UNL     1     -25.951   0.434 -22.145  1.00  0.00    -0.211 N
HETATM   23  C11 UNL     1     -25.984  -0.916 -22.669  1.00  0.00     0.271 C
ATOM     24  H5  UNL     1     -26.595   0.737 -21.415  1.00  0.00     0.179 HD
HETATM   25  N6  UNL     1     -25.880  -0.842 -24.101  1.00  0.00    -0.106 NA
HETATM   26  N7  UNL     1     -24.646  -0.323 -24.514  1.00  0.00    -0.015 NA
HETATM   27  N8  UNL     1     -24.222   0.712 -23.656  1.00  0.00    -0.120 N
ATOM     28  H8  UNL     1     -23.283   1.095 -23.765  1.00  0.00     0.202 HD
ENDBRANCH  19  21
ENDBRANCH  13  19
BRANCH  16  29
HETATM   29  N9  UNL     1     -20.950   1.578 -20.303  1.00  0.00    -0.073 N
ATOM     30  H93 UNL     1     -20.583   2.526 -20.214  1.00  0.00     0.274 HD
ATOM     31  H92 UNL     1     -20.562   1.213 -19.434  1.00  0.00     0.274 HD
ATOM     32  H91 UNL     1     -20.617   1.089 -21.134  1.00  0.00     0.274 HD
ENDBRANCH  16  29
ENDBRANCH   2  11
BRANCH   1  33
HETATM   33  N1  UNL     1     -23.859   3.825 -16.191  1.00  0.00    -0.339 N
ATOM     34  H1  UNL     1     -24.401   4.683 -16.290  1.00  0.00     0.167 HD
BRANCH  33  35
HETATM   35  C5  UNL     1     -22.461   4.013 -15.901  1.00  0.00     0.031 C
BRANCH  35  36
HETATM   36  C4  UNL     1     -21.612   4.487 -16.978  1.00  0.00     0.004 C
BRANCH  36  37
HETATM   37  C2  UNL     1     -20.209   4.861 -16.852  1.00  0.00     0.002 C
HETATM   38  C1  UNL     1     -19.311   3.956 -16.053  1.00  0.00     0.013 C
HETATM   39  C3  UNL     1     -19.950   6.300 -16.450  1.00  0.00     0.013 C
ENDBRANCH  36  37
ENDBRANCH  35  36
BRANCH  35  40
HETATM   40  C6  UNL     1     -22.344   4.564 -14.520  1.00  0.00     0.220 C
BRANCH  40  41
HETATM   41  O1  UNL     1     -22.565   3.630 -13.519  1.00  0.00    -0.395 OA
ATOM     42  H1  UNL     1     -22.306   3.923 -12.654  1.00  0.00     0.209 HD
ENDBRANCH  40  41
ENDBRANCH  35  40
ENDBRANCH  33  35
ENDBRANCH   1  33
BRANCH  10  43
HETATM   43  N16 UNL     1     -25.382   2.614 -13.989  1.00  0.00    -0.322 N
ATOM     44 2H16 UNL     1     -25.769   2.101 -13.196  1.00  0.00     0.178 HD
ATOM     45 1H16 UNL     1     -25.074   3.521 -13.639  1.00  0.00     0.178 HD
ENDBRANCH  10  43
BRANCH   6  46
HETATM   46  C17 UNL     1     -27.899  -1.914 -16.491  1.00  0.00     0.305 C
HETATM   47  O2  UNL     1     -29.132  -1.747 -16.584  1.00  0.00    -0.263 OA
HETATM   48  N12 UNL     1     -27.346  -3.222 -16.413  1.00  0.00    -0.270 N
ATOM     49  H12 UNL     1     -26.335  -3.331 -16.337  1.00  0.00     0.189 HD
BRANCH  48  50
HETATM   50  N13 UNL     1     -28.154  -4.359 -16.436  1.00  0.00    -0.342 N
ATOM     51 2H13 UNL     1     -29.103  -4.284 -16.070  1.00  0.00     0.176 HD
ATOM     52 1H13 UNL     1     -27.816  -5.247 -16.808  1.00  0.00     0.176 HD
ENDBRANCH  48  50
ENDBRANCH   6  46
TORSDOF 13
ENDMDL