MODEL 3
REMARK VINA RESULT: -9.331126366      0.706      1.474
REMARK  12 active torsions:
REMARK  status: ('A' for Active; 'I' for Inactive)
REMARK    1  A    between atoms: N1_1  and  C1_4
REMARK    2  A    between atoms: C3_9  and  N4_10
REMARK    3  A    between atoms: C4_15  and  N6_16
REMARK    4  A    between atoms: C6_18  and  C7_19
REMARK    5  A    between atoms: C8_21  and  O2_22
REMARK    6  A    between atoms: O2_22  and  C9_23
REMARK    7  A    between atoms: C9_23  and  C10_24
REMARK    8  A    between atoms: C10_24  and  C11_25
REMARK    9  A    between atoms: C11_25  and  O3_26
REMARK   10  A    between atoms: N9_30  and  N10_31
REMARK   11  A    between atoms: C13_39  and  C14_40
REMARK   12  A    between atoms: N15_47  and  O5_49
ROOT
HETATM    1  C1  UNL     1     -26.664  -0.544 -15.850  1.00  0.00     0.705 A
HETATM    2  N2  UNL     1     -25.733   0.242 -15.306  1.00  0.00    -0.019 N
ATOM      3  H2  UNL     1     -25.554   0.163 -14.305  1.00  0.00     0.203 HD
HETATM    4  C2  UNL     1     -25.014   1.140 -16.025  1.00  0.00     0.737 A
HETATM    5  N3  UNL     1     -25.266   1.226 -17.332  1.00  0.00     0.018 N
HETATM    6  C3  UNL     1     -26.203   0.449 -17.927  1.00  0.00     0.709 A
HETATM    7  N5  UNL     1     -26.879  -0.419 -17.167  1.00  0.00    -0.022 N
ATOM      8  H5  UNL     1     -27.585  -1.008 -17.607  1.00  0.00     0.203 HD
HETATM    9  C4  UNL     1     -24.390   2.219 -17.899  1.00  0.00     0.305 A
HETATM   10  C12 UNL     1     -23.619   2.743 -16.757  1.00  0.00     0.128 A
HETATM   11  C13 UNL     1     -22.701   3.505 -16.022  1.00  0.00     0.111 A
HETATM   12  N16 UNL     1     -23.142   2.781 -14.965  1.00  0.00    -0.275 N
ATOM     13  H16 UNL     1     -22.896   2.782 -13.975  1.00  0.00     0.188 HD
HETATM   14  N17 UNL     1     -24.004   2.075 -15.673  1.00  0.00    -0.082 N
ENDROOT
BRANCH   9  15
HETATM   15  N6  UNL     1     -23.502   1.472 -18.798  1.00  0.00    -0.256 N
HETATM   16  C5  UNL     1     -22.991   1.915 -19.982  1.00  0.00     0.145 A
HETATM   17  C6  UNL     1     -22.200   0.926 -20.532  1.00  0.00     0.090 A
HETATM   18  N11 UNL     1     -22.260  -0.090 -19.654  1.00  0.00    -0.285 N
HETATM   19  N12 UNL     1     -23.047   0.266 -18.625  1.00  0.00    -0.238 N
ATOM     20  H11 UNL     1     -21.784  -0.988 -19.753  1.00  0.00     0.188 HD
ATOM     21  H12 UNL     1     -23.259  -0.327 -17.822  1.00  0.00     0.208 HD
BRANCH  17  22
HETATM   22  C7  UNL     1     -21.465   1.019 -21.822  1.00  0.00     0.292 C
HETATM   23  O1  UNL     1     -22.345   0.693 -22.826  1.00  0.00    -0.317 OA
HETATM   24  C8  UNL     1     -21.735   0.241 -23.993  1.00  0.00     0.379 C
HETATM   25  N7  UNL     1     -20.697  -0.702 -23.764  1.00  0.00    -0.070 NA
HETATM   26  N8  UNL     1     -19.702  -0.052 -22.988  1.00  0.00    -0.030 NA
HETATM   27  N9  UNL     1     -20.306   0.177 -21.745  1.00  0.00    -0.097 NA
BRANCH  24  28
HETATM   28  O2  UNL     1     -22.748  -0.358 -24.729  1.00  0.00    -0.346 OA
BRANCH  28  29
HETATM   29  C9  UNL     1     -23.999   0.145 -24.564  1.00  0.00     0.174 C
BRANCH  29  30
HETATM   30  C10 UNL     1     -24.964  -0.876 -24.071  1.00  0.00     0.052 C
BRANCH  30  31
HETATM   31  C11 UNL     1     -25.729  -0.343 -22.877  1.00  0.00     0.166 C
BRANCH  31  32
HETATM   32  O3  UNL     1     -24.938  -0.503 -21.713  1.00  0.00    -0.401 OA
ATOM     33  H3  UNL     1     -25.497  -0.779 -20.996  1.00  0.00     0.209 HD
ENDBRANCH  31  32
ENDBRANCH  30  31
ENDBRANCH  29  30
ENDBRANCH  28  29
ENDBRANCH  24  28
BRANCH  27  34
HETATM   34  N10 UNL     1     -19.336   0.835 -20.955  1.00  0.00    -0.345 NA
ATOM     35 2H10 UNL     1     -18.541   1.007 -21.571  1.00  0.00     0.172 HD
ATOM     36 1H10 UNL     1     -19.754   1.689 -20.586  1.00  0.00     0.172 HD
ENDBRANCH  27  34
ENDBRANCH  17  22
ENDBRANCH   9  15
BRANCH   6  37
HETATM   37  N4  UNL     1     -26.404   0.591 -19.182  1.00  0.00    -0.233 N
ATOM     38  H42 UNL     1     -27.216   1.072 -19.570  1.00  0.00     0.174 HD
ATOM     39  H41 UNL     1     -25.714   0.211 -19.830  1.00  0.00     0.174 HD
ENDBRANCH   6  37
BRANCH  11  40
HETATM   40  C14 UNL     1     -21.725   4.564 -16.230  1.00  0.00     0.134 A
HETATM   41  N13 UNL     1     -20.944   4.656 -17.323  1.00  0.00    -0.236 N
HETATM   42  O4  UNL     1     -20.180   5.700 -17.199  1.00  0.00    -0.155 OA
ATOM     43  H13 UNL     1     -20.951   4.013 -18.115  1.00  0.00     0.197 HD
HETATM   44  N14 UNL     1     -20.393   6.326 -16.086  1.00  0.00    -0.222 N
HETATM   45  C15 UNL     1     -21.365   5.629 -15.455  1.00  0.00     0.178 A
ATOM     46  H14 UNL     1     -19.926   7.170 -15.754  1.00  0.00     0.198 HD
HETATM   47  N15 UNL     1     -21.863   5.919 -14.308  1.00  0.00    -0.249 N
ATOM     48  H15 UNL     1     -22.591   5.305 -13.941  1.00  0.00     0.196 HD
BRANCH  47  49
HETATM   49  O5  UNL     1     -21.496   6.980 -13.548  1.00  0.00    -0.288 OA
ATOM     50  H5  UNL     1     -20.882   6.945 -12.824  1.00  0.00     0.244 HD
ENDBRANCH  47  49
ENDBRANCH  11  40
BRANCH   1  51
HETATM   51  N1  UNL     1     -27.361  -1.406 -15.190  1.00  0.00    -0.234 N
ATOM     52  H12 UNL     1     -27.502  -1.258 -14.191  1.00  0.00     0.174 HD
ATOM     53  H11 UNL     1     -27.786  -2.237 -15.603  1.00  0.00     0.174 HD
ENDBRANCH   1  51
TORSDOF 12
ENDMDL