MODEL 3
REMARK VINA RESULT: -8.711008682      2.338      6.498
REMARK  19 active torsions:
REMARK  status: ('A' for Active; 'I' for Inactive)
REMARK    1  A    between atoms: N1_1  and  C1_4
REMARK    2  A    between atoms: C2_10  and  N4_11
REMARK    3  A    between atoms: C3_15  and  C4_16
REMARK    4  A    between atoms: C4_16  and  O2_17
REMARK    5  A    between atoms: C4_16  and  N7_19
REMARK    6  A    between atoms: N7_19  and  C5_22
REMARK    7  A    between atoms: C5_22  and  O3_23
REMARK    8  A    between atoms: C5_22  and  C6_25
REMARK    9  A    between atoms: C6_25  and  C7_26
REMARK   10  A    between atoms: C6_25  and  N10_37
REMARK   11  A    between atoms: C7_26  and  C8_27
REMARK   12  A    between atoms: C8_27  and  C9_28
REMARK   13  A    between atoms: C9_28  and  N8_29
REMARK   14  A    between atoms: C9_28  and  N9_33
REMARK   15  A    between atoms: N10_37  and  N11_39
REMARK       I    between atoms: N11_39  and  C10_41
REMARK   16  A    between atoms: C10_41  and  C11_43
REMARK   17  A    between atoms: C12_45  and  N12_46
REMARK   18  A    between atoms: C13_49  and  O8_50
REMARK   19  A    between atoms: C14_52  and  O9_53
ROOT
HETATM    1  C6  UNL     1     -22.836   2.322 -16.740  1.00  0.00     0.234 C
ENDROOT
BRANCH   1   2
HETATM    2  C5  UNL     1     -24.279   1.962 -16.782  1.00  0.00     0.358 C
BRANCH   2   3
HETATM    3  N7  UNL     1     -24.425   0.822 -17.739  1.00  0.00    -0.013 N
ATOM      4  H72 UNL     1     -24.856   0.004 -17.308  1.00  0.00     0.283 HD
ATOM      5  H71 UNL     1     -23.530   0.397 -17.981  1.00  0.00     0.283 HD
BRANCH   3   6
HETATM    6  C4  UNL     1     -25.145   1.276 -18.892  1.00  0.00     0.393 C
BRANCH   6   7
HETATM    7  C3  UNL     1     -24.481   0.916 -20.143  1.00  0.00     0.168 A
HETATM    8  N6  UNL     1     -25.001   0.525 -21.308  1.00  0.00    -0.266 N
HETATM    9  N5  UNL     1     -23.992   0.328 -22.161  1.00  0.00     0.004 NA
ATOM     10  H6  UNL     1     -25.993   0.399 -21.511  1.00  0.00     0.185 HD
HETATM   11  N4  UNL     1     -22.835   0.578 -21.576  1.00  0.00    -0.156 N
HETATM   12  N13 UNL     1     -23.141   0.944 -20.328  1.00  0.00    -0.263 N
ATOM     13  H13 UNL     1     -22.460   1.206 -19.615  1.00  0.00     0.190 HD
BRANCH  11  14
HETATM   14  C2  UNL     1     -21.532   0.484 -22.128  1.00  0.00     0.210 A
HETATM   15  C1  UNL     1     -21.188   0.454 -23.464  1.00  0.00     0.170 A
HETATM   16  N2  UNL     1     -19.846   0.366 -23.550  1.00  0.00    -0.222 N
HETATM   17  O1  UNL     1     -19.388   0.343 -22.347  1.00  0.00    -0.153 OA
ATOM     18  H2  UNL     1     -19.296   0.326 -24.408  1.00  0.00     0.198 HD
HETATM   19  N3  UNL     1     -20.341   0.409 -21.477  1.00  0.00    -0.219 N
ATOM     20  H3  UNL     1     -20.220   0.405 -20.464  1.00  0.00     0.198 HD
BRANCH  15  21
HETATM   21  N1  UNL     1     -22.026   0.506 -24.460  1.00  0.00    -0.381 N
ATOM     22  H12 UNL     1     -22.460   1.355 -24.823  1.00  0.00     0.157 HD
ATOM     23  H11 UNL     1     -22.360  -0.284 -25.012  1.00  0.00     0.157 HD
ENDBRANCH  15  21
ENDBRANCH  11  14
ENDBRANCH   6   7
BRANCH   6  24
HETATM   24  O2  UNL     1     -26.473   0.826 -18.948  1.00  0.00    -0.364 OA
ATOM     25  H2  UNL     1     -26.635   0.271 -18.195  1.00  0.00     0.212 HD
ENDBRANCH   6  24
ENDBRANCH   3   6
ENDBRANCH   2   3
BRANCH   2  26
HETATM   26  O3  UNL     1     -25.183   2.905 -17.147  1.00  0.00    -0.367 OA
ATOM     27  H3  UNL     1     -24.699   3.610 -17.561  1.00  0.00     0.212 HD
ENDBRANCH   2  26
ENDBRANCH   1   2
BRANCH   1  28
HETATM   28  C7  UNL     1     -22.799   3.255 -15.465  1.00  0.00    -0.071 C
BRANCH  28  29
HETATM   29  C8  UNL     1     -22.707   3.992 -14.529  1.00  0.00    -0.043 C
BRANCH  29  30
HETATM   30  C9  UNL     1     -22.552   4.922 -13.434  1.00  0.00     0.456 C
BRANCH  30  31
HETATM   31  N8  UNL     1     -22.024   6.167 -13.894  1.00  0.00    -0.040 N
ATOM     32  H83 UNL     1     -21.028   6.252 -13.694  1.00  0.00     0.277 HD
ATOM     33  H82 UNL     1     -21.981   6.205 -14.912  1.00  0.00     0.277 HD
ATOM     34  H81 UNL     1     -22.553   6.951 -13.510  1.00  0.00     0.277 HD
ENDBRANCH  30  31
BRANCH  30  35
HETATM   35  N9  UNL     1     -23.855   5.224 -12.817  1.00  0.00    -0.040 N
ATOM     36  H93 UNL     1     -24.332   4.377 -12.507  1.00  0.00     0.277 HD
ATOM     37  H92 UNL     1     -23.748   5.680 -11.911  1.00  0.00     0.277 HD
ATOM     38  H91 UNL     1     -24.436   5.774 -13.451  1.00  0.00     0.277 HD
ENDBRANCH  30  35
ENDBRANCH  29  30
ENDBRANCH  28  29
ENDBRANCH   1  28
BRANCH   1  39
HETATM   39  N10 UNL     1     -22.175   3.031 -17.679  1.00  0.00    -0.313 N
ATOM     40  H10 UNL     1     -22.301   2.513 -18.548  1.00  0.00     0.182 HD
BRANCH  39  41
HETATM   41  N11 UNL     1     -21.460   4.055 -17.993  1.00  0.00    -0.267 N
HETATM   42  C10 UNL     1     -20.264   4.672 -17.587  1.00  0.00     0.296 C
HETATM   43  O4  UNL     1     -19.608   4.165 -16.638  1.00  0.00    -0.264 OA
ATOM     44  H11 UNL     1     -21.886   4.570 -18.763  1.00  0.00     0.190 HD
BRANCH  42  45
HETATM   45  C11 UNL     1     -19.671   5.876 -18.175  1.00  0.00     0.183 A
HETATM   46  O5  UNL     1     -19.298   5.891 -19.447  1.00  0.00    -0.278 OA
HETATM   47  C12 UNL     1     -18.803   7.047 -19.779  1.00  0.00     0.252 A
HETATM   48  C13 UNL     1     -18.834   7.854 -18.696  1.00  0.00     0.160 A
HETATM   49  C14 UNL     1     -19.407   7.098 -17.620  1.00  0.00     0.143 A
BRANCH  47  50
HETATM   50  N12 UNL     1     -18.311   7.384 -21.092  1.00  0.00    -0.087 N
HETATM   51  O6  UNL     1     -17.753   6.535 -21.803  1.00  0.00    -0.530 OA
HETATM   52  O7  UNL     1     -18.502   8.675 -21.522  1.00  0.00    -0.530 OA
ENDBRANCH  47  50
BRANCH  48  53
HETATM   53  O8  UNL     1     -18.424   9.146 -18.545  1.00  0.00    -0.354 OA
ATOM     54  H8  UNL     1     -17.583   9.498 -18.277  1.00  0.00     0.218 HD
ENDBRANCH  48  53
BRANCH  49  55
HETATM   55  O9  UNL     1     -19.603   7.558 -16.400  1.00  0.00    -0.355 OA
ATOM     56  H9  UNL     1     -20.246   7.328 -15.739  1.00  0.00     0.218 HD
ENDBRANCH  49  55
ENDBRANCH  42  45
ENDBRANCH  39  41
ENDBRANCH   1  39
TORSDOF 19
ENDMDL