MODEL 4
REMARK VINA RESULT: -8.163835858      2.353      3.328
REMARK  16 active torsions:
REMARK  status: ('A' for Active; 'I' for Inactive)
REMARK    1  A    between atoms: N1_1  and  C1_4
REMARK    2  A    between atoms: C2_7  and  O1_8
REMARK    3  A    between atoms: C3_10  and  C4_11
REMARK    4  A    between atoms: N5_15  and  C5_16
REMARK    5  A    between atoms: C5_16  and  C6_17
REMARK    6  A    between atoms: C5_16  and  N6_23
REMARK    7  A    between atoms: C6_17  and  O2_18
REMARK    8  A    between atoms: C6_17  and  C7_20
REMARK    9  A    between atoms: C7_20  and  O3_21
REMARK   10  A    between atoms: C8_27  and  C9_28
REMARK   11  A    between atoms: C9_28  and  O4_29
REMARK   12  A    between atoms: O4_29  and  C10_30
REMARK   13  A    between atoms: C12_34  and  N10_35
REMARK   14  A    between atoms: C13_40  and  N12_41
REMARK   15  A    between atoms: C14_46  and  O5_47
REMARK   16  A    between atoms: O5_47  and  N14_48
ROOT
HETATM    1  C5  UNL     1     -25.460   0.615 -19.133  1.00  0.00     0.277 C
ENDROOT
BRANCH   1   2
HETATM    2  N5  UNL     1     -24.136   1.162 -18.916  1.00  0.00    -0.221 N
HETATM    3  N4  UNL     1     -22.977   0.700 -19.364  1.00  0.00    -0.015 NA
HETATM    4  N3  UNL     1     -21.979   1.497 -18.941  1.00  0.00    -0.279 N
HETATM    5  C4  UNL     1     -22.491   2.490 -18.209  1.00  0.00     0.118 A
ATOM      6  H3  UNL     1     -20.989   1.363 -19.147  1.00  0.00     0.184 HD
HETATM    7  C14 UNL     1     -23.846   2.286 -18.189  1.00  0.00     0.216 A
BRANCH   5   8
HETATM    8  C3  UNL     1     -21.783   3.573 -17.558  1.00  0.00     0.089 A
HETATM    9  C2  UNL     1     -21.823   3.761 -16.181  1.00  0.00     0.171 A
HETATM   10  N2  UNL     1     -21.161   4.771 -15.593  1.00  0.00    -0.170 N
HETATM   11  C1  UNL     1     -20.431   5.636 -16.352  1.00  0.00     0.679 A
ATOM     12  H2  UNL     1     -21.205   4.891 -14.581  1.00  0.00     0.186 HD
HETATM   13  N16 UNL     1     -20.394   5.451 -17.679  1.00  0.00    -0.178 N
HETATM   14  C15 UNL     1     -21.037   4.462 -18.308  1.00  0.00     0.148 A
ATOM     15  H16 UNL     1     -19.845   6.102 -18.241  1.00  0.00     0.185 HD
HETATM   16  N15 UNL     1     -20.983   4.285 -19.722  1.00  0.00    -0.081 NA
BRANCH   9  17
HETATM   17  O1  UNL     1     -22.579   2.862 -15.411  1.00  0.00    -0.345 OA
ATOM     18  H1  UNL     1     -22.580   1.934 -15.615  1.00  0.00     0.219 HD
ENDBRANCH   9  17
BRANCH  11  19
HETATM   19  N1  UNL     1     -19.787   6.616 -15.784  1.00  0.00    -0.234 N
ATOM     20  H12 UNL     1     -20.141   7.069 -14.943  1.00  0.00     0.174 HD
ATOM     21  H11 UNL     1     -18.907   6.947 -16.182  1.00  0.00     0.174 HD
ENDBRANCH  11  19
ENDBRANCH   5   8
BRANCH   7  22
HETATM   22  O5  UNL     1     -24.771   3.087 -17.539  1.00  0.00    -0.223 OA
BRANCH  22  23
HETATM   23  N14 UNL     1     -25.247   2.770 -16.267  1.00  0.00    -0.303 N
ATOM     24 2H14 UNL     1     -24.697   3.066 -15.460  1.00  0.00     0.184 HD
ATOM     25 1H14 UNL     1     -26.118   2.257 -16.134  1.00  0.00     0.184 HD
ENDBRANCH  22  23
ENDBRANCH   7  22
ENDBRANCH   1   2
BRANCH   1  26
HETATM   26  C6  UNL     1     -25.694  -0.634 -18.312  1.00  0.00     0.188 C
BRANCH  26  27
HETATM   27  O2  UNL     1     -26.258  -1.651 -19.062  1.00  0.00    -0.389 OA
ATOM     28  H2  UNL     1     -26.355  -2.452 -18.561  1.00  0.00     0.210 HD
ENDBRANCH  26  27
BRANCH  26  29
HETATM   29  C7  UNL     1     -26.584  -0.381 -17.128  1.00  0.00     0.199 C
BRANCH  29  30
HETATM   30  O3  UNL     1     -27.148   0.898 -17.319  1.00  0.00    -0.398 OA
ATOM     31  H3  UNL     1     -26.893   1.176 -18.191  1.00  0.00     0.209 HD
ENDBRANCH  29  30
ENDBRANCH  26  29
ENDBRANCH   1  26
BRANCH   1  32
HETATM   32  N6  UNL     1     -25.739   0.371 -20.532  1.00  0.00    -0.188 N
HETATM   33  N7  UNL     1     -26.917   0.568 -21.114  1.00  0.00    -0.001 NA
HETATM   34  N8  UNL     1     -26.845   0.251 -22.396  1.00  0.00    -0.268 N
HETATM   35  C8  UNL     1     -25.585  -0.166 -22.657  1.00  0.00     0.135 A
ATOM     36  H8  UNL     1     -27.608   0.310 -23.071  1.00  0.00     0.185 HD
HETATM   37  N13 UNL     1     -24.941  -0.075 -21.482  1.00  0.00    -0.269 N
ATOM     38  H13 UNL     1     -23.961  -0.319 -21.341  1.00  0.00     0.190 HD
BRANCH  35  39
HETATM   39  C9  UNL     1     -25.063  -0.617 -23.973  1.00  0.00     0.255 C
BRANCH  39  40
HETATM   40  O4  UNL     1     -25.199  -1.989 -24.191  1.00  0.00    -0.339 OA
BRANCH  40  41
HETATM   41  C10 UNL     1     -26.337  -2.620 -24.609  1.00  0.00     0.129 A
HETATM   42  C11 UNL     1     -26.868  -2.459 -25.867  1.00  0.00     0.146 A
HETATM   43  N9  UNL     1     -28.009  -3.142 -26.175  1.00  0.00    -0.199 N
HETATM   44  C12 UNL     1     -28.608  -3.950 -25.290  1.00  0.00     0.677 A
ATOM     45  H9  UNL     1     -28.417  -3.033 -27.104  1.00  0.00     0.183 HD
HETATM   46  N11 UNL     1     -28.066  -4.094 -24.055  1.00  0.00    -0.175 N
HETATM   47  C13 UNL     1     -26.951  -3.462 -23.673  1.00  0.00     0.149 A
ATOM     48  H11 UNL     1     -28.529  -4.712 -23.389  1.00  0.00     0.186 HD
BRANCH  44  49
HETATM   49  N10 UNL     1     -29.678  -4.555 -25.662  1.00  0.00    -0.234 N
ATOM     50 2H10 UNL     1     -30.613  -4.239 -25.406  1.00  0.00     0.174 HD
ATOM     51 1H10 UNL     1     -29.575  -5.388 -26.240  1.00  0.00     0.174 HD
ENDBRANCH  44  49
BRANCH  47  52
HETATM   52  N12 UNL     1     -26.480  -3.634 -22.490  1.00  0.00    -0.383 N
ATOM     53 2H12 UNL     1     -26.419  -2.849 -21.840  1.00  0.00     0.157 HD
ATOM     54 1H12 UNL     1     -26.155  -4.542 -22.158  1.00  0.00     0.157 HD
ENDBRANCH  47  52
ENDBRANCH  40  41
ENDBRANCH  39  40
ENDBRANCH  35  39
ENDBRANCH   1  32
TORSDOF 16
ENDMDL