MODEL 4
REMARK VINA RESULT: -9.065899487      2.304      3.252
REMARK  13 active torsions:
REMARK  status: ('A' for Active; 'I' for Inactive)
REMARK    1  A    between atoms: C2_3  and  C3_4
REMARK    2  A    between atoms: C3_4  and  O1_5
REMARK    3  A    between atoms: C3_4  and  O2_7
REMARK    4  A    between atoms: C4_11  and  N3_12
REMARK    5  A    between atoms: C5_17  and  C6_18
REMARK    6  A    between atoms: C7_21  and  C8_22
REMARK       I    between atoms: C8_22  and  N7_24
REMARK    7  A    between atoms: N7_24  and  C9_26
REMARK    8  A    between atoms: C9_26  and  C10_27
REMARK    9  A    between atoms: C10_27  and  O4_28
REMARK   10  A    between atoms: C11_31  and  C12_32
REMARK   11  A    between atoms: C12_32  and  O5_33
REMARK   12  A    between atoms: C12_32  and  O6_35
REMARK   13  A    between atoms: C13_37  and  O7_38
REMARK       I    between atoms: N9_43  and  C15_45
REMARK       I    between atoms: C15_45  and  N10_46
REMARK       I    between atoms: C15_45  and  N11_50
ROOT
HETATM    1  N3  UNL     1     -20.686   5.073 -17.756  1.00  0.00    -0.046 N
HETATM    2  N4  UNL     1     -20.379   5.777 -16.681  1.00  0.00    -0.219 N
ATOM      3  H4  UNL     1     -20.765   5.638 -15.748  1.00  0.00     0.209 HD
HETATM    4  N5  UNL     1     -19.495   6.683 -17.013  1.00  0.00    -0.279 N
ATOM      5  H5  UNL     1     -19.084   7.363 -16.374  1.00  0.00     0.189 HD
HETATM    6  C5  UNL     1     -19.216   6.585 -18.298  1.00  0.00     0.131 A
HETATM    7  C13 UNL     1     -19.978   5.552 -18.787  1.00  0.00     0.212 A
ENDROOT
BRANCH   1   8
HETATM    8  C4  UNL     1     -21.610   3.988 -17.833  1.00  0.00     0.709 A
HETATM    9  N2  UNL     1     -21.654   3.176 -18.904  1.00  0.00    -0.186 N
HETATM   10  C2  UNL     1     -22.516   2.152 -18.991  1.00  0.00     0.108 A
ATOM     11  H2  UNL     1     -21.010   3.345 -19.677  1.00  0.00     0.184 HD
HETATM   12  C1  UNL     1     -23.419   1.882 -17.956  1.00  0.00     0.118 A
HETATM   13  N1  UNL     1     -24.307   0.782 -18.108  1.00  0.00    -0.096 NA
HETATM   14  C14 UNL     1     -23.378   2.707 -16.861  1.00  0.00     0.146 A
HETATM   15  N8  UNL     1     -22.462   3.739 -16.845  1.00  0.00    -0.173 N
HETATM   16  N9  UNL     1     -24.146   2.554 -15.876  1.00  0.00    -0.325 N
ATOM     17  H8  UNL     1     -22.439   4.347 -16.027  1.00  0.00     0.186 HD
HETATM   18  C15 UNL     1     -25.163   1.696 -15.492  1.00  0.00     0.481 C
ATOM     19  H9  UNL     1     -23.971   3.259 -15.160  1.00  0.00     0.165 HD
HETATM   20  N10 UNL     1     -24.711   0.389 -15.019  1.00  0.00    -0.033 N
HETATM   21  N11 UNL     1     -25.909   2.260 -14.335  1.00  0.00    -0.033 N
ATOM     22 3H10 UNL     1     -24.118  -0.056 -15.720  1.00  0.00     0.278 HD
ATOM     23 2H10 UNL     1     -24.036   0.501 -14.262  1.00  0.00     0.278 HD
ATOM     24 1H10 UNL     1     -25.459  -0.243 -14.736  1.00  0.00     0.278 HD
ATOM     25 3H11 UNL     1     -25.288   2.487 -13.558  1.00  0.00     0.278 HD
ATOM     26 2H11 UNL     1     -26.257   3.199 -14.529  1.00  0.00     0.278 HD
ATOM     27 1H11 UNL     1     -26.657   1.629 -14.052  1.00  0.00     0.278 HD
BRANCH  10  28
HETATM   28  C3  UNL     1     -22.514   1.297 -20.194  1.00  0.00     0.307 C
BRANCH  28  29
HETATM   29  O1  UNL     1     -21.834   1.855 -21.256  1.00  0.00    -0.366 OA
ATOM     30  H1  UNL     1     -21.070   1.353 -21.517  1.00  0.00     0.213 HD
ENDBRANCH  28  29
BRANCH  28  31
HETATM   31  O2  UNL     1     -21.960   0.063 -19.817  1.00  0.00    -0.366 OA
ATOM     32  H2  UNL     1     -21.627   0.170 -18.933  1.00  0.00     0.213 HD
ENDBRANCH  28  31
ENDBRANCH  10  28
ENDBRANCH   1   8
BRANCH   7  33
HETATM   33  O7  UNL     1     -19.987   5.119 -20.081  1.00  0.00    -0.343 OA
ATOM     34  H7  UNL     1     -20.152   5.630 -20.865  1.00  0.00     0.219 HD
ENDBRANCH   7  33
BRANCH   6  35
HETATM   35  C6  UNL     1     -18.258   7.442 -19.045  1.00  0.00     0.084 A
HETATM   36  N6  UNL     1     -17.261   6.868 -19.691  1.00  0.00    -0.343 N
HETATM   37  C7  UNL     1     -16.420   7.589 -20.386  1.00  0.00     0.143 A
ATOM     38  H6  UNL     1     -17.145   5.855 -19.648  1.00  0.00     0.167 HD
HETATM   39  S1  UNL     1     -16.999   9.165 -20.163  1.00  0.00    -0.064 SA
HETATM   40  C11 UNL     1     -18.363   8.788 -19.134  1.00  0.00     0.068 A
BRANCH  37  41
HETATM   41  C8  UNL     1     -15.259   7.089 -21.158  1.00  0.00     0.275 C
HETATM   42  O3  UNL     1     -15.387   7.055 -22.386  1.00  0.00    -0.265 OA
HETATM   43  N7  UNL     1     -14.076   6.674 -20.526  1.00  0.00    -0.353 N
ATOM     44  H7  UNL     1     -14.009   6.711 -19.509  1.00  0.00     0.162 HD
BRANCH  43  45
HETATM   45  C9  UNL     1     -12.955   6.199 -21.295  1.00  0.00     0.149 C
BRANCH  45  46
HETATM   46  C10 UNL     1     -12.853   4.706 -21.181  1.00  0.00     0.183 C
BRANCH  46  47
HETATM   47  O4  UNL     1     -13.597   4.342 -20.051  1.00  0.00    -0.399 OA
ATOM     48  H4  UNL     1     -13.063   3.725 -19.565  1.00  0.00     0.209 HD
ENDBRANCH  46  47
ENDBRANCH  45  46
ENDBRANCH  43  45
ENDBRANCH  37  41
BRANCH  40  49
HETATM   49  C12 UNL     1     -19.287   9.798 -18.523  1.00  0.00     0.297 C
BRANCH  49  50
HETATM   50  O5  UNL     1     -19.160   9.788 -17.168  1.00  0.00    -0.367 OA
ATOM     51  H5  UNL     1     -20.012   9.890 -16.761  1.00  0.00     0.213 HD
ENDBRANCH  49  50
BRANCH  49  52
HETATM   52  O6  UNL     1     -19.043  11.038 -19.104  1.00  0.00    -0.367 OA
ATOM     53  H6  UNL     1     -19.825  11.572 -19.027  1.00  0.00     0.213 HD
ENDBRANCH  49  52
ENDBRANCH  40  49
ENDBRANCH   6  35
TORSDOF 13
ENDMDL