MODEL 2
REMARK VINA RESULT: -8.857209006      1.275      1.790
REMARK  15 active torsions:
REMARK  status: ('A' for Active; 'I' for Inactive)
REMARK    1  A    between atoms: N1_1  and  C1_4
REMARK    2  A    between atoms: C3_12  and  N5_13
REMARK    3  A    between atoms: C5_15  and  C6_16
REMARK    4  A    between atoms: C6_16  and  O1_17
REMARK    5  A    between atoms: C6_16  and  N6_19
REMARK    6  A    between atoms: N6_19  and  C7_21
REMARK    7  A    between atoms: C9_30  and  C10_31
REMARK    8  A    between atoms: C11_33  and  C12_34
REMARK    9  A    between atoms: C12_34  and  O3_35
REMARK   10  A    between atoms: C12_34  and  C13_37
REMARK   11  A    between atoms: C13_37  and  O4_38
REMARK   12  A    between atoms: C14_40  and  O5_41
REMARK   13  A    between atoms: C15_43  and  O6_44
REMARK   14  A    between atoms: O6_44  and  C16_45
REMARK   15  A    between atoms: C16_45  and  O7_46
ROOT
HETATM    1  N5  UNL     1     -24.467   0.112 -18.288  1.00  0.00    -0.136 N
HETATM    2  C4  UNL     1     -25.458  -0.821 -18.149  1.00  0.00     0.146 A
HETATM    3  C5  UNL     1     -26.085  -0.638 -16.943  1.00  0.00     0.076 A
HETATM    4  N10 UNL     1     -25.461   0.404 -16.375  1.00  0.00    -0.338 N
ATOM      5  H10 UNL     1     -25.695   0.793 -15.461  1.00  0.00     0.167 HD
HETATM    6  C9  UNL     1     -24.485   0.866 -17.175  1.00  0.00     0.166 A
ENDROOT
BRANCH   1   7
HETATM    7  C3  UNL     1     -23.588   0.262 -19.395  1.00  0.00     0.730 A
HETATM    8  N4  UNL     1     -22.241   0.350 -19.413  1.00  0.00    -0.116 N
HETATM    9  N3  UNL     1     -21.792   0.483 -20.635  1.00  0.00    -0.116 N
ATOM     10  H4  UNL     1     -21.651   0.318 -18.583  1.00  0.00     0.206 HD
HETATM   11  C2  UNL     1     -22.857   0.484 -21.465  1.00  0.00     0.737 A
ATOM     12  H3  UNL     1     -20.813   0.570 -20.910  1.00  0.00     0.206 HD
HETATM   13  N2  UNL     1     -22.981   0.588 -22.797  1.00  0.00    -0.020 N
HETATM   14  N11 UNL     1     -23.957   0.347 -20.689  1.00  0.00     0.081 N
HETATM   15  C1  UNL     1     -24.181   0.561 -23.397  1.00  0.00     0.694 A
ATOM     16  H2  UNL     1     -22.142   0.690 -23.368  1.00  0.00     0.203 HD
HETATM   17  N12 UNL     1     -25.281   0.426 -22.643  1.00  0.00    -0.140 N
HETATM   18  C17 UNL     1     -25.148   0.323 -21.314  1.00  0.00     0.376 A
ATOM     19  H12 UNL     1     -26.205   0.401 -23.075  1.00  0.00     0.189 HD
HETATM   20  O8  UNL     1     -26.162   0.194 -20.562  1.00  0.00    -0.244 OA
BRANCH  15  21
HETATM   21  N1  UNL     1     -24.276   0.664 -24.700  1.00  0.00    -0.234 N
ATOM     22  H12 UNL     1     -25.146   0.425 -25.177  1.00  0.00     0.174 HD
ATOM     23  H11 UNL     1     -23.482   0.986 -25.252  1.00  0.00     0.174 HD
ENDBRANCH  15  21
ENDBRANCH   1   7
BRANCH   6  24
HETATM   24  C10 UNL     1     -23.572   1.985 -16.932  1.00  0.00     0.157 A
HETATM   25  O2  UNL     1     -22.785   2.582 -17.772  1.00  0.00    -0.302 OA
HETATM   26  C11 UNL     1     -22.109   3.540 -17.225  1.00  0.00     0.120 A
HETATM   27  C14 UNL     1     -22.468   3.597 -15.904  1.00  0.00     0.135 A
HETATM   28  C15 UNL     1     -23.405   2.602 -15.712  1.00  0.00     0.144 A
BRANCH  26  29
HETATM   29  C12 UNL     1     -21.113   4.444 -17.872  1.00  0.00     0.201 C
BRANCH  29  30
HETATM   30  O3  UNL     1     -19.843   4.249 -17.372  1.00  0.00    -0.387 OA
ATOM     31  H3  UNL     1     -19.212   4.841 -17.767  1.00  0.00     0.210 HD
ENDBRANCH  29  30
BRANCH  29  32
HETATM   32  C13 UNL     1     -21.101   4.256 -19.363  1.00  0.00     0.202 C
BRANCH  32  33
HETATM   33  O4  UNL     1     -20.708   2.953 -19.673  1.00  0.00    -0.398 OA
ATOM     34  H4  UNL     1     -19.969   2.972 -20.270  1.00  0.00     0.209 HD
ENDBRANCH  32  33
ENDBRANCH  29  32
ENDBRANCH  26  29
BRANCH  27  35
HETATM   35  O5  UNL     1     -21.996   4.469 -14.944  1.00  0.00    -0.356 OA
ATOM     36  H5  UNL     1     -22.184   4.458 -14.013  1.00  0.00     0.218 HD
ENDBRANCH  27  35
BRANCH  28  37
HETATM   37  O6  UNL     1     -24.043   2.300 -14.505  1.00  0.00    -0.320 OA
BRANCH  37  38
HETATM   38  C16 UNL     1     -24.984   3.113 -13.875  1.00  0.00     0.342 C
BRANCH  38  39
HETATM   39  O7  UNL     1     -24.424   4.066 -13.016  1.00  0.00    -0.377 OA
ATOM     40  H7  UNL     1     -24.755   4.024 -12.127  1.00  0.00     0.212 HD
ENDBRANCH  38  39
ENDBRANCH  37  38
ENDBRANCH  28  37
ENDBRANCH   6  24
BRANCH   3  41
HETATM   41  C6  UNL     1     -27.211  -1.413 -16.374  1.00  0.00     0.273 C
BRANCH  41  42
HETATM   42  O1  UNL     1     -28.375  -0.644 -16.388  1.00  0.00    -0.371 OA
ATOM     43  H1  UNL     1     -28.650  -0.453 -15.500  1.00  0.00     0.212 HD
ENDBRANCH  41  42
BRANCH  41  44
HETATM   44  N6  UNL     1     -27.465  -2.630 -17.136  1.00  0.00    -0.330 N
ATOM     45  H6  UNL     1     -27.570  -2.582 -18.150  1.00  0.00     0.165 HD
BRANCH  44  46
HETATM   46  C7  UNL     1     -27.567  -3.885 -16.469  1.00  0.00     0.190 C
HETATM   47  N7  UNL     1     -28.608  -4.311 -15.866  1.00  0.00    -0.346 N
HETATM   48  C8  UNL     1     -28.307  -5.611 -15.325  1.00  0.00     0.259 C
ATOM     49  H7  UNL     1     -29.497  -3.818 -15.782  1.00  0.00     0.163 HD
HETATM   50  N8  UNL     1     -27.117  -6.026 -16.017  1.00  0.00    -0.119 NA
HETATM   51  N9  UNL     1     -26.491  -4.822 -16.403  1.00  0.00    -0.274 N
ATOM     52  H9  UNL     1     -25.502  -4.659 -16.591  1.00  0.00     0.185 HD
ENDBRANCH  44  46
ENDBRANCH  41  44
ENDBRANCH   3  41
TORSDOF 15
ENDMDL