MODEL 2
REMARK VINA RESULT: -9.181160186      4.279     10.533
REMARK  16 active torsions:
REMARK  status: ('A' for Active; 'I' for Inactive)
REMARK    1  A    between atoms: N1_1  and  C1_4
REMARK    2  A    between atoms: C2_7  and  N3_8
REMARK    3  A    between atoms: N3_8  and  C3_10
REMARK    4  A    between atoms: C4_13  and  N5_14
REMARK    5  A    between atoms: C6_23  and  C7_24
REMARK    6  A    between atoms: N11_29  and  C8_30
REMARK    7  A    between atoms: C10_34  and  C11_35
REMARK    8  A    between atoms: C11_35  and  N13_36
REMARK    9  A    between atoms: N13_36  and  C12_38
REMARK   10  A    between atoms: C12_38  and  C13_39
REMARK   11  A    between atoms: C12_38  and  N14_46
REMARK   12  A    between atoms: C13_39  and  C14_40
REMARK   13  A    between atoms: C14_40  and  O1_41
REMARK   14  A    between atoms: C14_40  and  C15_43
REMARK   15  A    between atoms: C15_43  and  O2_44
REMARK   16  A    between atoms: N14_46  and  N15_48
ROOT
HETATM    1  C7  UNL     1     -23.832   2.053 -16.011  1.00  0.00     0.165 A
HETATM    2  N9  UNL     1     -23.527   2.422 -14.755  1.00  0.00    -0.266 N
ATOM      3  H9  UNL     1     -23.908   2.021 -13.898  1.00  0.00     0.190 HD
HETATM    4  N10 UNL     1     -22.648   3.396 -14.834  1.00  0.00    -0.219 N
ATOM      5  H10 UNL     1     -22.237   3.870 -14.031  1.00  0.00     0.210 HD
HETATM    6  N11 UNL     1     -22.367   3.678 -16.093  1.00  0.00    -0.178 N
HETATM    7  N17 UNL     1     -23.101   2.845 -16.810  1.00  0.00    -0.260 N
ATOM      8  H17 UNL     1     -23.110   2.809 -17.830  1.00  0.00     0.191 HD
ENDROOT
BRANCH   1   9
HETATM    9  C6  UNL     1     -24.777   0.993 -16.420  1.00  0.00     0.099 A
HETATM   10  C5  UNL     1     -24.816   0.556 -17.724  1.00  0.00     0.083 A
HETATM   11  C2  UNL     1     -25.707  -0.433 -18.075  1.00  0.00     0.139 A
HETATM   12  N2  UNL     1     -26.508  -0.937 -17.137  1.00  0.00    -0.176 N
HETATM   13  C1  UNL     1     -26.500  -0.534 -15.851  1.00  0.00     0.678 A
ATOM     14  H2  UNL     1     -27.165  -1.670 -17.407  1.00  0.00     0.186 HD
HETATM   15  N18 UNL     1     -25.615   0.436 -15.537  1.00  0.00    -0.188 N
ATOM     16  H18 UNL     1     -25.583   0.764 -14.572  1.00  0.00     0.184 HD
BRANCH  11  17
HETATM   17  N3  UNL     1     -25.746  -0.890 -19.440  1.00  0.00    -0.175 N
ATOM     18  H3  UNL     1     -25.930  -1.869 -19.658  1.00  0.00     0.186 HD
BRANCH  17  19
HETATM   19  C3  UNL     1     -25.520   0.060 -20.477  1.00  0.00     0.695 C
HETATM   20  N4  UNL     1     -24.454   0.057 -21.200  1.00  0.00    -0.181 N
HETATM   21  C4  UNL     1     -24.367   1.095 -22.225  1.00  0.00     0.409 C
ATOM     22  H4  UNL     1     -23.713  -0.631 -21.065  1.00  0.00     0.181 HD
HETATM   23  N6  UNL     1     -25.668   1.190 -22.889  1.00  0.00    -0.071 NA
HETATM   24  N7  UNL     1     -26.650   1.624 -22.007  1.00  0.00    -0.013 NA
HETATM   25  N8  UNL     1     -26.493   1.062 -20.744  1.00  0.00    -0.119 N
ATOM     26  H8  UNL     1     -27.096   1.378 -19.984  1.00  0.00     0.202 HD
BRANCH  21  27
HETATM   27  N5  UNL     1     -24.117   2.339 -21.535  1.00  0.00    -0.042 N
ATOM     28  H53 UNL     1     -23.188   2.390 -21.119  1.00  0.00     0.278 HD
ATOM     29  H52 UNL     1     -24.020   3.136 -22.165  1.00  0.00     0.278 HD
ATOM     30  H51 UNL     1     -24.869   2.453 -20.855  1.00  0.00     0.278 HD
ENDBRANCH  21  27
ENDBRANCH  17  19
ENDBRANCH  11  17
BRANCH  13  31
HETATM   31  N1  UNL     1     -27.293  -1.055 -14.992  1.00  0.00    -0.234 N
ATOM     32  H12 UNL     1     -27.344  -2.060 -14.824  1.00  0.00     0.174 HD
ATOM     33  H11 UNL     1     -27.916  -0.474 -14.431  1.00  0.00     0.174 HD
ENDBRANCH  13  31
ENDBRANCH   1   9
BRANCH   6  34
HETATM   34  C8  UNL     1     -21.454   4.680 -16.540  1.00  0.00     0.107 A
HETATM   35  C9  UNL     1     -21.054   5.700 -15.702  1.00  0.00     0.124 A
HETATM   36  N12 UNL     1     -20.182   6.628 -16.181  1.00  0.00    -0.352 N
HETATM   37  C10 UNL     1     -19.705   6.580 -17.432  1.00  0.00     0.099 A
ATOM     38  H12 UNL     1     -19.881   7.385 -15.567  1.00  0.00     0.166 HD
HETATM   39  N16 UNL     1     -20.079   5.595 -18.268  1.00  0.00    -0.352 N
HETATM   40  C16 UNL     1     -20.941   4.667 -17.816  1.00  0.00     0.124 A
ATOM     41  H16 UNL     1     -19.718   5.553 -19.221  1.00  0.00     0.166 HD
BRANCH  37  42
HETATM   42  C11 UNL     1     -18.764   7.598 -17.915  1.00  0.00     0.197 C
BRANCH  42  43
HETATM   43  N13 UNL     1     -18.792   7.641 -19.369  1.00  0.00    -0.372 N
ATOM     44  H13 UNL     1     -19.008   6.796 -19.898  1.00  0.00     0.161 HD
BRANCH  43  45
HETATM   45  C12 UNL     1     -18.521   8.851 -20.056  1.00  0.00     0.094 C
BRANCH  45  46
HETATM   46  C13 UNL     1     -17.731   8.800 -21.304  1.00  0.00     0.111 C
BRANCH  46  47
HETATM   47  C14 UNL     1     -16.252   8.752 -21.005  1.00  0.00     0.148 C
BRANCH  47  48
HETATM   48  O1  UNL     1     -16.095   9.048 -19.647  1.00  0.00    -0.393 OA
ATOM     49  H1  UNL     1     -16.428   8.306 -19.156  1.00  0.00     0.210 HD
ENDBRANCH  47  48
BRANCH  47  50
HETATM   50  C15 UNL     1     -15.793   7.311 -21.182  1.00  0.00     0.196 C
BRANCH  50  51
HETATM   51  O2  UNL     1     -15.928   6.639 -19.984  1.00  0.00    -0.398 OA
ATOM     52  H2  UNL     1     -15.257   5.969 -19.923  1.00  0.00     0.209 HD
ENDBRANCH  50  51
ENDBRANCH  47  50
ENDBRANCH  46  47
ENDBRANCH  45  46
BRANCH  45  53
HETATM   53  N14 UNL     1     -18.965   9.958 -19.583  1.00  0.00    -0.296 N
ATOM     54  H14 UNL     1     -19.647   9.920 -18.825  1.00  0.00     0.187 HD
BRANCH  53  55
HETATM   55  N15 UNL     1     -18.566  11.208 -20.050  1.00  0.00    -0.344 N
ATOM     56 2H15 UNL     1     -18.513  11.333 -21.061  1.00  0.00     0.176 HD
ATOM     57 1H15 UNL     1     -18.329  11.988 -19.436  1.00  0.00     0.176 HD
ENDBRANCH  53  55
ENDBRANCH  45  53
ENDBRANCH  43  45
ENDBRANCH  42  43
ENDBRANCH  37  42
ENDBRANCH   6  34
TORSDOF 16
ENDMDL