MODEL 3
REMARK VINA RESULT: -8.433203976      5.434      8.543
REMARK  14 active torsions:
REMARK  status: ('A' for Active; 'I' for Inactive)
REMARK    1  A    between atoms: C2_2  and  O1_3
REMARK    2  A    between atoms: C2_2  and  O2_5
REMARK    3  A    between atoms: C2_2  and  C3_7
REMARK    4  A    between atoms: N3_14  and  N4_15
REMARK    5  A    between atoms: N4_15  and  N5_16
REMARK    6  A    between atoms: N6_19  and  C6_20
REMARK    7  A    between atoms: C6_20  and  C7_21
REMARK    8  A    between atoms: C9_26  and  C10_27
REMARK    9  A    between atoms: C10_27  and  O3_28
REMARK   10  A    between atoms: C10_27  and  C11_30
REMARK   11  A    between atoms: C10_27  and  C12_33
REMARK   12  A    between atoms: C11_30  and  O4_31
REMARK       I    between atoms: C12_33  and  N8_35
REMARK   13  A    between atoms: N8_35  and  C13_37
REMARK   14  A    between atoms: C13_37  and  C14_38
ROOT
HETATM    1  C6  UNL     1     -20.736   3.085 -18.432  1.00  0.00     0.251 C
ENDROOT
BRANCH   1   2
HETATM    2  N6  UNL     1     -21.232   3.797 -17.275  1.00  0.00    -0.191 N
HETATM    3  N3  UNL     1     -20.536   4.940 -16.893  1.00  0.00    -0.144 N
HETATM    4  C5  UNL     1     -20.865   5.755 -15.777  1.00  0.00     0.165 C
HETATM    5  C4  UNL     1     -21.809   5.499 -14.665  1.00  0.00     0.122 C
HETATM    6  N2  UNL     1     -20.279   6.894 -15.681  1.00  0.00    -0.381 N
HETATM    7  C3  UNL     1     -22.693   4.530 -14.634  1.00  0.00     0.116 C
HETATM    8  N1  UNL     1     -21.713   6.391 -13.573  1.00  0.00    -0.096 NA
HETATM    9  N12 UNL     1     -22.972   3.524 -15.606  1.00  0.00    -0.282 N
HETATM   10  N11 UNL     1     -22.372   3.231 -16.678  1.00  0.00    -0.224 N
ATOM     11  H12 UNL     1     -23.788   2.947 -15.401  1.00  0.00     0.188 HD
ATOM     12  H11 UNL     1     -22.783   2.455 -17.198  1.00  0.00     0.210 HD
ATOM     13  H22 UNL     1     -20.516   7.479 -14.880  1.00  0.00     0.157 HD
ATOM     14  H21 UNL     1     -19.630   7.070 -16.447  1.00  0.00     0.157 HD
BRANCH   3  15
HETATM   15  N4  UNL     1     -19.428   5.324 -17.658  1.00  0.00    -0.003 NA
BRANCH  15  16
HETATM   16  N5  UNL     1     -19.828   6.049 -18.764  1.00  0.00    -0.327 N
ATOM     17  H52 UNL     1     -20.761   5.993 -19.173  1.00  0.00     0.174 HD
ATOM     18  H51 UNL     1     -19.067   6.637 -19.102  1.00  0.00     0.174 HD
ENDBRANCH  15  16
ENDBRANCH   3  15
BRANCH   7  19
HETATM   19  C2  UNL     1     -23.550   4.435 -13.430  1.00  0.00     0.203 C
HETATM   20  C1  UNL     1     -24.761   3.547 -13.753  1.00  0.00     0.086 C
BRANCH  19  21
HETATM   21  O1  UNL     1     -22.832   3.848 -12.356  1.00  0.00    -0.361 OA
ATOM     22  H1  UNL     1     -22.074   4.388 -12.168  1.00  0.00     0.213 HD
ENDBRANCH  19  21
BRANCH  19  23
HETATM   23  O2  UNL     1     -24.023   5.634 -12.949  1.00  0.00    -0.361 OA
ATOM     24  H2  UNL     1     -23.721   6.321 -13.532  1.00  0.00     0.213 HD
ENDBRANCH  19  23
ENDBRANCH   7  19
ENDBRANCH   1   2
BRANCH   1  25
HETATM   25  C7  UNL     1     -21.815   2.561 -19.310  1.00  0.00     0.120 A
HETATM   26  N7  UNL     1     -22.575   3.328 -20.112  1.00  0.00    -0.322 N
HETATM   27  C8  UNL     1     -23.437   2.464 -20.742  1.00  0.00     0.171 A
ATOM     28  H7  UNL     1     -22.523   4.340 -20.229  1.00  0.00     0.169 HD
HETATM   29  S1  UNL     1     -24.717   2.310 -21.860  1.00  0.00    -0.051 SA
HETATM   30  N9  UNL     1     -23.226   1.212 -20.352  1.00  0.00    -0.242 N
HETATM   31  C9  UNL     1     -24.927   0.620 -21.775  1.00  0.00     0.049 A
HETATM   32  C15 UNL     1     -23.969   0.260 -20.864  1.00  0.00     0.137 A
HETATM   33  N10 UNL     1     -22.206   1.310 -19.459  1.00  0.00    -0.279 N
ATOM     34  H10 UNL     1     -21.796   0.517 -18.967  1.00  0.00     0.189 HD
BRANCH  31  35
HETATM   35  C10 UNL     1     -25.899  -0.274 -22.500  1.00  0.00     0.194 C
BRANCH  35  36
HETATM   36  O3  UNL     1     -25.898  -1.493 -21.807  1.00  0.00    -0.373 OA
ATOM     37  H3  UNL     1     -26.709  -1.930 -22.039  1.00  0.00     0.211 HD
ENDBRANCH  35  36
BRANCH  35  38
HETATM   38  C11 UNL     1     -27.284   0.284 -22.452  1.00  0.00     0.217 C
BRANCH  38  39
HETATM   39  O4  UNL     1     -28.188  -0.732 -22.650  1.00  0.00    -0.397 OA
ATOM     40  H4  UNL     1     -28.005  -1.437 -22.039  1.00  0.00     0.209 HD
ENDBRANCH  38  39
ENDBRANCH  35  38
BRANCH  35  41
HETATM   41  C12 UNL     1     -25.468  -0.539 -23.875  1.00  0.00     0.260 C
HETATM   42  O5  UNL     1     -26.281  -1.040 -24.710  1.00  0.00    -0.270 OA
HETATM   43  N8  UNL     1     -24.156  -0.257 -24.345  1.00  0.00    -0.357 N
ATOM     44  H8  UNL     1     -23.481   0.149 -23.697  1.00  0.00     0.162 HD
BRANCH  43  45
HETATM   45  C13 UNL     1     -23.740  -0.523 -25.704  1.00  0.00     0.133 C
BRANCH  45  46
HETATM   46  C14 UNL     1     -22.399   0.133 -25.933  1.00  0.00     0.105 C
HETATM   47  S2  UNL     1     -21.357   0.116 -24.477  1.00  0.00    -0.096 SA
ENDBRANCH  45  46
ENDBRANCH  43  45
ENDBRANCH  35  41
ENDBRANCH  31  35
ENDBRANCH   1  25
TORSDOF 14
ENDMDL