MODEL 2
REMARK VINA RESULT: -8.922615304      0.957      1.580
REMARK  16 active torsions:
REMARK  status: ('A' for Active; 'I' for Inactive)
REMARK    1  A    between atoms: C2_3  and  N2_4
REMARK    2  A    between atoms: C4_11  and  C5_12
REMARK    3  A    between atoms: N5_13  and  N6_15
REMARK    4  A    between atoms: C6_19  and  C7_20
REMARK    5  A    between atoms: C7_20  and  N9_21
REMARK    6  A    between atoms: C7_20  and  C12_32
REMARK    7  A    between atoms: N9_21  and  C8_23
REMARK    8  A    between atoms: C8_23  and  C9_24
REMARK    9  A    between atoms: C9_24  and  N10_25
REMARK       I    between atoms: N10_25  and  C10_27
REMARK   10  A    between atoms: C10_27  and  C11_29
REMARK   11  A    between atoms: C11_29  and  O2_30
REMARK   12  A    between atoms: C14_34  and  O3_35
REMARK   13  A    between atoms: C15_37  and  O4_38
REMARK   14  A    between atoms: N11_40  and  N12_41
REMARK   15  A    between atoms: C16_44  and  N13_45
REMARK   16  A    between atoms: N13_45  and  O5_47
ROOT
HETATM    1  C7  UNL     1     -21.638   0.184 -25.709  1.00  0.00     0.185 C
ENDROOT
BRANCH   1   2
HETATM    2  C6  UNL     1     -20.975   0.321 -24.364  1.00  0.00     0.139 A
HETATM    3  N8  UNL     1     -19.763  -0.135 -24.030  1.00  0.00    -0.267 N
HETATM    4  N7  UNL     1     -19.512   0.170 -22.751  1.00  0.00     0.019 NA
ATOM      5  H8  UNL     1     -19.129  -0.636 -24.652  1.00  0.00     0.185 HD
HETATM    6  N6  UNL     1     -20.560   0.817 -22.277  1.00  0.00    -0.114 N
HETATM    7  N14 UNL     1     -21.463   0.914 -23.261  1.00  0.00    -0.251 N
ATOM      8  H14 UNL     1     -22.374   1.366 -23.185  1.00  0.00     0.191 HD
BRANCH   6   9
HETATM    9  N5  UNL     1     -20.798   1.349 -21.009  1.00  0.00    -0.276 N
HETATM   10  C5  UNL     1     -21.674   2.246 -20.770  1.00  0.00     0.131 C
ATOM     11  H5  UNL     1     -20.241   1.001 -20.229  1.00  0.00     0.189 HD
BRANCH  10  12
HETATM   12  C4  UNL     1     -21.843   2.732 -19.409  1.00  0.00     0.091 A
HETATM   13  C3  UNL     1     -22.696   2.036 -18.574  1.00  0.00     0.149 A
HETATM   14  N3  UNL     1     -22.866   2.457 -17.327  1.00  0.00    -0.178 N
HETATM   15  N4  UNL     1     -23.365   0.896 -19.057  1.00  0.00    -0.081 NA
HETATM   16  C2  UNL     1     -22.210   3.546 -16.906  1.00  0.00     0.681 A
ATOM     17  H3  UNL     1     -23.491   1.956 -16.696  1.00  0.00     0.185 HD
HETATM   18  N1  UNL     1     -21.377   4.233 -17.708  1.00  0.00    -0.151 N
HETATM   19  C1  UNL     1     -20.664   5.423 -17.235  1.00  0.00     0.179 C
HETATM   20  C17 UNL     1     -21.187   3.833 -18.962  1.00  0.00     0.276 A
HETATM   21  O6  UNL     1     -20.406   4.471 -19.726  1.00  0.00    -0.266 OA
BRANCH  16  22
HETATM   22  N2  UNL     1     -22.380   3.945 -15.705  1.00  0.00    -0.234 N
ATOM     23  H22 UNL     1     -21.576   3.985 -15.078  1.00  0.00     0.174 HD
ATOM     24  H21 UNL     1     -23.316   4.215 -15.403  1.00  0.00     0.174 HD
ENDBRANCH  16  22
ENDBRANCH  10  12
ENDBRANCH   6   9
ENDBRANCH   1   2
BRANCH   1  25
HETATM   25  N9  UNL     1     -22.666  -0.780 -25.557  1.00  0.00    -0.405 N
ATOM     26  H9  UNL     1     -22.444  -1.769 -25.436  1.00  0.00     0.154 HD
BRANCH  25  27
HETATM   27  C8  UNL     1     -24.011  -0.331 -25.577  1.00  0.00     0.134 C
BRANCH  27  28
HETATM   28  C9  UNL     1     -24.688  -0.362 -24.226  1.00  0.00     0.142 C
BRANCH  28  29
HETATM   29  N10 UNL     1     -24.708   0.966 -23.678  1.00  0.00    -0.358 N
HETATM   30  C10 UNL     1     -25.173   1.184 -22.358  1.00  0.00     0.241 C
HETATM   31  O1  UNL     1     -25.564   0.217 -21.674  1.00  0.00    -0.271 OA
ATOM     32  H10 UNL     1     -24.387   1.753 -24.241  1.00  0.00     0.162 HD
BRANCH  30  33
HETATM   33  C11 UNL     1     -25.206   2.534 -21.774  1.00  0.00     0.266 C
BRANCH  33  34
HETATM   34  O2  UNL     1     -25.345   3.508 -22.762  1.00  0.00    -0.392 OA
ATOM     35  H2  UNL     1     -24.557   3.577 -23.290  1.00  0.00     0.210 HD
ENDBRANCH  33  34
ENDBRANCH  30  33
ENDBRANCH  28  29
ENDBRANCH  27  28
ENDBRANCH  25  27
ENDBRANCH   1  25
BRANCH   1  36
HETATM   36  C12 UNL     1     -20.653  -0.062 -26.765  1.00  0.00     0.022 A
HETATM   37  C13 UNL     1     -20.422  -1.336 -27.265  1.00  0.00     0.054 A
HETATM   38  C14 UNL     1     -19.498  -1.591 -28.263  1.00  0.00     0.119 A
HETATM   39  C15 UNL     1     -18.782  -0.527 -28.773  1.00  0.00     0.197 A
HETATM   40  N11 UNL     1     -18.993   0.714 -28.301  1.00  0.00    -0.219 N
HETATM   41  C16 UNL     1     -19.898   0.945 -27.328  1.00  0.00     0.157 A
BRANCH  38  42
HETATM   42  O3  UNL     1     -19.277  -2.884 -28.758  1.00  0.00    -0.357 OA
ATOM     43  H3  UNL     1     -18.671  -3.054 -29.469  1.00  0.00     0.218 HD
ENDBRANCH  38  42
BRANCH  39  44
HETATM   44  O4  UNL     1     -17.845  -0.780 -29.783  1.00  0.00    -0.343 OA
ATOM     45  H4  UNL     1     -18.160  -1.096 -30.621  1.00  0.00     0.219 HD
ENDBRANCH  39  44
BRANCH  40  46
HETATM   46  N12 UNL     1     -18.236   1.748 -28.860  1.00  0.00    -0.335 N
ATOM     47 2H12 UNL     1     -17.509   2.228 -28.328  1.00  0.00     0.177 HD
ATOM     48 1H12 UNL     1     -18.439   2.005 -29.826  1.00  0.00     0.177 HD
ENDBRANCH  40  46
BRANCH  41  49
HETATM   49  N13 UNL     1     -20.042   2.147 -26.936  1.00  0.00    -0.251 N
ATOM     50  H13 UNL     1     -19.479   2.458 -26.144  1.00  0.00     0.196 HD
BRANCH  49  51
HETATM   51  O5  UNL     1     -20.894   3.046 -27.495  1.00  0.00    -0.288 OA
ATOM     52  H5  UNL     1     -21.836   3.048 -27.372  1.00  0.00     0.244 HD
ENDBRANCH  49  51
ENDBRANCH  41  49
ENDBRANCH   1  36
TORSDOF 16
ENDMDL