MODEL 4
REMARK VINA RESULT: -10.656331520      0.914      1.142
REMARK  10 active torsions:
REMARK  status: ('A' for Active; 'I' for Inactive)
REMARK    1  A    between atoms: N1_1  and  C1_4
REMARK    2  A    between atoms: C2_7  and  C3_8
REMARK       I    between atoms: C3_8  and  N3_10
REMARK    3  A    between atoms: N3_10  and  C4_12
REMARK    4  A    between atoms: C4_12  and  C5_13
REMARK    5  A    between atoms: C4_12  and  N12_34
REMARK    6  A    between atoms: C5_13  and  C6_14
REMARK    7  A    between atoms: C6_14  and  C7_15
REMARK    8  A    between atoms: C7_15  and  O2_16
REMARK    9  A    between atoms: C10_26  and  C11_27
REMARK   10  A    between atoms: C14_39  and  O3_40
ROOT
HETATM    1  C4  UNL     1     -21.036   4.364 -17.003  1.00  0.00     0.197 C
ENDROOT
BRANCH   1   2
HETATM    2  N3  UNL     1     -20.641   5.364 -17.941  1.00  0.00    -0.334 N
HETATM    3  C3  UNL     1     -19.382   5.996 -17.930  1.00  0.00     0.270 C
HETATM    4  O1  UNL     1     -18.577   5.622 -17.010  1.00  0.00    -0.266 OA
ATOM      5  H3  UNL     1     -21.309   5.637 -18.662  1.00  0.00     0.165 HD
BRANCH   3   6
HETATM    6  C2  UNL     1     -18.972   7.017 -18.878  1.00  0.00     0.122 A
HETATM    7  N2  UNL     1     -19.142   8.327 -18.652  1.00  0.00    -0.186 N
HETATM    8  C1  UNL     1     -18.746   9.262 -19.564  1.00  0.00     0.679 A
ATOM      9  H2  UNL     1     -19.577   8.630 -17.781  1.00  0.00     0.184 HD
HETATM   10  N17 UNL     1     -18.165   8.936 -20.731  1.00  0.00    -0.156 N
HETATM   11  C16 UNL     1     -17.976   7.630 -20.997  1.00  0.00     0.261 A
ATOM     12  H17 UNL     1     -17.878   9.655 -21.394  1.00  0.00     0.187 HD
HETATM   13  C15 UNL     1     -18.379   6.663 -20.069  1.00  0.00     0.110 A
HETATM   14  O4  UNL     1     -17.438   7.319 -22.082  1.00  0.00    -0.268 OA
BRANCH   8  15
HETATM   15  N1  UNL     1     -18.935  10.507 -19.291  1.00  0.00    -0.234 N
ATOM     16  H12 UNL     1     -19.820  10.940 -19.557  1.00  0.00     0.174 HD
ATOM     17  H11 UNL     1     -18.191  11.022 -18.819  1.00  0.00     0.174 HD
ENDBRANCH   8  15
ENDBRANCH   3   6
ENDBRANCH   1   2
BRANCH   1  18
HETATM   18  C5  UNL     1     -22.115   3.415 -17.575  1.00  0.00     0.052 C
BRANCH  18  19
HETATM   19  C6  UNL     1     -21.958   3.350 -19.045  1.00  0.00     0.066 C
BRANCH  19  20
HETATM   20  C7  UNL     1     -22.210   1.978 -19.651  1.00  0.00     0.150 A
HETATM   21  N4  UNL     1     -21.080   1.530 -20.401  1.00  0.00    -0.332 N
HETATM   22  C8  UNL     1     -21.091   1.092 -21.600  1.00  0.00     0.191 A
ATOM     23  H4  UNL     1     -20.175   1.564 -19.933  1.00  0.00     0.165 HD
HETATM   24  N5  UNL     1     -19.875   0.668 -22.250  1.00  0.00    -0.063 NA
HETATM   25  N6  UNL     1     -22.328   1.032 -22.291  1.00  0.00    -0.322 N
HETATM   26  C9  UNL     1     -23.421   1.407 -21.740  1.00  0.00     0.111 A
ATOM     27  H6  UNL     1     -22.347   0.683 -23.250  1.00  0.00     0.169 HD
HETATM   28  N7  UNL     1     -24.614   1.297 -22.546  1.00  0.00    -0.086 NA
HETATM   29  C10 UNL     1     -23.520   1.933 -20.364  1.00  0.00     0.175 A
BRANCH  20  30
HETATM   30  O2  UNL     1     -22.280   1.121 -18.515  1.00  0.00    -0.370 OA
ATOM     31  H2  UNL     1     -23.213   0.998 -18.388  1.00  0.00     0.212 HD
ENDBRANCH  20  30
BRANCH  29  32
HETATM   32  C11 UNL     1     -24.556   1.166 -19.605  1.00  0.00     0.122 A
HETATM   33  N8  UNL     1     -24.952  -0.113 -19.768  1.00  0.00    -0.273 N
HETATM   34  N9  UNL     1     -25.895  -0.412 -18.894  1.00  0.00    -0.007 NA
ATOM     35  H8  UNL     1     -24.577  -0.756 -20.466  1.00  0.00     0.185 HD
HETATM   36  N10 UNL     1     -26.107   0.682 -18.162  1.00  0.00    -0.007 NA
HETATM   37  N11 UNL     1     -25.286   1.642 -18.604  1.00  0.00    -0.273 N
ATOM     38  H11 UNL     1     -25.229   2.589 -18.230  1.00  0.00     0.185 HD
ENDBRANCH  29  32
ENDBRANCH  19  20
ENDBRANCH  18  19
ENDBRANCH   1  18
BRANCH   1  39
HETATM   39  N12 UNL     1     -21.564   4.858 -15.805  1.00  0.00    -0.277 N
HETATM   40  C12 UNL     1     -22.577   4.239 -15.249  1.00  0.00     0.202 A
HETATM   41  N13 UNL     1     -22.616   4.973 -14.376  1.00  0.00    -0.334 N
HETATM   42  N16 UNL     1     -23.742   3.514 -14.626  1.00  0.00    -0.259 N
HETATM   43  C13 UNL     1     -22.252   5.840 -13.849  1.00  0.00     0.276 A
ATOM     44  H13 UNL     1     -23.388   4.636 -13.800  1.00  0.00     0.164 HD
HETATM   45  C14 UNL     1     -21.295   5.947 -14.909  1.00  0.00     0.164 A
HETATM   46  N14 UNL     1     -23.415   5.385 -12.924  1.00  0.00    -0.091 NA
HETATM   47  N15 UNL     1     -24.045   4.240 -13.434  1.00  0.00    -0.242 N
ATOM     48  H15 UNL     1     -24.822   3.878 -12.881  1.00  0.00     0.204 HD
ATOM     49  H16 UNL     1     -24.214   2.681 -14.980  1.00  0.00     0.191 HD
BRANCH  45  50
HETATM   50  O3  UNL     1     -20.394   6.898 -14.952  1.00  0.00    -0.346 OA
ATOM     51  H3  UNL     1     -19.472   6.897 -14.724  1.00  0.00     0.219 HD
ENDBRANCH  45  50
ENDBRANCH   1  39
TORSDOF 10
ENDMDL