MODEL 2
REMARK VINA RESULT: -8.731308681      2.485      3.513
REMARK  7 active torsions:
REMARK  status: ('A' for Active; 'I' for Inactive)
REMARK    1  A    between atoms: N1_2  and  C2_3
REMARK    2  A    between atoms: N1_2  and  C10_24
REMARK    3  A    between atoms: C2_3  and  C3_4
REMARK    4  A    between atoms: C3_4  and  N2_5
REMARK    5  A    between atoms: C7_13  and  N4_14
REMARK    6  A    between atoms: N4_14  and  N5_15
REMARK    7  A    between atoms: N10_31  and  O4_32
ROOT
HETATM    1  N2  UNL     1     -29.530 -13.347 -11.556  1.00  0.00    -0.283 N
HETATM    2  C4  UNL     1     -29.924 -14.619 -11.554  1.00  0.00     0.331 A
HETATM    3  O1  UNL     1     -30.185 -15.225 -10.480  1.00  0.00    -0.246 OA
HETATM    4  N3  UNL     1     -30.064 -15.331 -12.704  1.00  0.00    -0.274 N
ATOM      5  H3  UNL     1     -30.368 -16.303 -12.654  1.00  0.00     0.173 HD
HETATM    6  C5  UNL     1     -29.809 -14.778 -13.918  1.00  0.00     0.268 A
HETATM    7  O2  UNL     1     -29.933 -15.417 -14.974  1.00  0.00    -0.267 OA
HETATM    8  C6  UNL     1     -29.403 -13.462 -13.936  1.00  0.00     0.137 A
HETATM    9  C7  UNL     1     -29.153 -12.872 -15.188  1.00  0.00     0.223 A
HETATM   10  N6  UNL     1     -28.770 -11.556 -15.116  1.00  0.00    -0.325 N
ATOM     11  H6  UNL     1     -28.572 -11.063 -15.987  1.00  0.00     0.169 HD
HETATM   12  C8  UNL     1     -28.643 -10.891 -13.975  1.00  0.00     0.184 A
HETATM   13  N7  UNL     1     -28.890 -11.489 -12.807  1.00  0.00    -0.337 N
ATOM     14  H7  UNL     1     -28.786 -10.958 -11.942  1.00  0.00     0.168 HD
HETATM   15  C9  UNL     1     -29.272 -12.773 -12.748  1.00  0.00     0.133 A
ENDROOT
BRANCH   1  16
HETATM   16  C3  UNL     1     -29.398 -12.617 -10.325  1.00  0.00     0.155 C
BRANCH  16  17
HETATM   17  C2  UNL     1     -30.668 -11.946  -9.905  1.00  0.00     0.144 C
BRANCH  17  18
HETATM   18  N1  UNL     1     -30.514 -10.770  -9.108  1.00  0.00    -0.365 N
HETATM   19  C1  UNL     1     -29.977 -10.868  -7.773  1.00  0.00     0.151 C
BRANCH  18  20
HETATM   20  C10 UNL     1     -30.836  -9.486  -9.592  1.00  0.00     0.177 A
HETATM   21  C11 UNL     1     -31.988  -8.743  -9.437  1.00  0.00     0.167 A
HETATM   22  N8  UNL     1     -33.181  -9.102  -8.743  1.00  0.00    -0.078 NA
HETATM   23  N9  UNL     1     -31.813  -7.549 -10.077  1.00  0.00    -0.292 N
HETATM   24  C12 UNL     1     -30.588  -7.530 -10.624  1.00  0.00     0.353 A
ATOM     25  H9  UNL     1     -32.499  -6.798 -10.131  1.00  0.00     0.172 HD
HETATM   26  O3  UNL     1     -30.008  -6.625 -11.303  1.00  0.00    -0.244 OA
HETATM   27  N10 UNL     1     -29.997  -8.694 -10.334  1.00  0.00    -0.152 N
BRANCH  27  28
HETATM   28  O4  UNL     1     -28.744  -9.093 -10.687  1.00  0.00    -0.277 OA
ATOM     29  H4  UNL     1     -27.968  -8.602 -10.443  1.00  0.00     0.245 HD
ENDBRANCH  27  28
ENDBRANCH  18  20
ENDBRANCH  17  18
ENDBRANCH  16  17
ENDBRANCH   1  16
BRANCH   9  30
HETATM   30  N4  UNL     1     -29.224 -13.386 -16.256  1.00  0.00    -0.313 NA
BRANCH  30  31
HETATM   31  N5  UNL     1     -29.302 -13.932 -17.404  1.00  0.00    -0.278 N
ATOM     32  H52 UNL     1     -29.404 -13.583 -16.451  1.00  0.00     0.191 HD
ATOM     33  H51 UNL     1     -29.360 -14.369 -18.323  1.00  0.00     0.191 HD
ENDBRANCH  30  31
ENDBRANCH   9  30
TORSDOF 7
ENDMDL