MODEL 1
REMARK VINA RESULT: -8.971517924      0.000      0.000
REMARK  7 active torsions:
REMARK  status: ('A' for Active; 'I' for Inactive)
REMARK       I    between atoms: N1_1  and  C1_4
REMARK       I    between atoms: C1_4  and  N3_6
REMARK    1  A    between atoms: N3_6  and  C2_8
REMARK    2  A    between atoms: C3_14  and  C4_15
REMARK    3  A    between atoms: N8_24  and  C8_25
REMARK    4  A    between atoms: C8_25  and  C9_26
REMARK    5  A    between atoms: C9_26  and  O3_27
REMARK    6  A    between atoms: C9_26  and  C10_29
REMARK       I    between atoms: C10_29  and  N9_31
REMARK    7  A    between atoms: N9_31  and  N10_32
ROOT
HETATM    1  C4  UNL     1     -29.169 -13.302 -13.449  1.00  0.00     0.119 A
HETATM    2  N6  UNL     1     -29.602 -12.755 -14.583  1.00  0.00    -0.276 N
ATOM      3  H6  UNL     1     -29.315 -13.043 -15.518  1.00  0.00     0.189 HD
HETATM    4  N7  UNL     1     -30.441 -11.806 -14.324  1.00  0.00    -0.201 N
ATOM      5  H7  UNL     1     -30.920 -11.226 -15.012  1.00  0.00     0.216 HD
HETATM    6  O2  UNL     1     -30.565 -11.721 -13.044  1.00  0.00    -0.219 OA
HETATM    7  C5  UNL     1     -29.809 -12.613 -12.424  1.00  0.00     0.148 A
HETATM    8  C6  UNL     1     -29.705 -12.800 -10.997  1.00  0.00     0.089 A
HETATM    9  C7  UNL     1     -29.005 -12.121 -10.019  1.00  0.00     0.130 A
HETATM   10  N8  UNL     1     -29.251 -12.684  -8.824  1.00  0.00    -0.297 N
HETATM   11  N11 UNL     1     -30.098 -13.713  -9.027  1.00  0.00    -0.264 N
ATOM     12  H11 UNL     1     -30.462 -14.328  -8.300  1.00  0.00     0.190 HD
HETATM   13  C11 UNL     1     -30.380 -13.801 -10.305  1.00  0.00     0.274 A
HETATM   14  O5  UNL     1     -31.150 -14.655 -10.868  1.00  0.00    -0.266 OA
ENDROOT
BRANCH   1  15
HETATM   15  C3  UNL     1     -28.224 -14.377 -13.225  1.00  0.00     0.133 A
HETATM   16  C2  UNL     1     -28.515 -15.727 -13.277  1.00  0.00     0.161 A
HETATM   17  N4  UNL     1     -27.368 -16.398 -13.024  1.00  0.00    -0.223 N
HETATM   18  O1  UNL     1     -26.444 -15.516 -12.829  1.00  0.00    -0.155 OA
ATOM     19  H4  UNL     1     -27.254 -17.411 -12.993  1.00  0.00     0.198 HD
HETATM   20  N5  UNL     1     -26.914 -14.295 -12.940  1.00  0.00    -0.236 N
ATOM     21  H5  UNL     1     -26.378 -13.434 -12.829  1.00  0.00     0.197 HD
BRANCH  16  22
HETATM   22  N3  UNL     1     -29.679 -16.176 -13.502  1.00  0.00    -0.314 N
HETATM   23  C1  UNL     1     -30.027 -17.049 -14.543  1.00  0.00     0.187 C
HETATM   24  N1  UNL     1     -29.274 -18.041 -14.906  1.00  0.00    -0.373 N
HETATM   25  N2  UNL     1     -31.274 -16.853 -15.252  1.00  0.00    -0.064 NA
ATOM     26  H12 UNL     1     -29.528 -18.676 -15.663  1.00  0.00     0.158 HD
ATOM     27  H11 UNL     1     -28.395 -18.179 -14.407  1.00  0.00     0.158 HD
ATOM     28  H3  UNL     1     -30.425 -15.877 -12.873  1.00  0.00     0.170 HD
ENDBRANCH  16  22
ENDBRANCH   1  15
BRANCH  10  29
HETATM   29  C8  UNL     1     -28.762 -12.315  -7.507  1.00  0.00     0.191 C
BRANCH  29  30
HETATM   30  C9  UNL     1     -29.787 -11.645  -6.667  1.00  0.00     0.246 C
BRANCH  30  31
HETATM   31  O3  UNL     1     -30.673 -10.868  -7.371  1.00  0.00    -0.383 OA
ATOM     32  H3  UNL     1     -31.545 -11.237  -7.443  1.00  0.00     0.210 HD
ENDBRANCH  30  31
BRANCH  30  33
HETATM   33  C10 UNL     1     -29.002 -10.736  -5.687  1.00  0.00     0.341 C
HETATM   34  O4  UNL     1     -28.918 -11.313  -4.551  1.00  0.00    -0.252 OA
HETATM   35  N9  UNL     1     -28.531  -9.552  -6.071  1.00  0.00    -0.291 NA
BRANCH  35  36
HETATM   36  N10 UNL     1     -28.062  -8.372  -6.453  1.00  0.00    -0.277 N
ATOM     37 2H10 UNL     1     -28.446  -9.263  -6.139  1.00  0.00     0.191 HD
ATOM     38 1H10 UNL     1     -27.701  -7.465  -6.748  1.00  0.00     0.191 HD
ENDBRANCH  35  36
ENDBRANCH  30  33
ENDBRANCH  29  30
ENDBRANCH  10  29
TORSDOF 7
ENDMDL