MODEL 5
REMARK VINA RESULT: -7.363268843      1.287      1.969
REMARK  10 active torsions:
REMARK  status: ('A' for Active; 'I' for Inactive)
REMARK    1  A    between atoms: N1_2  and  C2_4
REMARK    2  A    between atoms: C3_7  and  N3_8
REMARK    3  A    between atoms: C8_20  and  N7_21
REMARK    4  A    between atoms: N7_21  and  C9_23
REMARK    5  A    between atoms: C9_23  and  C10_24
REMARK    6  A    between atoms: C10_24  and  O3_25
REMARK    7  A    between atoms: C10_24  and  C11_27
REMARK    8  A    between atoms: C11_27  and  O4_28
REMARK    9  A    between atoms: C11_27  and  C12_30
REMARK   10  A    between atoms: C12_30  and  O5_32
ROOT
HETATM    1  C2  UNL     1     -29.213 -13.829  -8.047  1.00  0.00     0.706 A
HETATM    2  N2  UNL     1     -29.604 -12.586  -8.365  1.00  0.00    -0.021 N
ATOM      3  H2  UNL     1     -29.612 -11.867  -7.642  1.00  0.00     0.203 HD
HETATM    4  C3  UNL     1     -29.991 -12.261  -9.632  1.00  0.00     0.725 A
HETATM    5  N6  UNL     1     -29.979 -13.216 -10.580  1.00  0.00    -0.021 N
ATOM      6  H6  UNL     1     -30.267 -12.985 -11.530  1.00  0.00     0.203 HD
HETATM    7  C8  UNL     1     -29.591 -14.476 -10.292  1.00  0.00     0.707 A
HETATM    8  N8  UNL     1     -29.213 -14.759  -9.018  1.00  0.00    -0.022 N
ATOM      9  H8  UNL     1     -28.919 -15.709  -8.791  1.00  0.00     0.203 HD
ENDROOT
BRANCH   7  10
HETATM   10  N7  UNL     1     -29.599 -15.345 -11.232  1.00  0.00    -0.223 N
ATOM     11  H7  UNL     1     -30.459 -15.875 -11.370  1.00  0.00     0.177 HD
BRANCH  10  12
HETATM   12  C9  UNL     1     -28.506 -15.635 -12.105  1.00  0.00     0.172 C
BRANCH  12  13
HETATM   13  C10 UNL     1     -28.885 -15.111 -13.492  1.00  0.00     0.167 C
BRANCH  13  14
HETATM   14  O3  UNL     1     -28.484 -16.126 -14.388  1.00  0.00    -0.391 OA
ATOM     15  H3  UNL     1     -28.390 -15.690 -15.226  1.00  0.00     0.210 HD
ENDBRANCH  13  14
BRANCH  13  16
HETATM   16  C11 UNL     1     -28.088 -13.876 -13.846  1.00  0.00     0.176 C
BRANCH  16  17
HETATM   17  O4  UNL     1     -27.789 -13.196 -12.690  1.00  0.00    -0.390 OA
ATOM     18  H4  UNL     1     -27.483 -12.325 -12.917  1.00  0.00     0.210 HD
ENDBRANCH  16  17
BRANCH  16  19
HETATM   19  C12 UNL     1     -28.817 -13.050 -14.867  1.00  0.00     0.145 C
HETATM   20  C13 UNL     1     -28.467 -11.593 -14.652  1.00  0.00     0.042 C
BRANCH  19  21
HETATM   21  O5  UNL     1     -28.436 -13.482 -16.133  1.00  0.00    -0.393 OA
ATOM     22  H5  UNL     1     -28.000 -12.764 -16.576  1.00  0.00     0.210 HD
ENDBRANCH  19  21
ENDBRANCH  16  19
ENDBRANCH  13  16
ENDBRANCH  12  13
ENDBRANCH  10  12
ENDBRANCH   7  10
BRANCH   4  23
HETATM   23  N3  UNL     1     -30.399 -10.943  -9.942  1.00  0.00    -0.058 N
HETATM   24  C4  UNL     1     -29.712 -10.176 -10.806  1.00  0.00     0.274 A
HETATM   25  O1  UNL     1     -28.677 -10.714 -11.323  1.00  0.00    -0.267 OA
HETATM   26  C5  UNL     1     -30.091  -8.894 -11.121  1.00  0.00     0.120 A
HETATM   27  C6  UNL     1     -31.205  -8.364 -10.540  1.00  0.00     0.125 A
HETATM   28  N4  UNL     1     -31.658  -7.023 -10.827  1.00  0.00    -0.082 NA
HETATM   29  N5  UNL     1     -31.895  -9.137  -9.671  1.00  0.00    -0.296 N
HETATM   30  C7  UNL     1     -31.490 -10.409  -9.380  1.00  0.00     0.349 A
ATOM     31  H5  UNL     1     -32.732  -8.763  -9.224  1.00  0.00     0.171 HD
HETATM   32  O2  UNL     1     -32.185 -11.055  -8.565  1.00  0.00    -0.245 OA
ENDBRANCH   4  23
BRANCH   1  33
HETATM   33  N1  UNL     1     -28.841 -14.172  -6.861  1.00  0.00    -0.229 N
HETATM   34  C1  UNL     1     -28.426 -15.483  -6.485  1.00  0.00     0.165 C
ATOM     35  H1  UNL     1     -28.842 -13.452  -6.139  1.00  0.00     0.177 HD
ENDBRANCH   1  33
TORSDOF 10
ENDMDL