MODEL 2
REMARK VINA RESULT: -7.912144653      1.436      1.794
REMARK  9 active torsions:
REMARK  status: ('A' for Active; 'I' for Inactive)
REMARK    1  A    between atoms: N1_1  and  C1_4
REMARK    2  A    between atoms: C2_7  and  N3_8
REMARK    3  A    between atoms: N3_8  and  C3_10
REMARK    4  A    between atoms: C3_10  and  C4_11
REMARK    5  A    between atoms: C4_11  and  C5_12
REMARK    6  A    between atoms: C5_12  and  O1_13
REMARK    7  A    between atoms: C5_12  and  O2_15
REMARK       I    between atoms: N7_25  and  C8_26
REMARK       I    between atoms: C8_26  and  N8_28
REMARK    8  A    between atoms: C11_34  and  N10_35
REMARK    9  A    between atoms: N10_35  and  C12_37
ROOT
HETATM    1  C1  UNL     1     -28.716 -14.394  -6.619  1.00  0.00     0.147 A
HETATM    2  N2  UNL     1     -28.599 -13.124  -6.232  1.00  0.00    -0.175 N
ATOM      3  H2  UNL     1     -28.412 -12.942  -5.246  1.00  0.00     0.186 HD
HETATM    4  C2  UNL     1     -28.709 -12.081  -7.047  1.00  0.00     0.681 A
HETATM    5  N4  UNL     1     -28.955 -12.293  -8.366  1.00  0.00    -0.172 N
ATOM      6  H4  UNL     1     -29.041 -11.502  -9.005  1.00  0.00     0.186 HD
HETATM    7  C6  UNL     1     -29.086 -13.558  -8.829  1.00  0.00     0.180 A
HETATM    8  C7  UNL     1     -28.968 -14.632  -7.961  1.00  0.00     0.140 A
HETATM    9  N5  UNL     1     -29.142 -15.735  -8.696  1.00  0.00    -0.279 N
ATOM     10  H5  UNL     1     -29.115 -16.691  -8.342  1.00  0.00     0.189 HD
HETATM   11  N6  UNL     1     -29.355 -15.394  -9.941  1.00  0.00    -0.230 N
ATOM     12  H6  UNL     1     -29.516 -16.049 -10.707  1.00  0.00     0.209 HD
HETATM   13  N7  UNL     1     -29.328 -14.061 -10.062  1.00  0.00    -0.171 N
HETATM   14  C8  UNL     1     -29.503 -13.310 -11.245  1.00  0.00     0.348 C
HETATM   15  O3  UNL     1     -29.418 -12.050 -11.193  1.00  0.00    -0.245 OA
HETATM   16  N8  UNL     1     -29.766 -13.863 -12.499  1.00  0.00    -0.306 N
HETATM   17  C9  UNL     1     -29.912 -12.963 -13.690  1.00  0.00     0.360 C
HETATM   18  N9  UNL     1     -29.274 -13.633 -14.804  1.00  0.00    -0.057 N
ATOM     19  H91 UNL     1     -28.959 -12.960 -15.502  1.00  0.00     0.279 HD
ATOM     20  H92 UNL     1     -29.958 -14.144 -15.361  1.00  0.00     0.279 HD
HETATM   21  C10 UNL     1     -28.191 -14.499 -14.396  1.00  0.00     0.261 C
HETATM   22  C11 UNL     1     -28.620 -15.647 -13.514  1.00  0.00     0.127 C
HETATM   23  C13 UNL     1     -29.932 -15.246 -12.863  1.00  0.00     0.156 C
ENDROOT
BRANCH   4  24
HETATM   24  N3  UNL     1     -28.596 -10.852  -6.672  1.00  0.00    -0.226 N
ATOM     25  H3  UNL     1     -27.671 -10.421  -6.651  1.00  0.00     0.177 HD
BRANCH  24  26
HETATM   26  C3  UNL     1     -29.747 -10.070  -6.282  1.00  0.00     0.143 C
BRANCH  26  27
HETATM   27  C4  UNL     1     -29.939  -8.874  -7.185  1.00  0.00     0.080 C
BRANCH  27  28
HETATM   28  C5  UNL     1     -30.536  -9.226  -8.504  1.00  0.00     0.255 C
BRANCH  28  29
HETATM   29  O1  UNL     1     -31.379 -10.321  -8.317  1.00  0.00    -0.371 OA
ATOM     30  H1  UNL     1     -30.861 -11.034  -7.964  1.00  0.00     0.212 HD
ENDBRANCH  28  29
BRANCH  28  31
HETATM   31  O2  UNL     1     -29.617  -9.567  -9.468  1.00  0.00    -0.371 OA
ATOM     32  H2  UNL     1     -28.794  -9.097  -9.405  1.00  0.00     0.212 HD
ENDBRANCH  28  31
ENDBRANCH  27  28
ENDBRANCH  26  27
ENDBRANCH  24  26
ENDBRANCH   4  24
BRANCH   1  33
HETATM   33  N1  UNL     1     -28.608 -15.399  -5.815  1.00  0.00    -0.383 N
ATOM     34  H12 UNL     1     -27.835 -15.419  -5.151  1.00  0.00     0.157 HD
ATOM     35  H11 UNL     1     -29.257 -16.186  -5.805  1.00  0.00     0.157 HD
ENDBRANCH   1  33
BRANCH  22  36
HETATM   36  N10 UNL     1     -28.719 -16.895 -14.227  1.00  0.00    -0.360 N
ATOM     37  H10 UNL     1     -27.912 -17.515 -14.282  1.00  0.00     0.162 HD
BRANCH  36  38
HETATM   38  C12 UNL     1     -29.941 -17.264 -14.857  1.00  0.00     0.348 C
HETATM   39  O4  UNL     1     -30.308 -16.668 -15.920  1.00  0.00    -0.284 OA
ENDBRANCH  36  38
ENDBRANCH  22  36
TORSDOF 9
ENDMDL