MODEL 5
REMARK VINA RESULT: -7.549333840      3.070      5.182
REMARK  9 active torsions:
REMARK  status: ('A' for Active; 'I' for Inactive)
REMARK    1  A    between atoms: N1_1  and  N2_4
REMARK       I    between atoms: N2_4  and  C1_6
REMARK    2  A    between atoms: C1_6  and  C2_8
REMARK    3  A    between atoms: C4_12  and  C5_13
REMARK       I    between atoms: C5_13  and  N4_15
REMARK    4  A    between atoms: N4_15  and  C6_17
REMARK    5  A    between atoms: C6_17  and  C7_18
REMARK    6  A    between atoms: C6_17  and  C8_20
REMARK    7  A    between atoms: C8_20  and  N5_21
REMARK    8  A    between atoms: C8_20  and  O4_25
REMARK    9  A    between atoms: N6_28  and  C10_29
ROOT
HETATM    1  C2  UNL     1     -29.630 -14.411 -12.702  1.00  0.00     0.178 A
HETATM    2  N3  UNL     1     -29.772 -13.074 -12.714  1.00  0.00    -0.334 N
ATOM      3  H3  UNL     1     -29.936 -12.481 -13.529  1.00  0.00     0.168 HD
HETATM    4  C3  UNL     1     -29.655 -12.674 -11.428  1.00  0.00     0.096 A
HETATM    5  C4  UNL     1     -29.681 -11.578 -10.608  1.00  0.00     0.078 A
HETATM    6  C9  UNL     1     -29.483 -12.042  -9.314  1.00  0.00     0.120 A
HETATM    7  N6  UNL     1     -29.340 -13.376  -9.364  1.00  0.00    -0.285 N
HETATM    8  C12 UNL     1     -29.439 -13.777 -10.634  1.00  0.00     0.143 A
HETATM    9  N9  UNL     1     -29.423 -14.838 -11.421  1.00  0.00    -0.322 N
ATOM     10  H9  UNL     1     -29.282 -15.804 -11.125  1.00  0.00     0.169 HD
ENDROOT
BRANCH   5  11
HETATM   11  C5  UNL     1     -29.812 -10.151 -10.916  1.00  0.00     0.256 C
HETATM   12  O2  UNL     1     -29.963  -9.799 -12.111  1.00  0.00    -0.268 OA
HETATM   13  N4  UNL     1     -29.776  -9.211  -9.874  1.00  0.00    -0.342 N
ATOM     14  H4  UNL     1     -29.659  -9.549  -8.919  1.00  0.00     0.163 HD
BRANCH  13  15
HETATM   15  C6  UNL     1     -29.898  -7.777 -10.093  1.00  0.00     0.202 C
BRANCH  15  16
HETATM   16  C7  UNL     1     -29.189  -7.062  -9.035  1.00  0.00     0.260 C
HETATM   17  O3  UNL     1     -29.455  -7.315  -7.862  1.00  0.00    -0.304 OA
ENDBRANCH  15  16
BRANCH  15  18
HETATM   18  C8  UNL     1     -31.399  -7.397 -10.093  1.00  0.00     0.346 C
BRANCH  18  19
HETATM   19  N5  UNL     1     -32.104  -8.374  -9.288  1.00  0.00    -0.051 N
ATOM     20  H53 UNL     1     -31.871  -9.335  -9.537  1.00  0.00     0.277 HD
ATOM     21  H52 UNL     1     -31.777  -8.401  -8.322  1.00  0.00     0.277 HD
ATOM     22  H51 UNL     1     -33.103  -8.178  -9.361  1.00  0.00     0.277 HD
ENDBRANCH  18  19
BRANCH  18  23
HETATM   23  O4  UNL     1     -31.915  -7.444 -11.379  1.00  0.00    -0.368 OA
ATOM     24  H4  UNL     1     -32.727  -7.936 -11.396  1.00  0.00     0.212 HD
ENDBRANCH  18  23
ENDBRANCH  15  18
ENDBRANCH  13  15
ENDBRANCH   5  11
BRANCH   7  25
HETATM   25  C10 UNL     1     -29.101 -14.177  -8.193  1.00  0.00     0.206 A
HETATM   26  N7  UNL     1     -29.336 -15.485  -8.042  1.00  0.00    -0.220 N
HETATM   27  O5  UNL     1     -29.003 -15.855  -6.813  1.00  0.00    -0.152 OA
ATOM     28  H7  UNL     1     -29.713 -16.102  -8.761  1.00  0.00     0.198 HD
HETATM   29  N8  UNL     1     -28.554 -14.848  -6.136  1.00  0.00    -0.203 N
HETATM   30  C11 UNL     1     -28.595 -13.767  -6.957  1.00  0.00     0.313 A
ATOM     31  H8  UNL     1     -28.231 -14.862  -5.168  1.00  0.00     0.200 HD
HETATM   32  O6  UNL     1     -28.238 -12.639  -6.629  1.00  0.00    -0.262 OA
ENDBRANCH   7  25
BRANCH   1  33
HETATM   33  C1  UNL     1     -29.715 -15.321 -13.827  1.00  0.00     0.303 C
HETATM   34  N2  UNL     1     -30.983 -15.701 -14.321  1.00  0.00    -0.270 N
ATOM     35  H2  UNL     1     -31.830 -15.328 -13.891  1.00  0.00     0.189 HD
HETATM   36  O1  UNL     1     -28.688 -15.779 -14.366  1.00  0.00    -0.263 OA
BRANCH  34  37
HETATM   37  N1  UNL     1     -31.078 -16.582 -15.393  1.00  0.00    -0.342 N
ATOM     38  H12 UNL     1     -31.950 -17.091 -15.537  1.00  0.00     0.176 HD
ATOM     39  H11 UNL     1     -30.285 -16.711 -16.020  1.00  0.00     0.176 HD
ENDBRANCH  34  37
ENDBRANCH   1  33
TORSDOF 9
ENDMDL