MODEL 4
REMARK VINA RESULT: -8.393586327      2.433      4.052
REMARK  8 active torsions:
REMARK  status: ('A' for Active; 'I' for Inactive)
REMARK    1  A    between atoms: C3_4  and  C4_5
REMARK       I    between atoms: C4_5  and  N2_7
REMARK    2  A    between atoms: N2_7  and  N3_9
REMARK    3  A    between atoms: C5_11  and  C6_12
REMARK    4  A    between atoms: C6_12  and  O2_13
REMARK    5  A    between atoms: C6_12  and  C7_15
REMARK    6  A    between atoms: C7_15  and  N4_16
REMARK    7  A    between atoms: C8_17  and  N5_18
REMARK    8  A    between atoms: C11_32  and  N10_33
ROOT
HETATM    1  C4  UNL     1     -29.844 -15.043  -9.248  1.00  0.00     0.289 C
HETATM    2  O1  UNL     1     -29.904 -16.218  -8.831  1.00  0.00    -0.264 OA
HETATM    3  N2  UNL     1     -29.094 -14.893 -10.472  1.00  0.00    -0.265 N
ATOM      4  H2  UNL     1     -29.002 -13.960 -10.873  1.00  0.00     0.190 HD
ENDROOT
BRANCH   3   5
HETATM    5  N3  UNL     1     -28.493 -15.962 -11.129  1.00  0.00    -0.310 N
HETATM    6  C5  UNL     1     -28.364 -16.111 -12.387  1.00  0.00     0.113 C
ATOM      7  H3  UNL     1     -28.115 -16.704 -10.542  1.00  0.00     0.185 HD
BRANCH   6   8
HETATM    8  C6  UNL     1     -28.875 -15.097 -13.326  1.00  0.00     0.177 C
BRANCH   8   9
HETATM    9  O2  UNL     1     -29.396 -15.792 -14.423  1.00  0.00    -0.389 OA
ATOM     10  H2  UNL     1     -28.681 -15.905 -15.038  1.00  0.00     0.210 HD
ENDBRANCH   8   9
BRANCH   8  11
HETATM   11  C7  UNL     1     -27.838 -14.162 -13.849  1.00  0.00     0.189 C
BRANCH  11  12
HETATM   12  N4  UNL     1     -28.272 -12.864 -14.240  1.00  0.00    -0.128 N
HETATM   13  C8  UNL     1     -28.916 -12.438 -15.338  1.00  0.00     0.697 A
HETATM   14  N6  UNL     1     -29.123 -11.093 -15.285  1.00  0.00    -0.128 N
HETATM   15  N7  UNL     1     -28.598 -10.706 -14.141  1.00  0.00    -0.236 N
ATOM     16  H6  UNL     1     -29.586 -10.509 -15.981  1.00  0.00     0.205 HD
HETATM   17  C9  UNL     1     -28.072 -11.768 -13.486  1.00  0.00     0.355 A
ATOM     18  H7  UNL     1     -28.587  -9.746 -13.798  1.00  0.00     0.192 HD
HETATM   19  O3  UNL     1     -27.510 -11.639 -12.360  1.00  0.00    -0.244 OA
BRANCH  13  20
HETATM   20  N5  UNL     1     -29.284 -13.174 -16.295  1.00  0.00    -0.233 N
ATOM     21  H52 UNL     1     -28.644 -13.676 -16.910  1.00  0.00     0.174 HD
ATOM     22  H51 UNL     1     -30.253 -13.348 -16.562  1.00  0.00     0.174 HD
ENDBRANCH  13  20
ENDBRANCH  11  12
ENDBRANCH   8  11
ENDBRANCH   6   8
ENDBRANCH   3   5
BRANCH   1  23
HETATM   23  C3  UNL     1     -30.437 -13.888  -8.627  1.00  0.00     0.147 A
HETATM   24  C2  UNL     1     -31.598 -13.290  -9.104  1.00  0.00     0.145 A
HETATM   25  N1  UNL     1     -31.861 -12.254  -8.297  1.00  0.00    -0.194 N
HETATM   26  C1  UNL     1     -32.986 -11.344  -8.422  1.00  0.00     0.175 C
HETATM   27  C12 UNL     1     -30.927 -12.169  -7.339  1.00  0.00     0.709 A
HETATM   28  N8  UNL     1     -30.041 -13.176  -7.534  1.00  0.00    -0.088 N
HETATM   29  N11 UNL     1     -30.759 -11.311  -6.309  1.00  0.00    -0.021 N
HETATM   30  C10 UNL     1     -29.013 -13.286  -6.684  1.00  0.00     0.360 A
HETATM   31  O4  UNL     1     -28.175 -14.204  -6.835  1.00  0.00    -0.245 OA
HETATM   32  N9  UNL     1     -28.836 -12.421  -5.641  1.00  0.00    -0.140 N
HETATM   33  C11 UNL     1     -29.721 -11.435  -5.465  1.00  0.00     0.694 A
ATOM     34  H9  UNL     1     -28.043 -12.526  -5.009  1.00  0.00     0.189 HD
ATOM     35  H11 UNL     1     -31.431 -10.556  -6.169  1.00  0.00     0.203 HD
BRANCH  33  36
HETATM   36  N10 UNL     1     -29.543 -10.625  -4.475  1.00  0.00    -0.234 N
ATOM     37 2H10 UNL     1     -29.616 -10.932  -3.506  1.00  0.00     0.174 HD
ATOM     38 1H10 UNL     1     -29.325  -9.651  -4.683  1.00  0.00     0.174 HD
ENDBRANCH  33  36
ENDBRANCH   1  23
TORSDOF 8
ENDMDL