MODEL 2
REMARK VINA RESULT: -7.658799452      1.292      1.292
REMARK  9 active torsions:
REMARK  status: ('A' for Active; 'I' for Inactive)
REMARK    1  A    between atoms: N1_1  and  C1_4
REMARK    2  A    between atoms: N3_9  and  C4_11
REMARK    3  A    between atoms: C4_11  and  C5_12
REMARK    4  A    between atoms: C5_12  and  O1_13
REMARK    5  A    between atoms: N5_19  and  N6_21
REMARK    6  A    between atoms: N7_24  and  C8_25
REMARK    7  A    between atoms: C8_25  and  C9_26
REMARK    8  A    between atoms: C9_26  and  N8_27
REMARK    9  A    between atoms: C9_26  and  C10_31
ROOT
HETATM    1  C1  UNL     1     -27.458 -12.999 -14.557  1.00  0.00     0.223 A
HETATM    2  N2  UNL     1     -27.958 -14.250 -14.379  1.00  0.00    -0.317 N
ATOM      3  H2  UNL     1     -27.882 -15.009 -15.056  1.00  0.00     0.169 HD
HETATM    4  C2  UNL     1     -28.567 -14.344 -13.185  1.00  0.00     0.116 A
HETATM    5  C3  UNL     1     -29.220 -15.336 -12.513  1.00  0.00     0.136 A
HETATM    6  N3  UNL     1     -29.386 -16.469 -12.930  1.00  0.00    -0.352 N
ATOM      7  H3  UNL     1     -29.902 -16.990 -12.220  1.00  0.00     0.166 HD
HETATM    8  N4  UNL     1     -29.718 -15.028 -11.275  1.00  0.00    -0.336 N
ATOM      9  H4  UNL     1     -30.211 -15.751 -10.751  1.00  0.00     0.168 HD
HETATM   10  C6  UNL     1     -29.582 -13.812 -10.726  1.00  0.00     0.110 A
HETATM   11  C7  UNL     1     -30.117 -13.543  -9.435  1.00  0.00     0.152 A
HETATM   12  N5  UNL     1     -30.692 -14.528  -8.929  1.00  0.00    -0.290 N
ATOM     13  H5  UNL     1     -30.675 -15.350  -9.532  1.00  0.00     0.188 HD
HETATM   14  N7  UNL     1     -29.991 -12.346  -8.878  1.00  0.00    -0.324 N
HETATM   15  C11 UNL     1     -29.328 -11.365  -9.579  1.00  0.00     0.185 A
HETATM   16  N10 UNL     1     -28.824 -11.617 -10.790  1.00  0.00    -0.348 N
ATOM     17  H10 UNL     1     -28.337 -10.869 -11.282  1.00  0.00     0.167 HD
HETATM   18  C12 UNL     1     -28.930 -12.805 -11.383  1.00  0.00     0.101 A
HETATM   19  C13 UNL     1     -28.408 -13.065 -12.639  1.00  0.00     0.139 A
HETATM   20  O3  UNL     1     -27.751 -12.319 -13.486  1.00  0.00    -0.275 OA
ENDROOT
BRANCH  14  21
HETATM   21  C8  UNL     1     -30.505 -12.005  -7.570  1.00  0.00     0.173 C
BRANCH  21  22
HETATM   22  C9  UNL     1     -29.762 -10.836  -6.973  1.00  0.00     0.290 C
BRANCH  22  23
HETATM   23  N8  UNL     1     -30.727  -9.894  -6.388  1.00  0.00    -0.065 N
ATOM     24  H83 UNL     1     -31.593 -10.353  -6.108  1.00  0.00     0.275 HD
ATOM     25  H82 UNL     1     -30.434  -9.562  -5.469  1.00  0.00     0.275 HD
ATOM     26  H81 UNL     1     -30.889  -9.129  -7.042  1.00  0.00     0.275 HD
ENDBRANCH  22  23
BRANCH  22  27
HETATM   27  C10 UNL     1     -28.846 -11.360  -5.933  1.00  0.00     0.263 C
HETATM   28  N9  UNL     1     -28.985 -11.080  -4.565  1.00  0.00    -0.060 NA
HETATM   29  O2  UNL     1     -27.894 -12.096  -6.307  1.00  0.00    -0.275 OA
ENDBRANCH  22  27
ENDBRANCH  21  22
ENDBRANCH  14  21
BRANCH  12  30
HETATM   30  N6  UNL     1     -31.323 -14.745  -7.775  1.00  0.00    -0.344 N
ATOM     31  H62 UNL     1     -31.599 -13.870  -7.330  1.00  0.00     0.176 HD
ATOM     32  H61 UNL     1     -31.583 -15.582  -7.253  1.00  0.00     0.176 HD
ENDBRANCH  12  30
BRANCH   6  33
HETATM   33  C4  UNL     1     -29.148 -17.323 -13.987  1.00  0.00     0.088 C
BRANCH  33  34
HETATM   34  C5  UNL     1     -30.166 -17.285 -15.113  1.00  0.00     0.208 C
BRANCH  34  35
HETATM   35  O1  UNL     1     -30.301 -16.035 -15.680  1.00  0.00    -0.396 OA
ATOM     36  H1  UNL     1     -30.815 -16.041 -16.478  1.00  0.00     0.209 HD
ENDBRANCH  34  35
ENDBRANCH  33  34
ENDBRANCH   6  33
BRANCH   1  37
HETATM   37  N1  UNL     1     -26.810 -12.579 -15.612  1.00  0.00    -0.365 N
ATOM     38  H12 UNL     1     -25.829 -12.304 -15.667  1.00  0.00     0.159 HD
ATOM     39  H11 UNL     1     -27.204 -12.465 -16.546  1.00  0.00     0.159 HD
ENDBRANCH   1  37
TORSDOF 9
ENDMDL