MODEL 4
REMARK VINA RESULT: -7.636041078      1.929      3.306
REMARK  8 active torsions:
REMARK  status: ('A' for Active; 'I' for Inactive)
REMARK    1  A    between atoms: C2_2  and  C3_3
REMARK    2  A    between atoms: C2_2  and  N1_6
REMARK       I    between atoms: N1_6  and  C4_7
REMARK    3  A    between atoms: N1_6  and  C6_15
REMARK    4  A    between atoms: C4_7  and  O4_9
REMARK    5  A    between atoms: O4_9  and  N2_10
REMARK       I    between atoms: N2_10  and  C5_12
REMARK    6  A    between atoms: C6_15  and  O6_16
REMARK    7  A    between atoms: C6_15  and  C7_18
REMARK    8  A    between atoms: N5_22  and  N6_24
ROOT
HETATM    1  C7  UNL     1     -29.678 -12.964  -9.690  1.00  0.00     0.110 A
HETATM    2  N4  UNL     1     -29.598 -13.286 -10.979  1.00  0.00    -0.336 N
ATOM      3  H4  UNL     1     -29.759 -12.552 -11.669  1.00  0.00     0.168 HD
HETATM    4  C8  UNL     1     -29.310 -14.553 -11.434  1.00  0.00     0.123 A
HETATM    5  N5  UNL     1     -29.258 -14.730 -12.705  1.00  0.00    -0.246 N
ATOM      6  H5  UNL     1     -29.435 -13.919 -13.298  1.00  0.00     0.192 HD
HETATM    7  C9  UNL     1     -29.085 -15.586 -10.574  1.00  0.00     0.052 A
HETATM    8  C10 UNL     1     -29.155 -15.316  -9.236  1.00  0.00     0.033 A
HETATM    9  C11 UNL     1     -29.442 -14.044  -8.817  1.00  0.00     0.077 A
HETATM   10  N10 UNL     1     -29.499 -13.790  -7.411  1.00  0.00    -0.100 NA
ENDROOT
BRANCH   1  11
HETATM   11  C6  UNL     1     -30.060 -11.702  -9.106  1.00  0.00     0.177 C
BRANCH  11  12
HETATM   12  N1  UNL     1     -31.177 -10.873  -9.262  1.00  0.00    -0.256 N
HETATM   13  C4  UNL     1     -30.982  -9.669 -10.056  1.00  0.00     0.392 C
HETATM   14  O3  UNL     1     -31.835  -8.774 -10.175  1.00  0.00    -0.236 OA
BRANCH  12  15
HETATM   15  C2  UNL     1     -32.438 -11.073  -8.604  1.00  0.00     0.194 C
HETATM   16  C1  UNL     1     -33.480 -11.728  -9.496  1.00  0.00     0.044 C
BRANCH  15  17
HETATM   17  C3  UNL     1     -32.354 -11.859  -7.301  1.00  0.00     0.197 C
HETATM   18  O1  UNL     1     -32.898 -13.122  -7.467  1.00  0.00    -0.646 OA
HETATM   19  O2  UNL     1     -32.643 -11.203  -6.160  1.00  0.00    -0.646 OA
ENDBRANCH  15  17
ENDBRANCH  12  15
BRANCH  13  20
HETATM   20  O4  UNL     1     -29.789  -9.499 -10.723  1.00  0.00    -0.177 OA
BRANCH  20  21
HETATM   21  N2  UNL     1     -29.612  -9.751 -12.066  1.00  0.00    -0.208 N
HETATM   22  C5  UNL     1     -28.500 -10.504 -12.526  1.00  0.00     0.352 C
HETATM   23  N3  UNL     1     -28.265 -10.795 -13.888  1.00  0.00    -0.038 NA
HETATM   24  O5  UNL     1     -27.672 -10.942 -11.691  1.00  0.00    -0.249 OA
ATOM     25  H2  UNL     1     -30.289  -9.391 -12.739  1.00  0.00     0.199 HD
ENDBRANCH  20  21
ENDBRANCH  13  20
ENDBRANCH  11  12
BRANCH  11  26
HETATM   26  O6  UNL     1     -29.187 -11.210  -8.234  1.00  0.00    -0.344 OA
ATOM     27  H6  UNL     1     -28.334 -11.064  -8.625  1.00  0.00     0.219 HD
ENDBRANCH  11  26
ENDBRANCH   1  11
BRANCH   5  28
HETATM   28  N6  UNL     1     -28.986 -15.917 -13.328  1.00  0.00    -0.097 N
HETATM   29  N7  UNL     1     -29.779 -16.763 -13.998  1.00  0.00    -0.189 N
HETATM   30  N8  UNL     1     -28.771 -17.570 -14.235  1.00  0.00    -0.208 N
ATOM     31  H7  UNL     1     -30.771 -16.775 -14.232  1.00  0.00     0.213 HD
HETATM   32  N9  UNL     1     -27.984 -16.760 -13.586  1.00  0.00    -0.189 N
ATOM     33  H8  UNL     1     -28.653 -18.458 -14.723  1.00  0.00     0.211 HD
ATOM     34  H9  UNL     1     -26.989 -16.767 -13.362  1.00  0.00     0.213 HD
ENDBRANCH   5  28
TORSDOF 8
ENDMDL