MODEL 2
REMARK VINA RESULT: -7.696596325      2.598      5.942
REMARK  10 active torsions:
REMARK  status: ('A' for Active; 'I' for Inactive)
REMARK    1  A    between atoms: C2_2  and  N1_3
REMARK    2  A    between atoms: N1_3  and  C4_5
REMARK    3  A    between atoms: C5_8  and  N3_9
REMARK    4  A    between atoms: C6_14  and  N5_15
REMARK    5  A    between atoms: N5_15  and  C7_17
REMARK    6  A    between atoms: C7_17  and  C8_18
REMARK    7  A    between atoms: C8_18  and  N6_19
REMARK    8  A    between atoms: N6_19  and  C9_21
REMARK    9  A    between atoms: N8_26  and  N9_27
REMARK   10  A    between atoms: C12_33  and  N11_34
ROOT
HETATM    1  N6  UNL     1     -27.701 -11.852 -11.955  1.00  0.00    -0.222 N
ATOM      2  H6  UNL     1     -27.028 -12.204 -11.273  1.00  0.00     0.177 HD
ENDROOT
BRANCH   1   3
HETATM    3  C8  UNL     1     -27.907 -10.446 -12.053  1.00  0.00     0.158 C
BRANCH   3   4
HETATM    4  C7  UNL     1     -29.344 -10.027 -11.882  1.00  0.00     0.158 C
BRANCH   4   5
HETATM    5  N5  UNL     1     -29.686  -9.606 -10.559  1.00  0.00    -0.224 N
ATOM      6  H5  UNL     1     -29.550  -8.634 -10.280  1.00  0.00     0.177 HD
BRANCH   5   7
HETATM    7  C6  UNL     1     -30.163 -10.451  -9.725  1.00  0.00     0.707 A
HETATM    8  N4  UNL     1     -31.347 -11.017  -9.993  1.00  0.00    -0.022 N
HETATM    9  C5  UNL     1     -31.862 -11.912  -9.109  1.00  0.00     0.705 A
ATOM     10  H4  UNL     1     -31.854 -10.780 -10.846  1.00  0.00     0.203 HD
HETATM   11  N2  UNL     1     -31.190 -12.222  -7.982  1.00  0.00    -0.022 N
HETATM   12  C4  UNL     1     -30.000 -11.662  -7.698  1.00  0.00     0.709 A
ATOM     13  H2  UNL     1     -31.593 -12.895  -7.332  1.00  0.00     0.203 HD
HETATM   14  N14 UNL     1     -29.509 -10.777  -8.589  1.00  0.00    -0.021 N
ATOM     15  H14 UNL     1     -28.609 -10.336  -8.397  1.00  0.00     0.203 HD
BRANCH   9  16
HETATM   16  N3  UNL     1     -33.002 -12.442  -9.388  1.00  0.00    -0.234 N
ATOM     17  H32 UNL     1     -33.090 -12.941 -10.274  1.00  0.00     0.174 HD
ATOM     18  H31 UNL     1     -33.798 -12.373  -8.754  1.00  0.00     0.174 HD
ENDBRANCH   9  16
BRANCH  12  19
HETATM   19  N1  UNL     1     -29.336 -12.014  -6.499  1.00  0.00    -0.221 N
HETATM   20  C3  UNL     1     -29.799 -11.497  -5.240  1.00  0.00     0.168 C
BRANCH  19  21
HETATM   21  C2  UNL     1     -28.188 -12.884  -6.548  1.00  0.00     0.136 C
HETATM   22  C1  UNL     1     -28.553 -14.326  -6.858  1.00  0.00     0.027 C
ENDBRANCH  19  21
ENDBRANCH  12  19
ENDBRANCH   5   7
ENDBRANCH   4   5
ENDBRANCH   3   4
ENDBRANCH   1   3
BRANCH   1  23
HETATM   23  C9  UNL     1     -28.331 -12.695 -12.693  1.00  0.00     0.719 A
HETATM   24  N7  UNL     1     -28.282 -12.659 -14.043  1.00  0.00    -0.137 N
HETATM   25  C10 UNL     1     -28.958 -13.567 -14.764  1.00  0.00     0.374 A
ATOM     26  H7  UNL     1     -27.731 -11.941 -14.514  1.00  0.00     0.189 HD
HETATM   27  O1  UNL     1     -28.922 -13.544 -16.003  1.00  0.00    -0.244 OA
HETATM   28  N8  UNL     1     -29.685 -14.511 -14.132  1.00  0.00    -0.035 N
HETATM   29  C11 UNL     1     -29.736 -14.548 -12.786  1.00  0.00     0.758 A
HETATM   30  N10 UNL     1     -30.368 -15.365 -11.922  1.00  0.00    -0.017 N
HETATM   31  N13 UNL     1     -29.063 -13.646 -12.047  1.00  0.00     0.107 N
HETATM   32  C12 UNL     1     -30.099 -14.982 -10.654  1.00  0.00     0.706 A
ATOM     33  H10 UNL     1     -30.960 -16.153 -12.184  1.00  0.00     0.203 HD
HETATM   34  N12 UNL     1     -29.288 -13.916 -10.773  1.00  0.00    -0.096 N
ATOM     35  H12 UNL     1     -28.901 -13.391  -9.989  1.00  0.00     0.207 HD
BRANCH  28  36
HETATM   36  N9  UNL     1     -30.420 -15.495 -14.823  1.00  0.00    -0.320 N
ATOM     37  H92 UNL     1     -29.892 -16.279 -15.205  1.00  0.00     0.178 HD
ATOM     38  H91 UNL     1     -31.430 -15.442 -14.948  1.00  0.00     0.178 HD
ENDBRANCH  28  36
BRANCH  32  39
HETATM   39  N11 UNL     1     -30.547 -15.548  -9.558  1.00  0.00    -0.233 N
ATOM     40 2H11 UNL     1     -30.652 -16.542  -9.356  1.00  0.00     0.174 HD
ATOM     41 1H11 UNL     1     -30.869 -15.067  -8.718  1.00  0.00     0.174 HD
ENDBRANCH  32  39
ENDBRANCH   1  23
TORSDOF 10
ENDMDL