MODEL 5
REMARK VINA RESULT: -8.459269685      1.710      2.107
REMARK  10 active torsions:
REMARK  status: ('A' for Active; 'I' for Inactive)
REMARK    1  A    between atoms: O1_2  and  C2_3
REMARK    2  A    between atoms: C2_3  and  O2_4
REMARK    3  A    between atoms: C2_3  and  C3_6
REMARK    4  A    between atoms: N1_7  and  N2_9
REMARK    5  A    between atoms: N2_9  and  C4_11
REMARK    6  A    between atoms: C6_20  and  N6_21
REMARK    7  A    between atoms: N6_21  and  N7_23
REMARK    8  A    between atoms: N7_23  and  C7_24
REMARK    9  A    between atoms: C7_24  and  C8_25
REMARK   10  A    between atoms: N9_32  and  N10_33
ROOT
HETATM    1  C4  UNL     1     -28.315 -13.224 -11.574  1.00  0.00     0.726 A
HETATM    2  N3  UNL     1     -27.830 -13.983 -12.585  1.00  0.00    -0.020 N
ATOM      3  H3  UNL     1     -27.158 -13.568 -13.231  1.00  0.00     0.203 HD
HETATM    4  C5  UNL     1     -28.200 -15.262 -12.770  1.00  0.00     0.705 A
HETATM    5  N4  UNL     1     -27.759 -16.018 -13.715  1.00  0.00    -0.234 N
ATOM      6  H41 UNL     1     -28.039 -16.989 -13.855  1.00  0.00     0.174 HD
ATOM      7  H42 UNL     1     -27.085 -15.624 -14.370  1.00  0.00     0.174 HD
HETATM    8  N5  UNL     1     -29.104 -15.791 -11.891  1.00  0.00    -0.019 N
ATOM      9  H5  UNL     1     -29.400 -16.759 -12.009  1.00  0.00     0.203 HD
HETATM   10  C6  UNL     1     -29.612 -15.074 -10.880  1.00  0.00     0.736 A
HETATM   11  N11 UNL     1     -29.209 -13.780 -10.724  1.00  0.00    -0.018 N
ATOM     12  H11 UNL     1     -29.587 -13.225  -9.957  1.00  0.00     0.203 HD
ENDROOT
BRANCH  10  13
HETATM   13  N6  UNL     1     -30.458 -15.568 -10.060  1.00  0.00    -0.064 N
ATOM     14  H6  UNL     1     -30.832 -16.477 -10.334  1.00  0.00     0.221 HD
BRANCH  13  15
HETATM   15  N7  UNL     1     -30.914 -15.119  -8.959  1.00  0.00    -0.323 NA
BRANCH  15  16
HETATM   16  C7  UNL     1     -31.037 -14.587  -7.893  1.00  0.00     0.228 C
BRANCH  16  17
HETATM   17  C8  UNL     1     -30.264 -13.447  -7.339  1.00  0.00     0.087 A
HETATM   18  C9  UNL     1     -29.008 -13.651  -6.858  1.00  0.00     0.028 A
HETATM   19  C10 UNL     1     -28.364 -14.980  -6.844  1.00  0.00     0.069 C
HETATM   20  N8  UNL     1     -28.349 -12.557  -6.377  1.00  0.00    -0.310 N
HETATM   21  C11 UNL     1     -28.923 -11.332  -6.379  1.00  0.00     0.348 A
ATOM     22  H8  UNL     1     -27.404 -12.665  -6.008  1.00  0.00     0.170 HD
HETATM   23  O3  UNL     1     -28.278 -10.353  -5.924  1.00  0.00    -0.245 OA
HETATM   24  N9  UNL     1     -30.174 -11.117  -6.855  1.00  0.00    -0.174 N
HETATM   25  C12 UNL     1     -30.850 -12.167  -7.336  1.00  0.00     0.284 A
HETATM   26  O4  UNL     1     -32.011 -12.008  -7.787  1.00  0.00    -0.265 OA
BRANCH  24  27
HETATM   27  N10 UNL     1     -30.738  -9.835  -6.843  1.00  0.00    -0.332 N
ATOM     28 2H10 UNL     1     -30.512  -9.166  -6.108  1.00  0.00     0.177 HD
ATOM     29 1H10 UNL     1     -31.389  -9.543  -7.571  1.00  0.00     0.177 HD
ENDBRANCH  24  27
ENDBRANCH  16  17
ENDBRANCH  15  16
ENDBRANCH  13  15
ENDBRANCH  10  13
BRANCH   1  30
HETATM   30  N2  UNL     1     -27.933 -11.996 -11.425  1.00  0.00    -0.132 N
ATOM     31  H2  UNL     1     -26.928 -11.827 -11.380  1.00  0.00     0.205 HD
BRANCH  30  32
HETATM   32  N1  UNL     1     -28.756 -10.896 -11.321  1.00  0.00    -0.297 N
HETATM   33  C3  UNL     1     -28.775  -9.982 -12.246  1.00  0.00     0.140 C
ATOM     34  H1  UNL     1     -29.360 -10.797 -10.506  1.00  0.00     0.186 HD
BRANCH  33  35
HETATM   35  C2  UNL     1     -27.897 -10.124 -13.427  1.00  0.00     0.297 C
BRANCH  35  36
HETATM   36  O1  UNL     1     -28.082 -11.285 -14.139  1.00  0.00    -0.361 OA
HETATM   37  C1  UNL     1     -29.334 -11.194 -14.790  1.00  0.00     0.205 C
ENDBRANCH  35  36
BRANCH  35  38
HETATM   38  O2  UNL     1     -26.561 -10.019 -12.974  1.00  0.00    -0.366 OA
ATOM     39  H2  UNL     1     -26.111  -9.305 -13.411  1.00  0.00     0.213 HD
ENDBRANCH  35  38
ENDBRANCH  33  35
ENDBRANCH  30  32
ENDBRANCH   1  30
TORSDOF 10
ENDMDL