MODEL 4
REMARK VINA RESULT: -6.101315651      2.494      4.579
REMARK  4 active torsions:
REMARK  status: ('A' for Active; 'I' for Inactive)
REMARK    1  A    between atoms: N1_1  and  C1_4
REMARK    2  A    between atoms: C2_5  and  N2_6
REMARK    3  A    between atoms: C4_12  and  N4_13
REMARK    4  A    between atoms: N4_13  and  N5_15
ROOT
HETATM    1  C1  UNL     1       3.922 -30.460 -21.140  1.00  0.00     0.130 C
HETATM    2  C2  UNL     1       3.418 -31.727 -21.302  1.00  0.00     0.150 C
HETATM    3  C3  UNL     1       2.964 -32.582 -20.321  1.00  0.00     0.144 C
HETATM    4  N3  UNL     1       2.993 -32.358 -18.974  1.00  0.00    -0.198 N
ATOM      5  H3  UNL     1       2.455 -33.018 -18.412  1.00  0.00     0.183 HD
HETATM    6  C4  UNL     1       3.623 -31.398 -18.284  1.00  0.00     0.699 C
HETATM    7  N6  UNL     1       3.971 -30.174 -18.713  1.00  0.00    -0.153 N
ATOM      8  H6  UNL     1       4.078 -29.469 -17.983  1.00  0.00     0.187 HD
HETATM    9  C5  UNL     1       4.202 -29.740 -19.985  1.00  0.00     0.288 C
HETATM   10  O3  UNL     1       4.707 -28.603 -20.144  1.00  0.00    -0.265 OA
ENDROOT
BRANCH   6  11
HETATM   11  N4  UNL     1       3.944 -31.652 -17.071  1.00  0.00    -0.138 N
ATOM     12  H4  UNL     1       4.877 -31.414 -16.735  1.00  0.00     0.205 HD
BRANCH  11  13
HETATM   13  N5  UNL     1       3.031 -32.251 -16.203  1.00  0.00    -0.331 N
ATOM     14  H52 UNL     1       2.145 -32.588 -16.581  1.00  0.00     0.177 HD
ATOM     15  H51 UNL     1       3.244 -32.350 -15.211  1.00  0.00     0.177 HD
ENDBRANCH  11  13
ENDBRANCH   6  11
BRANCH   2  16
HETATM   16  N2  UNL     1       3.385 -32.160 -22.656  1.00  0.00    -0.112 N
HETATM   17  O1  UNL     1       2.361 -32.115 -23.355  1.00  0.00    -0.532 OA
HETATM   18  O2  UNL     1       4.585 -32.647 -23.163  1.00  0.00    -0.532 OA
ENDBRANCH   2  16
BRANCH   1  19
HETATM   19  N1  UNL     1       4.178 -29.828 -22.229  1.00  0.00    -0.393 N
ATOM     20  H12 UNL     1       3.627 -30.136 -23.030  1.00  0.00     0.156 HD
ATOM     21  H11 UNL     1       4.894 -29.105 -22.155  1.00  0.00     0.156 HD
ENDBRANCH   1  19
TORSDOF 4
ENDMDL