MODEL 4
REMARK VINA RESULT: -5.389557893      2.054      2.603
REMARK  1 active torsions:
REMARK  status: ('A' for Active; 'I' for Inactive)
REMARK       I    between atoms: C2_2  and  N1_4
REMARK    1  A    between atoms: N1_4  and  C3_6
ROOT
HETATM    1  C3  UNL     1       3.262 -32.386 -21.334  1.00  0.00     0.278 C
HETATM    2  N2  UNL     1       2.687 -31.112 -21.499  1.00  0.00    -0.365 N
ATOM      3  H2  UNL     1       3.034 -30.472 -22.213  1.00  0.00     0.162 HD
HETATM    4  C4  UNL     1       1.619 -30.742 -20.653  1.00  0.00     0.139 C
HETATM    5  S1  UNL     1       2.038 -30.519 -18.910  1.00  0.00    -0.049 SA
HETATM    6  C5  UNL     1       3.824 -30.506 -18.792  1.00  0.00     0.145 C
HETATM    7  N3  UNL     1       4.388 -29.527 -18.152  1.00  0.00    -0.380 N
ATOM      8  H31 UNL     1       5.405 -29.519 -18.085  1.00  0.00     0.158 HD
ATOM      9  H32 UNL     1       3.779 -28.813 -17.750  1.00  0.00     0.158 HD
HETATM   10  N4  UNL     1       4.676 -31.505 -19.356  1.00  0.00    -0.304 N
ATOM     11  H4  UNL     1       5.604 -31.566 -18.938  1.00  0.00     0.171 HD
HETATM   12  C6  UNL     1       4.428 -32.431 -20.412  1.00  0.00     0.266 C
HETATM   13  O2  UNL     1       5.281 -33.343 -20.549  1.00  0.00    -0.269 OA
ENDROOT
BRANCH   1  14
HETATM   14  N1  UNL     1       3.617 -33.016 -22.587  1.00  0.00    -0.332 N
HETATM   15  C2  UNL     1       2.779 -33.131 -23.695  1.00  0.00     0.215 C
HETATM   16  C1  UNL     1       3.238 -33.795 -24.935  1.00  0.00     0.117 C
HETATM   17  O1  UNL     1       1.608 -32.669 -23.660  1.00  0.00    -0.274 OA
ATOM     18  H1  UNL     1       4.555 -33.406 -22.665  1.00  0.00     0.165 HD
ENDBRANCH   1  14
TORSDOF 1
ENDMDL