MODEL 5
REMARK VINA RESULT: -6.782290737      1.665      2.317
REMARK  3 active torsions:
REMARK  status: ('A' for Active; 'I' for Inactive)
REMARK    1  A    between atoms: N1_1  and  N2_4
REMARK    2  A    between atoms: N3_6  and  C1_8
REMARK    3  A    between atoms: C3_13  and  N6_14
REMARK       I    between atoms: N6_14  and  C4_16
ROOT
HETATM    1  C1  UNL     1       2.329 -30.693 -20.034  1.00  0.00     0.160 A
HETATM    2  C2  UNL     1       3.556 -30.767 -20.638  1.00  0.00     0.165 A
HETATM    3  N4  UNL     1       4.668 -30.064 -20.102  1.00  0.00    -0.079 NA
HETATM    4  N5  UNL     1       3.714 -31.511 -21.750  1.00  0.00    -0.176 N
ATOM      5  H5  UNL     1       4.632 -31.558 -22.190  1.00  0.00     0.185 HD
HETATM    6  C3  UNL     1       2.684 -32.199 -22.298  1.00  0.00     0.691 A
HETATM    7  N7  UNL     1       1.496 -32.124 -21.708  1.00  0.00    -0.154 N
ATOM      8  H7  UNL     1       0.713 -32.639 -22.111  1.00  0.00     0.187 HD
HETATM    9  C5  UNL     1       1.291 -31.396 -20.600  1.00  0.00     0.291 A
HETATM   10  O3  UNL     1       0.131 -31.377 -20.099  1.00  0.00    -0.265 OA
ENDROOT
BRANCH   1  11
HETATM   11  N3  UNL     1       2.135 -29.922 -18.870  1.00  0.00    -0.279 N
HETATM   12  N2  UNL     1       2.531 -30.211 -17.725  1.00  0.00    -0.249 N
ATOM     13  H2  UNL     1       2.312 -29.546 -16.983  1.00  0.00     0.207 HD
ATOM     14  H3  UNL     1       1.623 -29.046 -18.975  1.00  0.00     0.189 HD
BRANCH  12  15
HETATM   15  N1  UNL     1       3.236 -31.339 -17.357  1.00  0.00    -0.331 N
ATOM     16  H12 UNL     1       3.055 -32.172 -17.917  1.00  0.00     0.178 HD
ATOM     17  H11 UNL     1       3.908 -31.416 -16.593  1.00  0.00     0.178 HD
ENDBRANCH  12  15
ENDBRANCH   1  11
BRANCH   6  18
HETATM   18  N6  UNL     1       2.931 -32.887 -23.367  1.00  0.00    -0.133 N
HETATM   19  C4  UNL     1       1.924 -33.401 -24.205  1.00  0.00     0.302 C
HETATM   20  O1  UNL     1       1.799 -34.646 -24.408  1.00  0.00    -0.629 OA
HETATM   21  O2  UNL     1       1.059 -32.500 -24.812  1.00  0.00    -0.629 OA
ATOM     22  H6  UNL     1       3.905 -33.065 -23.614  1.00  0.00     0.190 HD
ENDBRANCH   6  18
TORSDOF 3
ENDMDL