MODEL 1
REMARK VINA RESULT: -6.572548438      0.000      0.000
REMARK  2 active torsions:
REMARK  status: ('A' for Active; 'I' for Inactive)
REMARK    1  A    between atoms: O1_2  and  C2_3
REMARK    2  A    between atoms: C2_3  and  C3_5
ROOT
HETATM    1  C3  UNL     1       2.013 -31.019 -20.030  1.00  0.00     0.124 A
HETATM    2  C4  UNL     1       2.619 -31.275 -21.260  1.00  0.00     0.142 A
HETATM    3  N1  UNL     1       1.976 -32.169 -22.137  1.00  0.00    -0.081 NA
HETATM    4  N2  UNL     1       3.785 -30.701 -21.630  1.00  0.00    -0.291 N
HETATM    5  C5  UNL     1       4.358 -31.018 -22.933  1.00  0.00     0.162 C
HETATM    6  C6  UNL     1       4.383 -29.852 -20.782  1.00  0.00     0.329 A
HETATM    7  O3  UNL     1       5.467 -29.332 -21.153  1.00  0.00    -0.246 OA
HETATM    8  N3  UNL     1       3.815 -29.600 -19.607  1.00  0.00    -0.294 N
ATOM      9  H3  UNL     1       4.289 -28.951 -18.978  1.00  0.00     0.172 HD
HETATM   10  C7  UNL     1       2.628 -30.158 -19.181  1.00  0.00     0.122 A
HETATM   11  N4  UNL     1       2.199 -29.832 -18.039  1.00  0.00    -0.384 N
ATOM     12  H41 UNL     1       2.661 -29.185 -17.401  1.00  0.00     0.157 HD
ATOM     13  H42 UNL     1       1.321 -30.245 -17.724  1.00  0.00     0.157 HD
ENDROOT
BRANCH   1  14
HETATM   14  C2  UNL     1       0.773 -31.674 -19.721  1.00  0.00     0.300 C
HETATM   15  O2  UNL     1      -0.296 -31.299 -20.341  1.00  0.00    -0.259 OA
BRANCH  14  16
HETATM   16  O1  UNL     1       0.534 -32.690 -18.825  1.00  0.00    -0.322 OA
HETATM   17  C1  UNL     1       1.453 -33.712 -18.514  1.00  0.00     0.213 C
ENDBRANCH  14  16
ENDBRANCH   1  14
TORSDOF 2
ENDMDL