MODEL 3
REMARK VINA RESULT: -5.646861448      3.513      4.771
REMARK  2 active torsions:
REMARK  status: ('A' for Active; 'I' for Inactive)
REMARK       I    between atoms: C2_5  and  N4_7
REMARK    1  A    between atoms: N4_7  and  N5_9
REMARK    2  A    between atoms: N5_9  and  C3_11
ROOT
HETATM    1  N1  UNL     1       1.717 -33.965 -26.730  1.00  0.00    -0.172 NA
HETATM    2  C1  UNL     1       1.500 -33.475 -25.683  1.00  0.00     0.184 C
HETATM    3  N2  UNL     1       1.258 -32.876 -24.450  1.00  0.00    -0.266 N
ATOM      4  H2  UNL     1       0.437 -32.285 -24.319  1.00  0.00     0.180 HD
HETATM    5  C2  UNL     1       2.076 -33.074 -23.477  1.00  0.00     0.216 C
HETATM    6  N3  UNL     1       3.208 -33.898 -23.689  1.00  0.00    -0.061 NA
HETATM    7  N4  UNL     1       1.845 -32.462 -22.186  1.00  0.00    -0.259 N
ATOM      8  H4  UNL     1       1.139 -31.733 -22.095  1.00  0.00     0.190 HD
ENDROOT
BRANCH   7   9
HETATM    9  N5  UNL     1       2.568 -32.852 -21.074  1.00  0.00    -0.129 N
ATOM     10  H5  UNL     1       2.473 -33.806 -20.727  1.00  0.00     0.205 HD
BRANCH   9  11
HETATM   11  C3  UNL     1       3.382 -32.014 -20.446  1.00  0.00     0.706 A
HETATM   12  N6  UNL     1       3.309 -30.705 -20.648  1.00  0.00    -0.154 N
HETATM   13  S1  UNL     1       4.519 -30.103 -19.647  1.00  0.00     0.064 SA
ATOM     14  H6  UNL     1       2.675 -30.190 -21.259  1.00  0.00     0.193 HD
HETATM   15  C4  UNL     1       5.073 -31.579 -19.005  1.00  0.00     0.319 A
HETATM   16  O1  UNL     1       6.009 -31.814 -18.157  1.00  0.00    -0.258 OA
HETATM   17  N7  UNL     1       4.284 -32.477 -19.604  1.00  0.00    -0.147 N
ATOM     18  H7  UNL     1       4.376 -33.475 -19.418  1.00  0.00     0.188 HD
ENDBRANCH   9  11
ENDBRANCH   7   9
TORSDOF 2
ENDMDL