MODEL 5
REMARK VINA RESULT: -6.186155139      1.203      1.203
REMARK  4 active torsions:
REMARK  status: ('A' for Active; 'I' for Inactive)
REMARK    1  A    between atoms: N1_1  and  N2_4
REMARK    2  A    between atoms: N2_4  and  C1_5
REMARK    3  A    between atoms: C1_5  and  O1_6
REMARK    4  A    between atoms: C1_5  and  C2_8
ROOT
HETATM    1  C2  UNL     1       3.109 -31.551 -19.168  1.00  0.00     0.140 A
HETATM    2  C3  UNL     1       4.084 -30.958 -19.909  1.00  0.00     0.139 A
HETATM    3  N3  UNL     1       4.831 -29.863 -19.408  1.00  0.00    -0.081 NA
HETATM    4  N4  UNL     1       4.356 -31.422 -21.137  1.00  0.00    -0.320 N
ATOM      5  H4  UNL     1       5.089 -30.978 -21.690  1.00  0.00     0.169 HD
HETATM    6  C4  UNL     1       3.669 -32.479 -21.660  1.00  0.00     0.179 A
HETATM    7  S1  UNL     1       4.015 -33.035 -23.170  1.00  0.00    -0.040 SA
HETATM    8  N5  UNL     1       2.708 -33.058 -20.925  1.00  0.00    -0.299 N
ATOM      9  H5  UNL     1       2.191 -33.849 -21.311  1.00  0.00     0.171 HD
HETATM   10  C5  UNL     1       2.414 -32.617 -19.692  1.00  0.00     0.266 A
HETATM   11  O2  UNL     1       1.528 -33.135 -18.987  1.00  0.00    -0.267 OA
ENDROOT
BRANCH   1  12
HETATM   12  C1  UNL     1       2.792 -31.025 -17.816  1.00  0.00     0.257 C
BRANCH  12  13
HETATM   13  N2  UNL     1       2.794 -31.784 -16.717  1.00  0.00    -0.306 NA
BRANCH  13  14
HETATM   14  N1  UNL     1       2.796 -32.527 -15.644  1.00  0.00    -0.278 N
ATOM     15  H12 UNL     1       2.811 -31.972 -16.499  1.00  0.00     0.191 HD
ATOM     16  H11 UNL     1       2.797 -33.107 -14.805  1.00  0.00     0.191 HD
ENDBRANCH  13  14
ENDBRANCH  12  13
BRANCH  12  17
HETATM   17  O1  UNL     1       2.513 -29.748 -17.838  1.00  0.00    -0.333 OA
ATOM     18  H1  UNL     1       1.671 -29.381 -18.083  1.00  0.00     0.220 HD
ENDBRANCH  12  17
ENDBRANCH   1  12
TORSDOF 4
ENDMDL