MODEL 4
REMARK VINA RESULT: -5.922886268      1.212      2.189
REMARK  4 active torsions:
REMARK  status: ('A' for Active; 'I' for Inactive)
REMARK    1  A    between atoms: O1_2  and  C2_3
REMARK    2  A    between atoms: C2_3  and  C4_5
REMARK    3  A    between atoms: C6_10  and  N3_11
REMARK    4  A    between atoms: N3_11  and  N4_13
ROOT
HETATM    1  C4  UNL     1       2.962 -31.128 -20.553  1.00  0.00     0.080 A
HETATM    2  C5  UNL     1       1.627 -31.333 -20.291  1.00  0.00     0.146 A
HETATM    3  N1  UNL     1       0.623 -30.456 -20.789  1.00  0.00    -0.081 NA
HETATM    4  N2  UNL     1       1.180 -32.360 -19.537  1.00  0.00    -0.177 N
ATOM      5  H2  UNL     1       0.179 -32.468 -19.372  1.00  0.00     0.185 HD
HETATM    6  C6  UNL     1       2.057 -33.258 -18.993  1.00  0.00     0.700 A
HETATM    7  N5  UNL     1       3.354 -33.080 -19.233  1.00  0.00    -0.154 N
ATOM      8  H5  UNL     1       4.022 -33.739 -18.835  1.00  0.00     0.187 HD
HETATM    9  C7  UNL     1       3.824 -32.045 -19.993  1.00  0.00     0.271 A
HETATM   10  O2  UNL     1       5.070 -32.037 -20.111  1.00  0.00    -0.267 OA
ENDROOT
BRANCH   6  11
HETATM   11  N3  UNL     1       1.538 -34.202 -18.295  1.00  0.00    -0.138 N
ATOM     12  H3  UNL     1       0.997 -33.975 -17.460  1.00  0.00     0.205 HD
BRANCH  11  13
HETATM   13  N4  UNL     1       1.705 -35.527 -18.664  1.00  0.00    -0.331 N
ATOM     14  H42 UNL     1       2.490 -36.050 -18.273  1.00  0.00     0.177 HD
ATOM     15  H41 UNL     1       1.057 -35.972 -19.314  1.00  0.00     0.177 HD
ENDBRANCH  11  13
ENDBRANCH   6  11
BRANCH   1  16
HETATM   16  C2  UNL     1       3.479 -30.048 -21.380  1.00  0.00     0.158 C
HETATM   17  C3  UNL     1       4.321 -29.026 -20.632  1.00  0.00     0.045 C
BRANCH  16  18
HETATM   18  O1  UNL     1       4.342 -30.570 -22.354  1.00  0.00    -0.386 OA
HETATM   19  C1  UNL     1       3.743 -31.272 -23.357  1.00  0.00     0.202 C
ENDBRANCH  16  18
ENDBRANCH   1  16
TORSDOF 4
ENDMDL