MODEL 5
REMARK VINA RESULT: -5.336353204      1.717      2.649
REMARK  3 active torsions:
REMARK  status: ('A' for Active; 'I' for Inactive)
REMARK    1  A    between atoms: O1_2  and  C2_3
REMARK    2  A    between atoms: C2_3  and  C3_5
REMARK    3  A    between atoms: C5_10  and  N3_11
ROOT
HETATM    1  C3  UNL     1       4.926 -30.850 -20.640  1.00  0.00     0.149 A
HETATM    2  C4  UNL     1       4.601 -32.017 -19.960  1.00  0.00     0.153 A
HETATM    3  N1  UNL     1       5.158 -33.229 -20.461  1.00  0.00    -0.081 NA
HETATM    4  N2  UNL     1       3.800 -32.029 -18.874  1.00  0.00    -0.178 N
ATOM      5  H2  UNL     1       3.580 -32.903 -18.396  1.00  0.00     0.185 HD
HETATM    6  C5  UNL     1       3.299 -30.859 -18.439  1.00  0.00     0.680 A
HETATM    7  N4  UNL     1       3.596 -29.713 -19.079  1.00  0.00    -0.155 N
ATOM      8  H4  UNL     1       3.201 -28.840 -18.728  1.00  0.00     0.187 HD
HETATM    9  C6  UNL     1       4.392 -29.674 -20.162  1.00  0.00     0.279 A
HETATM   10  O3  UNL     1       4.677 -28.614 -20.768  1.00  0.00    -0.266 OA
ENDROOT
BRANCH   1  11
HETATM   11  C2  UNL     1       5.796 -30.908 -21.804  1.00  0.00     0.301 C
HETATM   12  O2  UNL     1       7.046 -30.852 -21.697  1.00  0.00    -0.259 OA
BRANCH  11  13
HETATM   13  O1  UNL     1       5.279 -31.030 -23.080  1.00  0.00    -0.322 OA
HETATM   14  C1  UNL     1       3.943 -31.391 -23.359  1.00  0.00     0.213 C
ENDBRANCH  11  13
ENDBRANCH   1  11
BRANCH   6  15
HETATM   15  N3  UNL     1       2.521 -30.870 -17.385  1.00  0.00    -0.234 N
ATOM     16  H32 UNL     1       1.866 -31.634 -17.218  1.00  0.00     0.174 HD
ATOM     17  H31 UNL     1       2.586 -30.092 -16.728  1.00  0.00     0.174 HD
ENDBRANCH   6  15
TORSDOF 3
ENDMDL