MODEL 3
REMARK VINA RESULT: -6.226548072      2.574      3.788
REMARK  3 active torsions:
REMARK  status: ('A' for Active; 'I' for Inactive)
REMARK    1  A    between atoms: O1_2  and  C2_3
REMARK    2  A    between atoms: C6_10  and  N2_11
REMARK    3  A    between atoms: N4_17  and  N5_19
ROOT
HETATM    1  C2  UNL     1       2.671 -30.748 -20.293  1.00  0.00     0.125 C
HETATM    2  C3  UNL     1       3.761 -30.517 -21.095  1.00  0.00     0.044 C
HETATM    3  C4  UNL     1       4.733 -29.551 -20.539  1.00  0.00     0.057 C
HETATM    4  C5  UNL     1       4.039 -31.079 -22.337  1.00  0.00     0.268 C
HETATM    5  O2  UNL     1       5.192 -30.833 -22.771  1.00  0.00    -0.267 OA
HETATM    6  N1  UNL     1       3.285 -31.841 -23.154  1.00  0.00    -0.156 N
ATOM      7  H1  UNL     1       3.685 -32.106 -24.053  1.00  0.00     0.187 HD
HETATM    8  C6  UNL     1       2.045 -32.278 -22.871  1.00  0.00     0.680 C
HETATM    9  N3  UNL     1       1.242 -32.064 -21.807  1.00  0.00    -0.173 N
ATOM     10  H3  UNL     1       0.282 -32.396 -21.900  1.00  0.00     0.186 HD
HETATM   11  C7  UNL     1       1.544 -31.471 -20.641  1.00  0.00     0.169 C
HETATM   12  N4  UNL     1       0.700 -31.555 -19.667  1.00  0.00    -0.289 N
ATOM     13  H4  UNL     1       0.897 -31.117 -18.767  1.00  0.00     0.188 HD
ENDROOT
BRANCH   1  14
HETATM   14  O1  UNL     1       2.699 -30.206 -19.017  1.00  0.00    -0.351 OA
HETATM   15  C1  UNL     1       3.130 -31.059 -17.967  1.00  0.00     0.210 C
ENDBRANCH   1  14
BRANCH  12  16
HETATM   16  N5  UNL     1      -0.491 -32.259 -19.874  1.00  0.00    -0.344 N
ATOM     17  H52 UNL     1      -0.681 -32.676 -20.785  1.00  0.00     0.176 HD
ATOM     18  H51 UNL     1      -1.150 -32.340 -19.099  1.00  0.00     0.176 HD
ENDBRANCH  12  16
BRANCH   8  19
HETATM   19  N2  UNL     1       1.543 -33.038 -23.794  1.00  0.00    -0.234 N
ATOM     20  H22 UNL     1       2.108 -33.122 -24.638  1.00  0.00     0.174 HD
ATOM     21  H21 UNL     1       0.645 -33.448 -23.538  1.00  0.00     0.174 HD
ENDBRANCH   8  19
TORSDOF 3
ENDMDL