MODEL 4
REMARK VINA RESULT: -5.831554672      2.348      5.110
REMARK  5 active torsions:
REMARK  status: ('A' for Active; 'I' for Inactive)
REMARK    1  A    between atoms: C3_4  and  C4_5
REMARK    2  A    between atoms: C4_5  and  O1_6
REMARK    3  A    between atoms: C4_5  and  N2_8
REMARK    4  A    between atoms: N2_8  and  N3_10
REMARK    5  A    between atoms: C5_14  and  N4_15
ROOT
HETATM    1  N1  UNL     1       5.570 -31.228 -23.701  1.00  0.00    -0.191 NA
HETATM    2  C1  UNL     1       4.854 -31.106 -22.800  1.00  0.00     0.106 C
HETATM    3  C2  UNL     1       3.980 -30.916 -21.644  1.00  0.00     0.134 A
HETATM    4  C3  UNL     1       2.860 -31.687 -21.559  1.00  0.00     0.086 A
HETATM    5  S1  UNL     1       1.948 -31.313 -20.112  1.00  0.00    -0.048 SA
HETATM    6  C5  UNL     1       2.624 -30.110 -19.146  1.00  0.00     0.145 A
HETATM    7  N5  UNL     1       3.767 -29.596 -19.608  1.00  0.00    -0.303 N
ATOM      8  H5  UNL     1       4.209 -28.864 -19.051  1.00  0.00     0.171 HD
HETATM    9  C6  UNL     1       4.378 -29.959 -20.733  1.00  0.00     0.269 A
HETATM   10  O2  UNL     1       5.469 -29.339 -20.998  1.00  0.00    -0.266 OA
ENDROOT
BRANCH   4  11
HETATM   11  C4  UNL     1       2.393 -32.699 -22.474  1.00  0.00     0.173 C
BRANCH  11  12
HETATM   12  O1  UNL     1       2.960 -33.861 -22.206  1.00  0.00    -0.344 OA
ATOM     13  H1  UNL     1       2.839 -34.464 -22.930  1.00  0.00     0.219 HD
ENDBRANCH  11  12
BRANCH  11  14
HETATM   14  N2  UNL     1       1.509 -32.717 -23.533  1.00  0.00    -0.286 N
ATOM     15  H2  UNL     1       0.943 -31.904 -23.775  1.00  0.00     0.188 HD
BRANCH  14  16
HETATM   16  N3  UNL     1       1.428 -33.947 -24.279  1.00  0.00    -0.343 N
ATOM     17  H32 UNL     1       0.781 -34.685 -24.002  1.00  0.00     0.176 HD
ATOM     18  H31 UNL     1       2.048 -34.029 -25.085  1.00  0.00     0.176 HD
ENDBRANCH  14  16
ENDBRANCH  11  14
ENDBRANCH   4  11
BRANCH   6  19
HETATM   19  N4  UNL     1       2.131 -29.672 -18.039  1.00  0.00    -0.380 N
ATOM     20  H42 UNL     1       2.744 -29.530 -17.236  1.00  0.00     0.158 HD
ATOM     21  H41 UNL     1       1.150 -29.441 -17.875  1.00  0.00     0.158 HD
ENDBRANCH   6  19
TORSDOF 5
ENDMDL