MODEL 5
REMARK VINA RESULT: -4.051626312      3.958      6.404
REMARK  1 active torsions:
REMARK  status: ('A' for Active; 'I' for Inactive)
REMARK    1  A    between atoms: N1_5  and  C5_6
ROOT
HETATM    1  C5  UNL     1     -91.510   7.522 -19.525  1.00  0.00     0.703 A
HETATM    2  N2  UNL     1     -90.541   7.843 -20.401  1.00  0.00    -0.185 N
ATOM      3  H2  UNL     1     -90.698   8.299 -21.299  1.00  0.00     0.185 HD
HETATM    4  C6  UNL     1     -89.352   7.484 -19.931  1.00  0.00     0.215 A
HETATM    5  N3  UNL     1     -89.569   6.919 -18.726  1.00  0.00    -0.281 N
ATOM      6  H3  UNL     1     -88.852   6.538 -18.109  1.00  0.00     0.188 HD
HETATM    7  N4  UNL     1     -90.870   6.940 -18.478  1.00  0.00    -0.131 N
ATOM      8  H4  UNL     1     -91.318   6.579 -17.637  1.00  0.00     0.205 HD
ENDROOT
BRANCH   1   9
HETATM    9  N1  UNL     1     -92.923   7.737 -19.648  1.00  0.00    -0.167 N
HETATM   10  C4  UNL     1     -93.799   6.731 -19.685  1.00  0.00     0.115 A
HETATM   11  C3  UNL     1     -95.158   6.944 -19.804  1.00  0.00     0.025 A
HETATM   12  C2  UNL     1     -95.673   8.223 -19.890  1.00  0.00    -0.059 A
HETATM   13  C1  UNL     1     -97.138   8.473 -20.020  1.00  0.00     0.048 C
HETATM   14  C8  UNL     1     -94.758   9.257 -19.850  1.00  0.00     0.025 A
HETATM   15  C7  UNL     1     -93.409   8.989 -19.731  1.00  0.00     0.115 A
ENDBRANCH   1   9
TORSDOF 1
ENDMDL