MODEL 3
REMARK VINA RESULT: -3.651591600      4.247      5.746
REMARK  2 active torsions:
REMARK  status: ('A' for Active; 'I' for Inactive)
REMARK    1  A    between atoms: C3_3  and  C4_4
REMARK    2  A    between atoms: C4_4  and  N1_5
ROOT
HETATM    1  C1  UNL     1     -95.043   5.878 -20.023  1.00  0.00     0.112 C
HETATM    2  C2  UNL     1     -93.996   6.861 -19.716  1.00  0.00    -0.109 C
HETATM    3  C3  UNL     1     -93.132   7.669 -19.481  1.00  0.00    -0.087 C
ENDROOT
BRANCH   3   4
HETATM    4  C4  UNL     1     -92.054   8.649 -19.208  1.00  0.00     0.224 C
BRANCH   4   5
HETATM    5  N1  UNL     1     -90.802   8.182 -19.755  1.00  0.00    -0.320 N
HETATM    6  C5  UNL     1     -90.425   8.632 -20.986  1.00  0.00     0.096 A
HETATM    7  C6  UNL     1     -89.265   8.245 -21.577  1.00  0.00     0.034 A
HETATM    8  C7  UNL     1     -88.429   7.368 -20.922  1.00  0.00     0.092 A
HETATM    9  N2  UNL     1     -88.811   6.936 -19.718  1.00  0.00    -0.340 N
HETATM   10  C8  UNL     1     -89.976   7.332 -19.137  1.00  0.00     0.195 A
ATOM     11  H2  UNL     1     -88.207   6.285 -19.214  1.00  0.00     0.167 HD
HETATM   12  N3  UNL     1     -90.340   6.845 -17.855  1.00  0.00    -0.063 NA
ENDBRANCH   4   5
ENDBRANCH   3   4
TORSDOF 2
ENDMDL