MODEL 2
REMARK VINA RESULT: -4.116670132      1.486      2.864
REMARK  2 active torsions:
REMARK  status: ('A' for Active; 'I' for Inactive)
REMARK    1  A    between atoms: N1_1  and  C1_5
REMARK    2  A    between atoms: C1_5  and  N2_6
ROOT
HETATM    1  N2  UNL     1     -95.785   9.873 -19.761  1.00  0.00    -0.252 N
HETATM    2  N3  UNL     1     -94.961  10.880 -19.549  1.00  0.00    -0.239 N
ATOM      3  H3  UNL     1     -95.340  11.827 -19.539  1.00  0.00     0.208 HD
HETATM    4  N4  UNL     1     -93.663  10.713 -19.347  1.00  0.00    -0.296 N
ATOM      5  H4  UNL     1     -93.071  11.529 -19.189  1.00  0.00     0.187 HD
HETATM    6  C2  UNL     1     -93.115   9.497 -19.347  1.00  0.00     0.122 A
HETATM    7  C3  UNL     1     -93.923   8.403 -19.562  1.00  0.00     0.009 A
HETATM    8  C4  UNL     1     -93.410   7.130 -19.569  1.00  0.00     0.015 A
HETATM    9  C5  UNL     1     -94.258   6.069 -19.784  1.00  0.00     0.001 A
HETATM   10  C6  UNL     1     -95.607   6.237 -19.993  1.00  0.00     0.002 A
HETATM   11  C7  UNL     1     -96.105   7.525 -19.983  1.00  0.00     0.032 A
HETATM   12  C8  UNL     1     -95.290   8.631 -19.771  1.00  0.00     0.065 A
ENDROOT
BRANCH   1  13
HETATM   13  C1  UNL     1     -97.186  10.107 -19.986  1.00  0.00     0.379 C
BRANCH  13  14
HETATM   14  N1  UNL     1     -97.341  10.961 -21.176  1.00  0.00    -0.062 N
ATOM     15  H13 UNL     1     -98.006  10.576 -21.846  1.00  0.00     0.276 HD
ATOM     16  H12 UNL     1     -97.834  11.830 -20.969  1.00  0.00     0.276 HD
ATOM     17  H11 UNL     1     -96.422  11.123 -21.588  1.00  0.00     0.276 HD
ENDBRANCH  13  14
ENDBRANCH   1  13
TORSDOF 2
ENDMDL