MODEL 5
REMARK VINA RESULT: -3.742020985      1.298      4.442
REMARK  2 active torsions:
REMARK  status: ('A' for Active; 'I' for Inactive)
REMARK    1  A    between atoms: C7_7  and  N1_8
REMARK    2  A    between atoms: N1_8  and  C8_10
ROOT
HETATM    1  C1  UNL     1     -97.536  10.228 -19.646  1.00  0.00     0.019 C
HETATM    2  C2  UNL     1     -96.704   9.357 -19.667  1.00  0.00    -0.060 C
HETATM    3  C3  UNL     1     -95.708   8.312 -19.668  1.00  0.00     0.087 A
HETATM    4  C4  UNL     1     -96.154   7.066 -20.085  1.00  0.00     0.039 A
HETATM    5  C5  UNL     1     -95.209   6.064 -20.088  1.00  0.00     0.007 A
HETATM    6  C6  UNL     1     -93.908   6.312 -19.698  1.00  0.00     0.048 A
HETATM    7  C7  UNL     1     -93.506   7.566 -19.289  1.00  0.00     0.101 A
HETATM    8  N2  UNL     1     -94.440   8.538 -19.290  1.00  0.00    -0.336 N
ATOM      9  H2  UNL     1     -94.174   9.477 -18.993  1.00  0.00     0.168 HD
ENDROOT
BRANCH   7  10
HETATM   10  N1  UNL     1     -92.278   7.824 -18.913  1.00  0.00    -0.377 N
ATOM     11  H1  UNL     1     -92.044   7.766 -17.922  1.00  0.00     0.161 HD
BRANCH  10  12
HETATM   12  C8  UNL     1     -91.250   8.186 -19.852  1.00  0.00     0.116 C
HETATM   13  C9  UNL     1     -89.967   7.487 -19.517  1.00  0.00     0.026 C
ENDBRANCH  10  12
ENDBRANCH   7  10
TORSDOF 2
ENDMDL