MODEL 2
REMARK VINA RESULT: -3.782166139      2.309      3.111
REMARK  3 active torsions:
REMARK  status: ('A' for Active; 'I' for Inactive)
REMARK    1  A    between atoms: C2_2  and  N1_3
REMARK    2  A    between atoms: N1_3  and  C3_5
REMARK    3  A    between atoms: N2_7  and  O1_8
ROOT
HETATM    1  C3  UNL     1     -94.603   9.560 -19.697  1.00  0.00     0.119 A
HETATM    2  C4  UNL     1     -95.976   9.584 -19.826  1.00  0.00     0.170 A
HETATM    3  N2  UNL     1     -96.756   8.492 -19.890  1.00  0.00    -0.242 N
HETATM    4  C5  UNL     1     -96.132   7.292 -19.822  1.00  0.00     0.147 A
HETATM    5  C6  UNL     1     -94.764   7.208 -19.693  1.00  0.00     0.025 A
HETATM    6  C7  UNL     1     -94.135   5.866 -19.623  1.00  0.00     0.070 C
HETATM    7  N3  UNL     1     -94.039   8.317 -19.634  1.00  0.00    -0.344 N
ATOM      8  H3  UNL     1     -93.027   8.239 -19.538  1.00  0.00     0.167 HD
ENDROOT
BRANCH   1   9
HETATM    9  N1  UNL     1     -93.966  10.648 -19.646  1.00  0.00    -0.376 N
ATOM     10  H1  UNL     1     -94.258  11.301 -18.918  1.00  0.00     0.161 HD
BRANCH   9  11
HETATM   11  C2  UNL     1     -92.895  11.082 -20.469  1.00  0.00     0.116 C
HETATM   12  C1  UNL     1     -93.270  11.105 -21.940  1.00  0.00     0.026 C
ENDBRANCH   9  11
ENDBRANCH   1   9
BRANCH   3  13
HETATM   13  O1  UNL     1     -98.135   8.580 -20.019  1.00  0.00    -0.284 OA
ATOM     14  H1  UNL     1     -98.647   7.894 -20.432  1.00  0.00     0.245 HD
ENDBRANCH   3  13
TORSDOF 3
ENDMDL