MODEL 3
REMARK VINA RESULT: -4.070668884      1.695      5.205
REMARK  1 active torsions:
REMARK  status: ('A' for Active; 'I' for Inactive)
REMARK    1  A    between atoms: C5_6  and  C6_7
ROOT
HETATM    1  C1  UNL     1     -92.271   7.940 -19.486  1.00  0.00     0.177 C
HETATM    2  N1  UNL     1     -93.705   7.733 -19.688  1.00  0.00    -0.307 N
HETATM    3  C2  UNL     1     -94.172   6.452 -19.699  1.00  0.00     0.110 A
HETATM    4  C3  UNL     1     -95.498   6.244 -19.885  1.00  0.00     0.021 A
HETATM    5  C4  UNL     1     -96.324   7.321 -20.054  1.00  0.00     0.035 A
HETATM    6  C5  UNL     1     -95.828   8.606 -20.038  1.00  0.00     0.076 A
HETATM    7  N4  UNL     1     -94.510   8.762 -19.852  1.00  0.00    -0.297 N
ATOM      8  H4  UNL     1     -94.120   9.704 -19.837  1.00  0.00     0.187 HD
ENDROOT
BRANCH   6   9
HETATM    9  C6  UNL     1     -96.730   9.751 -20.223  1.00  0.00     0.077 A
HETATM   10  C7  UNL     1     -96.671  10.734 -21.177  1.00  0.00     0.120 A
HETATM   11  N2  UNL     1     -97.712  11.573 -20.948  1.00  0.00    -0.360 N
HETATM   12  C8  UNL     1     -98.413  11.141 -19.880  1.00  0.00     0.180 A
ATOM     13  H2  UNL     1     -97.930  12.403 -21.499  1.00  0.00     0.166 HD
HETATM   14  N3  UNL     1     -97.784  10.027 -19.465  1.00  0.00    -0.349 N
ATOM     15  H3  UNL     1     -98.080   9.464 -18.668  1.00  0.00     0.166 HD
ENDBRANCH   6   9
TORSDOF 1
ENDMDL