MODEL 4
REMARK VINA RESULT: -3.771431296      3.481      4.524
REMARK  2 active torsions:
REMARK  status: ('A' for Active; 'I' for Inactive)
REMARK    1  A    between atoms: C3_3  and  N1_4
REMARK    2  A    between atoms: N1_4  and  C4_6
ROOT
HETATM    1  C1  UNL     1     -94.453   5.885 -19.752  1.00  0.00     0.018 C
HETATM    2  C2  UNL     1     -93.704   6.826 -19.678  1.00  0.00    -0.072 C
HETATM    3  C3  UNL     1     -92.794   8.006 -19.596  1.00  0.00     0.153 C
ENDROOT
BRANCH   3   4
HETATM    4  N1  UNL     1     -93.157   8.784 -18.528  1.00  0.00    -0.344 N
ATOM      5  H1  UNL     1     -93.005   9.747 -18.831  1.00  0.00     0.167 HD
BRANCH   4   6
HETATM    6  C4  UNL     1     -93.577   8.866 -17.384  1.00  0.00     0.126 A
HETATM    7  N2  UNL     1     -92.701   8.710 -16.321  1.00  0.00    -0.351 N
HETATM    8  C5  UNL     1     -93.137   8.796 -15.088  1.00  0.00     0.090 A
ATOM      9  H2  UNL     1     -91.713   8.528 -16.499  1.00  0.00     0.166 HD
HETATM   10  C6  UNL     1     -94.443   9.037 -14.723  1.00  0.00     0.019 A
HETATM   11  C7  UNL     1     -95.350   9.197 -15.743  1.00  0.00     0.028 A
HETATM   12  C8  UNL     1     -94.888   9.107 -17.067  1.00  0.00     0.088 A
HETATM   13  C9  UNL     1     -95.894   9.285 -18.079  1.00  0.00     0.103 C
HETATM   14  N3  UNL     1     -96.737   9.434 -18.878  1.00  0.00    -0.191 NA
ENDBRANCH   4   6
ENDBRANCH   3   4
TORSDOF 2
ENDMDL