MODEL 2
REMARK VINA RESULT: -4.637159502      2.342      3.164
REMARK  1 active torsions:
REMARK  status: ('A' for Active; 'I' for Inactive)
REMARK    1  A    between atoms: N2_5  and  O2_6
ROOT
HETATM    1  O1  UNL     1     -93.916  10.828 -19.287  1.00  0.00    -0.266 OA
HETATM    2  C1  UNL     1     -94.945  10.129 -19.506  1.00  0.00     0.272 A
HETATM    3  N1  UNL     1     -96.137  10.740 -19.621  1.00  0.00    -0.240 N
ATOM      4  H1  UNL     1     -96.226  11.753 -19.535  1.00  0.00     0.193 HD
HETATM    5  N2  UNL     1     -97.190   9.972 -19.850  1.00  0.00    -0.171 N
HETATM    6  C2  UNL     1     -97.096   8.636 -19.966  1.00  0.00     0.155 A
HETATM    7  C3  UNL     1     -95.890   7.976 -19.853  1.00  0.00    -0.001 A
HETATM    8  C4  UNL     1     -95.736   6.633 -19.960  1.00  0.00     0.014 A
HETATM    9  C5  UNL     1     -94.481   6.050 -19.832  1.00  0.00     0.001 A
HETATM   10  C6  UNL     1     -93.351   6.815 -19.594  1.00  0.00     0.001 A
HETATM   11  C7  UNL     1     -93.532   8.174 -19.488  1.00  0.00     0.018 A
HETATM   12  C8  UNL     1     -94.777   8.764 -19.614  1.00  0.00     0.045 A
ENDROOT
BRANCH   5  13
HETATM   13  O2  UNL     1     -98.408  10.579 -19.969  1.00  0.00    -0.268 OA
ATOM     14  H2  UNL     1     -99.033  10.462 -19.263  1.00  0.00     0.247 HD
ENDBRANCH   5  13
TORSDOF 1
ENDMDL