MODEL 3
REMARK VINA RESULT: -3.965290191      1.907      2.259
REMARK  4 active torsions:
REMARK  status: ('A' for Active; 'I' for Inactive)
REMARK    1  A    between atoms: C2_2  and  C3_3
REMARK    2  A    between atoms: C4_4  and  C5_5
REMARK    3  A    between atoms: C8_9  and  C9_10
REMARK    4  A    between atoms: N1_11  and  O2_13
ROOT
HETATM    1  C5  UNL     1     -93.649   8.489 -18.269  1.00  0.00     0.054 A
HETATM    2  C6  UNL     1     -92.299   8.507 -18.599  1.00  0.00     0.048 A
HETATM    3  C7  UNL     1     -92.197   8.070 -19.900  1.00  0.00     0.144 A
HETATM    4  O1  UNL     1     -93.376   7.804 -20.337  1.00  0.00    -0.320 OA
HETATM    5  C8  UNL     1     -94.301   8.041 -19.388  1.00  0.00     0.111 A
ENDROOT
BRANCH   5   6
HETATM    6  C9  UNL     1     -95.694   7.807 -19.672  1.00  0.00     0.152 C
HETATM    7  N1  UNL     1     -96.602   8.667 -19.789  1.00  0.00    -0.278 N
ATOM      8  H1  UNL     1     -96.375   9.655 -19.678  1.00  0.00     0.193 HD
BRANCH   7   9
HETATM    9  O2  UNL     1     -97.922   8.290 -20.071  1.00  0.00    -0.290 OA
ATOM     10  H2  UNL     1     -98.656   8.791 -19.736  1.00  0.00     0.244 HD
ENDBRANCH   7   9
ENDBRANCH   5   6
BRANCH   1  11
HETATM   11  C4  UNL     1     -94.211   8.865 -17.021  1.00  0.00    -0.064 C
HETATM   12  C3  UNL     1     -94.712   9.174 -15.980  1.00  0.00    -0.101 C
BRANCH  12  13
HETATM   13  C2  UNL     1     -95.316   9.577 -14.702  1.00  0.00     0.090 C
HETATM   14  C1  UNL     1     -96.580   8.794 -14.418  1.00  0.00     0.018 C
ENDBRANCH  12  13
ENDBRANCH   1  11
TORSDOF 4
ENDMDL