MODEL 3
REMARK VINA RESULT: -3.232645572      2.413      4.990
REMARK  1 active torsions:
REMARK  status: ('A' for Active; 'I' for Inactive)
REMARK    1  A    between atoms: N1_2  and  C3_4
ROOT
HETATM    1  C3  UNL     1     -92.737   8.244 -19.774  1.00  0.00     0.034 A
HETATM    2  C4  UNL     1     -93.161   9.520 -20.077  1.00  0.00     0.046 A
HETATM    3  C5  UNL     1     -94.514   9.807 -20.112  1.00  0.00     0.094 A
HETATM    4  N2  UNL     1     -95.406   8.815 -19.845  1.00  0.00    -0.350 N
HETATM    5  C6  UNL     1     -96.813   9.101 -19.879  1.00  0.00     0.156 C
HETATM    6  C7  UNL     1     -95.013   7.568 -19.549  1.00  0.00     0.120 A
HETATM    7  N3  UNL     1     -95.977   6.580 -19.280  1.00  0.00    -0.083 NA
HETATM    8  C8  UNL     1     -93.666   7.233 -19.502  1.00  0.00     0.074 A
ENDROOT
BRANCH   1   9
HETATM    9  N1  UNL     1     -91.346   7.970 -19.743  1.00  0.00    -0.389 N
HETATM   10  C1  UNL     1     -90.753   7.167 -18.719  1.00  0.00     0.149 C
HETATM   11  C2  UNL     1     -90.506   8.525 -20.784  1.00  0.00     0.149 C
ENDBRANCH   1   9
TORSDOF 1
ENDMDL