MODEL 2
REMARK VINA RESULT: -6.111529529      1.808      2.475
REMARK  3 active torsions:
REMARK  status: ('A' for Active; 'I' for Inactive)
REMARK       I    between atoms: C1_4  and  N3_6
REMARK    1  A    between atoms: N3_6  and  C2_8
REMARK    2  A    between atoms: C3_13  and  S1_14
REMARK    3  A    between atoms: S1_14  and  N6_15
ROOT
HETATM    1  C2  UNL     1      16.480  27.957  26.965  1.00  0.00     0.699 A
HETATM    2  N4  UNL     1      17.078  27.351  25.927  1.00  0.00    -0.131 N
ATOM      3  H4  UNL     1      16.588  27.258  25.038  1.00  0.00     0.205 HD
HETATM    4  N5  UNL     1      18.295  26.880  26.059  1.00  0.00    -0.273 N
ATOM      5  H5  UNL     1      18.727  26.423  25.257  1.00  0.00     0.188 HD
HETATM    6  C3  UNL     1      19.000  26.969  27.201  1.00  0.00     0.179 A
HETATM    7  C4  UNL     1      18.381  27.590  28.260  1.00  0.00     0.151 A
HETATM    8  N7  UNL     1      17.147  28.062  28.110  1.00  0.00    -0.197 N
ATOM      9  H7  UNL     1      16.696  28.521  28.901  1.00  0.00     0.183 HD
ENDROOT
BRANCH   1  10
HETATM   10  N3  UNL     1      15.263  28.439  26.869  1.00  0.00    -0.162 N
HETATM   11  C1  UNL     1      15.098  29.570  26.026  1.00  0.00     0.200 C
HETATM   12  N1  UNL     1      15.683  30.662  26.303  1.00  0.00    -0.373 N
HETATM   13  N2  UNL     1      14.268  29.422  24.890  1.00  0.00    -0.063 NA
ATOM     14  H12 UNL     1      15.565  31.474  25.698  1.00  0.00     0.158 HD
ATOM     15  H11 UNL     1      16.282  30.768  27.123  1.00  0.00     0.158 HD
ATOM     16  H3  UNL     1      14.479  28.024  27.372  1.00  0.00     0.187 HD
ENDBRANCH   1  10
BRANCH   6  17
HETATM   17  S1  UNL     1      20.621  26.344  27.386  1.00  0.00     0.275 S
HETATM   18  O1  UNL     1      21.307  27.229  28.412  1.00  0.00    -0.199 OA
HETATM   19  O2  UNL     1      21.335  26.502  26.080  1.00  0.00    -0.199 OA
BRANCH  17  20
HETATM   20  N6  UNL     1      20.558  24.779  27.971  1.00  0.00    -0.323 N
ATOM     21  H62 UNL     1      20.389  23.955  27.394  1.00  0.00     0.169 HD
ATOM     22  H61 UNL     1      20.712  24.783  28.980  1.00  0.00     0.169 HD
ENDBRANCH  17  20
ENDBRANCH   6  17
TORSDOF 3
ENDMDL