MODEL 4
REMARK VINA RESULT: -6.510230764      1.017      1.556
REMARK  5 active torsions:
REMARK  status: ('A' for Active; 'I' for Inactive)
REMARK    1  A    between atoms: C1_2  and  C2_4
REMARK       I    between atoms: C2_4  and  N2_6
REMARK    2  A    between atoms: N2_6  and  N3_8
REMARK    3  A    between atoms: N3_8  and  C3_9
REMARK    4  A    between atoms: C3_9  and  O3_10
REMARK    5  A    between atoms: C3_9  and  C4_12
ROOT
HETATM    1  C3  UNL     1      15.085  29.259  25.511  1.00  0.00     0.283 C
ENDROOT
BRANCH   1   2
HETATM    2  N3  UNL     1      15.313  29.148  24.167  1.00  0.00    -0.293 NA
BRANCH   2   3
HETATM    3  N2  UNL     1      15.535  29.044  22.910  1.00  0.00    -0.192 N
HETATM    4  C2  UNL     1      16.761  29.360  22.277  1.00  0.00     0.335 C
HETATM    5  O2  UNL     1      17.783  29.817  22.915  1.00  0.00    -0.260 OA
ATOM      6  H2  UNL     1      14.772  28.708  22.321  1.00  0.00     0.205 HD
BRANCH   4   7
HETATM    7  C1  UNL     1      16.972  29.156  20.815  1.00  0.00     0.325 C
HETATM    8  N1  UNL     1      17.570  30.293  20.122  1.00  0.00    -0.053 NA
HETATM    9  O1  UNL     1      16.701  28.131  20.324  1.00  0.00    -0.266 OA
ENDBRANCH   4   7
ENDBRANCH   2   3
ENDBRANCH   1   2
BRANCH   1  10
HETATM   10  O3  UNL     1      14.356  30.195  26.060  1.00  0.00    -0.331 OA
ATOM     11  H3  UNL     1      14.662  30.782  26.742  1.00  0.00     0.220 HD
ENDBRANCH   1  10
BRANCH   1  12
HETATM   12  C4  UNL     1      15.642  28.351  26.511  1.00  0.00     0.176 A
HETATM   13  N4  UNL     1      15.029  27.121  26.619  1.00  0.00    -0.348 N
HETATM   14  C5  UNL     1      15.528  26.240  27.496  1.00  0.00     0.095 A
ATOM     15  H4  UNL     1      14.218  26.888  26.047  1.00  0.00     0.167 HD
HETATM   16  C6  UNL     1      16.601  26.543  28.247  1.00  0.00     0.091 A
HETATM   17  C7  UNL     1      17.211  27.796  28.118  1.00  0.00     0.248 A
HETATM   18  O4  UNL     1      18.177  28.049  28.832  1.00  0.00    -0.268 OA
HETATM   19  N5  UNL     1      16.691  28.688  27.218  1.00  0.00    -0.305 N
ATOM     20  H5  UNL     1      17.117  29.608  27.100  1.00  0.00     0.170 HD
ENDBRANCH   1  12
TORSDOF 5
ENDMDL