MODEL 3
REMARK VINA RESULT: -7.123227369      1.446      1.758
REMARK  2 active torsions:
REMARK  status: ('A' for Active; 'I' for Inactive)
REMARK    1  A    between atoms: C2_3  and  C3_4
REMARK       I    between atoms: C3_4  and  N2_6
REMARK    2  A    between atoms: N2_6  and  C4_8
ROOT
HETATM    1  N1  UNL     1      13.809  29.138  23.886  1.00  0.00    -0.192 NA
HETATM    2  C1  UNL     1      14.894  28.769  23.809  1.00  0.00     0.124 C
HETATM    3  C2  UNL     1      16.332  28.328  23.704  1.00  0.00     0.286 C
HETATM    4  N7  UNL     1      17.093  29.422  23.037  1.00  0.00    -0.296 N
ATOM      5  H7  UNL     1      17.692  30.195  23.325  1.00  0.00     0.168 HD
HETATM    6  C5  UNL     1      16.612  28.904  21.847  1.00  0.00     0.322 C
HETATM    7  O2  UNL     1      16.331  29.221  20.631  1.00  0.00    -0.247 OA
HETATM    8  N8  UNL     1      16.531  27.589  22.546  1.00  0.00    -0.296 N
ATOM      9  H8  UNL     1      16.593  26.604  22.291  1.00  0.00     0.168 HD
ENDROOT
BRANCH   3  10
HETATM   10  C3  UNL     1      16.845  28.048  25.041  1.00  0.00     0.289 C
HETATM   11  O1  UNL     1      18.069  28.110  25.257  1.00  0.00    -0.267 OA
HETATM   12  N2  UNL     1      15.957  27.678  26.109  1.00  0.00    -0.292 N
ATOM     13  H2  UNL     1      15.041  27.310  25.855  1.00  0.00     0.172 HD
BRANCH  12  14
HETATM   14  C4  UNL     1      16.224  27.774  27.324  1.00  0.00     0.218 A
HETATM   15  N3  UNL     1      17.246  28.381  27.954  1.00  0.00    -0.254 N
HETATM   16  N4  UNL     1      17.216  28.170  29.247  1.00  0.00    -0.225 N
ATOM     17  H3  UNL     1      17.959  28.939  27.481  1.00  0.00     0.191 HD
HETATM   18  N5  UNL     1      16.187  27.424  29.530  1.00  0.00    -0.225 N
ATOM     19  H4  UNL     1      17.890  28.532  29.922  1.00  0.00     0.210 HD
HETATM   20  N6  UNL     1      15.552  27.161  28.368  1.00  0.00    -0.254 N
ATOM     21  H5  UNL     1      15.912  27.099  30.458  1.00  0.00     0.210 HD
ATOM     22  H6  UNL     1      14.707  26.598  28.274  1.00  0.00     0.191 HD
ENDBRANCH  12  14
ENDBRANCH   3  10
TORSDOF 2
ENDMDL