MODEL 3
REMARK VINA RESULT: -5.176305109      3.356      4.251
REMARK  1 active torsions:
REMARK  status: ('A' for Active; 'I' for Inactive)
REMARK    1  A    between atoms: C1_2  and  N1_3
ROOT
HETATM    1  N1  UNL     1      18.454  26.920  28.149  1.00  0.00    -0.270 N
HETATM    2  C2  UNL     1      19.071  27.146  29.425  1.00  0.00     0.166 C
HETATM    3  C3  UNL     1      18.776  28.531  29.952  1.00  0.00     0.135 C
HETATM    4  N2  UNL     1      17.503  28.654  30.587  1.00  0.00    -0.418 N
ATOM      5  H2  UNL     1      16.743  29.199  30.180  1.00  0.00     0.153 HD
HETATM    6  C4  UNL     1      17.363  27.966  31.828  1.00  0.00     0.141 C
HETATM    7  C5  UNL     1      16.262  26.937  31.746  1.00  0.00     0.251 C
HETATM    8  N3  UNL     1      15.157  27.533  31.035  1.00  0.00    -0.072 N
ATOM      9  H31 UNL     1      15.493  28.072  30.236  1.00  0.00     0.277 HD
ATOM     10  H32 UNL     1      14.739  28.283  31.585  1.00  0.00     0.277 HD
HETATM   11  C6  UNL     1      14.163  26.598  30.626  1.00  0.00     0.252 C
HETATM   12  C7  UNL     1      14.186  26.268  29.152  1.00  0.00     0.150 C
HETATM   13  N4  UNL     1      14.350  27.471  28.361  1.00  0.00    -0.358 N
ATOM     14  H4  UNL     1      13.880  28.312  28.697  1.00  0.00     0.162 HD
HETATM   15  C8  UNL     1      15.097  27.588  27.174  1.00  0.00     0.234 C
HETATM   16  O2  UNL     1      14.590  28.188  26.163  1.00  0.00    -0.272 OA
HETATM   17  C9  UNL     1      16.468  27.078  26.940  1.00  0.00     0.237 C
HETATM   18  N5  UNL     1      17.119  26.516  28.069  1.00  0.00    -0.128 NA
ENDROOT
BRANCH   1  19
HETATM   19  C1  UNL     1      19.212  27.108  26.974  1.00  0.00     0.367 C
HETATM   20  O1  UNL     1      20.462  27.047  26.952  1.00  0.00    -0.282 OA
ENDBRANCH   1  19
TORSDOF 1
ENDMDL