MODEL 3
REMARK VINA RESULT: -7.469248888      1.989      5.139
REMARK  1 active torsions:
REMARK  status: ('A' for Active; 'I' for Inactive)
REMARK    1  A    between atoms: C3_4  and  C4_5
ROOT
HETATM    1  C4  UNL     1      16.500  28.273  25.641  1.00  0.00     0.132 A
HETATM    2  N1  UNL     1      17.094  27.132  25.919  1.00  0.00    -0.291 N
ATOM      3  H1  UNL     1      16.987  26.352  25.270  1.00  0.00     0.187 HD
HETATM    4  N2  UNL     1      17.826  26.958  27.009  1.00  0.00    -0.251 N
ATOM      5  H2  UNL     1      18.261  26.050  27.175  1.00  0.00     0.191 HD
HETATM    6  C5  UNL     1      18.012  27.942  27.901  1.00  0.00     0.341 A
HETATM    7  O2  UNL     1      18.706  27.826  28.959  1.00  0.00    -0.245 OA
HETATM    8  N3  UNL     1      17.416  29.120  27.641  1.00  0.00    -0.272 N
ATOM      9  H3  UNL     1      17.540  29.887  28.301  1.00  0.00     0.173 HD
HETATM   10  C6  UNL     1      16.674  29.325  26.560  1.00  0.00     0.278 A
HETATM   11  O3  UNL     1      16.135  30.450  26.367  1.00  0.00    -0.265 OA
ENDROOT
BRANCH   1  12
HETATM   12  C3  UNL     1      15.649  28.560  24.494  1.00  0.00     0.072 A
HETATM   13  C2  UNL     1      14.274  28.575  24.575  1.00  0.00     0.095 A
HETATM   14  C1  UNL     1      13.522  28.850  23.445  1.00  0.00     0.260 A
HETATM   15  O1  UNL     1      12.274  28.870  23.483  1.00  0.00    -0.267 OA
HETATM   16  N5  UNL     1      14.106  29.110  22.245  1.00  0.00    -0.264 N
HETATM   17  N4  UNL     1      15.414  29.091  22.188  1.00  0.00    -0.263 N
ATOM     18  H5  UNL     1      13.545  29.313  21.418  1.00  0.00     0.190 HD
HETATM   19  C7  UNL     1      16.205  28.828  23.268  1.00  0.00     0.272 A
ATOM     20  H4  UNL     1      15.864  29.282  21.293  1.00  0.00     0.190 HD
HETATM   21  O4  UNL     1      17.462  28.821  23.175  1.00  0.00    -0.266 OA
ENDBRANCH   1  12
TORSDOF 1
ENDMDL