MODEL 2
REMARK VINA RESULT: -7.218865821      2.333      2.802
REMARK  2 active torsions:
REMARK  status: ('A' for Active; 'I' for Inactive)
REMARK    1  A    between atoms: C5_9  and  N3_10
REMARK    2  A    between atoms: N3_10  and  N4_12
ROOT
HETATM    1  N1  UNL     1      12.408  28.772  23.524  1.00  0.00    -0.190 NA
HETATM    2  C1  UNL     1      13.577  28.732  23.638  1.00  0.00     0.118 C
HETATM    3  C2  UNL     1      15.007  28.707  23.775  1.00  0.00     0.135 A
HETATM    4  C3  UNL     1      15.775  29.351  22.827  1.00  0.00     0.116 A
HETATM    5  C4  UNL     1      17.148  29.315  22.977  1.00  0.00     0.262 A
HETATM    6  O1  UNL     1      17.846  29.900  22.115  1.00  0.00    -0.268 OA
HETATM    7  N2  UNL     1      17.694  28.660  24.031  1.00  0.00    -0.155 N
ATOM      8  H2  UNL     1      18.709  28.642  24.127  1.00  0.00     0.187 HD
HETATM    9  C5  UNL     1      16.943  28.033  24.953  1.00  0.00     0.702 A
HETATM   10  N7  UNL     1      15.613  28.069  24.808  1.00  0.00    -0.180 N
ATOM     11  H7  UNL     1      15.032  27.598  25.501  1.00  0.00     0.185 HD
ENDROOT
BRANCH   9  12
HETATM   12  N3  UNL     1      17.529  27.440  25.916  1.00  0.00    -0.113 N
ATOM     13  H3  UNL     1      18.531  27.278  25.811  1.00  0.00     0.207 HD
BRANCH  12  14
HETATM   14  N4  UNL     1      16.950  26.995  27.087  1.00  0.00    -0.198 N
HETATM   15  C6  UNL     1      17.030  27.542  28.428  1.00  0.00     0.296 C
HETATM   16  N5  UNL     1      15.699  27.287  28.940  1.00  0.00    -0.322 N
HETATM   17  C7  UNL     1      15.316  26.027  28.405  1.00  0.00     0.337 C
ATOM     18  H5  UNL     1      15.151  27.887  29.556  1.00  0.00     0.166 HD
HETATM   19  O2  UNL     1      14.452  25.230  28.869  1.00  0.00    -0.245 OA
HETATM   20  N6  UNL     1      16.122  25.866  27.233  1.00  0.00    -0.233 N
ATOM     21  H6  UNL     1      16.100  25.063  26.604  1.00  0.00     0.193 HD
ENDBRANCH  12  14
ENDBRANCH   9  12
TORSDOF 2
ENDMDL