MODEL 5
REMARK VINA RESULT: -6.522766933      2.806      4.047
REMARK  1 active torsions:
REMARK  status: ('A' for Active; 'I' for Inactive)
REMARK    1  A    between atoms: N2_5  and  C4_7
ROOT
HETATM    1  C1  UNL     1      17.101  30.984  26.392  1.00  0.00     0.020 C
HETATM    2  C2  UNL     1      17.236  30.146  25.533  1.00  0.00    -0.044 C
HETATM    3  C3  UNL     1      17.374  29.154  24.502  1.00  0.00     0.171 C
HETATM    4  N1  UNL     1      17.505  29.577  23.150  1.00  0.00    -0.072 NA
HETATM    5  N2  UNL     1      17.388  27.885  24.734  1.00  0.00    -0.322 N
ATOM      6  H2  UNL     1      17.491  27.240  23.950  1.00  0.00     0.169 HD
ENDROOT
BRANCH   5   7
HETATM    7  C4  UNL     1      17.263  27.356  26.058  1.00  0.00     0.142 A
HETATM    8  N3  UNL     1      16.071  27.080  26.602  1.00  0.00    -0.292 N
HETATM    9  C5  UNL     1      15.996  26.585  27.845  1.00  0.00     0.327 A
ATOM     10  H3  UNL     1      15.217  27.247  26.069  1.00  0.00     0.172 HD
HETATM   11  O1  UNL     1      14.861  26.323  28.358  1.00  0.00    -0.247 OA
HETATM   12  N4  UNL     1      17.076  26.344  28.598  1.00  0.00    -0.292 N
HETATM   13  C6  UNL     1      18.299  26.607  28.092  1.00  0.00     0.144 A
ATOM     14  H4  UNL     1      16.977  25.968  29.540  1.00  0.00     0.172 HD
HETATM   15  N5  UNL     1      19.537  26.474  28.593  1.00  0.00    -0.292 N
HETATM   16  C8  UNL     1      18.387  27.116  26.816  1.00  0.00     0.125 A
HETATM   17  C7  UNL     1      20.379  26.893  27.643  1.00  0.00     0.326 A
ATOM     18  H5  UNL     1      19.786  26.122  29.518  1.00  0.00     0.172 HD
HETATM   19  O2  UNL     1      21.628  26.915  27.751  1.00  0.00    -0.247 OA
HETATM   20  N6  UNL     1      19.698  27.290  26.548  1.00  0.00    -0.302 N
ATOM     21  H6  UNL     1      20.098  27.652  25.683  1.00  0.00     0.171 HD
ENDBRANCH   5   7
TORSDOF 1
ENDMDL