MODEL 1
REMARK VINA RESULT: -6.029615238      0.000      0.000
REMARK  5 active torsions:
REMARK  status: ('A' for Active; 'I' for Inactive)
REMARK    1  A    between atoms: N1_1  and  N2_4
REMARK    2  A    between atoms: C1_6  and  C2_7
REMARK       I    between atoms: C2_7  and  N3_9
REMARK    3  A    between atoms: N3_9  and  C3_11
REMARK    4  A    between atoms: C4_16  and  S1_17
REMARK    5  A    between atoms: S1_17  and  N6_18
ROOT
HETATM    1  C3  UNL     1      18.155  27.158  27.116  1.00  0.00     0.702 A
HETATM    2  N4  UNL     1      17.067  26.378  27.260  1.00  0.00    -0.130 N
ATOM      3  H4  UNL     1      17.019  25.527  27.819  1.00  0.00     0.205 HD
HETATM    4  N5  UNL     1      16.065  26.895  26.554  1.00  0.00    -0.260 N
ATOM      5  H5  UNL     1      15.127  26.502  26.488  1.00  0.00     0.190 HD
HETATM    6  C4  UNL     1      16.481  28.018  25.940  1.00  0.00     0.253 A
HETATM    7  N7  UNL     1      17.770  28.157  26.302  1.00  0.00    -0.162 N
ATOM      8  H7  UNL     1      18.375  28.920  25.998  1.00  0.00     0.186 HD
ENDROOT
BRANCH   1   9
HETATM    9  N3  UNL     1      19.307  26.941  27.671  1.00  0.00    -0.153 N
HETATM   10  C2  UNL     1      20.157  25.885  27.339  1.00  0.00     0.276 C
HETATM   11  O1  UNL     1      19.672  24.739  27.181  1.00  0.00    -0.266 OA
ATOM     12  H3  UNL     1      19.612  27.586  28.399  1.00  0.00     0.187 HD
BRANCH  10  13
HETATM   13  C1  UNL     1      21.590  26.044  27.165  1.00  0.00     0.181 C
HETATM   14  N2  UNL     1      22.033  26.607  26.102  1.00  0.00    -0.313 N
ATOM     15  H2  UNL     1      21.366  26.930  25.400  1.00  0.00     0.185 HD
BRANCH  14  16
HETATM   16  N1  UNL     1      23.401  26.792  25.871  1.00  0.00    -0.345 N
ATOM     17  H12 UNL     1      24.001  25.967  25.867  1.00  0.00     0.176 HD
ATOM     18  H11 UNL     1      23.805  27.715  25.708  1.00  0.00     0.176 HD
ENDBRANCH  14  16
ENDBRANCH  10  13
ENDBRANCH   1   9
BRANCH   6  19
HETATM   19  S1  UNL     1      15.540  29.079  24.886  1.00  0.00     0.290 S
HETATM   20  O2  UNL     1      16.412  30.082  24.215  1.00  0.00    -0.198 OA
HETATM   21  O3  UNL     1      14.455  29.745  25.647  1.00  0.00    -0.198 OA
BRANCH  19  22
HETATM   22  N6  UNL     1      14.787  28.081  23.677  1.00  0.00    -0.322 N
ATOM     23  H62 UNL     1      14.537  27.098  23.791  1.00  0.00     0.169 HD
ATOM     24  H61 UNL     1      14.646  28.658  22.847  1.00  0.00     0.169 HD
ENDBRANCH  19  22
ENDBRANCH   6  19
TORSDOF 5
ENDMDL