MODEL 2
REMARK VINA RESULT: -6.884736408      1.755      2.102
REMARK  3 active torsions:
REMARK  status: ('A' for Active; 'I' for Inactive)
REMARK    1  A    between atoms: C4_7  and  N2_8
REMARK    2  A    between atoms: N2_8  and  N3_10
REMARK    3  A    between atoms: N3_10  and  C5_12
ROOT
HETATM    1  N3  UNL     1      16.344  30.406  25.660  1.00  0.00    -0.270 N
ATOM      2  H3  UNL     1      16.809  31.307  25.545  1.00  0.00     0.189 HD
ENDROOT
BRANCH   1   3
HETATM    3  N2  UNL     1      16.361  29.869  26.923  1.00  0.00    -0.130 N
ATOM      4  H2  UNL     1      15.909  30.356  27.696  1.00  0.00     0.205 HD
BRANCH   3   5
HETATM    5  C4  UNL     1      16.954  28.744  27.121  1.00  0.00     0.699 A
HETATM    6  N1  UNL     1      16.339  27.734  27.790  1.00  0.00    -0.200 N
HETATM    7  C3  UNL     1      16.943  26.559  28.004  1.00  0.00     0.111 A
ATOM      8  H1  UNL     1      15.391  27.876  28.138  1.00  0.00     0.183 HD
HETATM    9  C2  UNL     1      18.216  26.319  27.553  1.00  0.00     0.092 A
HETATM   10  C1  UNL     1      18.851  27.345  26.868  1.00  0.00     0.260 A
HETATM   11  O1  UNL     1      20.026  27.128  26.451  1.00  0.00    -0.268 OA
HETATM   12  N7  UNL     1      18.201  28.498  26.685  1.00  0.00    -0.155 N
ATOM     13  H7  UNL     1      18.683  29.241  26.180  1.00  0.00     0.187 HD
ENDBRANCH   3   5
ENDBRANCH   1   3
BRANCH   1  14
HETATM   14  C5  UNL     1      15.813  29.909  24.617  1.00  0.00     0.141 A
HETATM   15  C6  UNL     1      16.494  29.576  23.471  1.00  0.00     0.157 A
HETATM   16  N4  UNL     1      15.798  29.060  22.451  1.00  0.00    -0.304 N
HETATM   17  N5  UNL     1      14.499  28.846  22.465  1.00  0.00    -0.252 N
ATOM     18  H4  UNL     1      16.309  28.815  21.603  1.00  0.00     0.186 HD
HETATM   19  C7  UNL     1      13.833  29.167  23.576  1.00  0.00     0.340 A
ATOM     20  H5  UNL     1      14.019  28.449  21.657  1.00  0.00     0.191 HD
HETATM   21  O2  UNL     1      12.595  28.991  23.657  1.00  0.00    -0.245 OA
HETATM   22  N6  UNL     1      14.487  29.689  24.625  1.00  0.00    -0.291 N
ATOM     23  H6  UNL     1      13.957  29.928  25.463  1.00  0.00     0.172 HD
ENDBRANCH   1  14
TORSDOF 3
ENDMDL