MODEL 3
REMARK VINA RESULT: -8.659189365      2.844      5.508
REMARK  6 active torsions:
REMARK  status: ('A' for Active; 'I' for Inactive)
REMARK    1  A    between atoms: C2_2  and  N1_3
REMARK    2  A    between atoms: C4_5  and  C5_6
REMARK    3  A    between atoms: C5_6  and  C6_7
REMARK    4  A    between atoms: C6_7  and  C7_8
REMARK    5  A    between atoms: C11_20  and  C12_21
REMARK    6  A    between atoms: C13_28  and  O3_29
ROOT
HETATM    1  N1  UNL     1      19.273  26.205  26.773  1.00  0.00    -0.341 N
HETATM    2  C3  UNL     1      18.949  27.495  26.739  1.00  0.00     0.105 A
HETATM    3  C4  UNL     1      17.657  27.657  27.251  1.00  0.00    -0.004 A
HETATM    4  C10 UNL     1      17.185  26.416  27.606  1.00  0.00     0.052 A
HETATM    5  C11 UNL     1      16.126  25.685  28.138  1.00  0.00     0.095 A
HETATM    6  N8  UNL     1      16.592  24.391  28.114  1.00  0.00    -0.296 N
ATOM      7  H8  UNL     1      16.058  23.585  28.439  1.00  0.00     0.187 HD
HETATM    8  N9  UNL     1      17.798  24.324  27.626  1.00  0.00    -0.284 N
ATOM      9  H9  UNL     1      18.335  23.464  27.517  1.00  0.00     0.188 HD
HETATM   10  C14 UNL     1      18.230  25.537  27.290  1.00  0.00     0.135 A
ENDROOT
BRANCH   3  11
HETATM   11  C5  UNL     1      16.955  28.921  27.376  1.00  0.00     0.017 C
BRANCH  11  12
HETATM   12  C6  UNL     1      16.831  29.715  26.312  1.00  0.00     0.050 C
BRANCH  12  13
HETATM   13  C7  UNL     1      16.157  29.327  25.082  1.00  0.00     0.112 A
HETATM   14  N2  UNL     1      16.850  29.235  23.914  1.00  0.00    -0.294 N
HETATM   15  C8  UNL     1      16.303  28.888  22.751  1.00  0.00     0.329 A
ATOM     16  H2  UNL     1      17.848  29.445  23.930  1.00  0.00     0.172 HD
HETATM   17  O1  UNL     1      16.934  28.802  21.681  1.00  0.00    -0.246 OA
HETATM   18  N3  UNL     1      14.978  28.604  22.703  1.00  0.00    -0.260 N
HETATM   19  C9  UNL     1      14.275  28.688  23.842  1.00  0.00     0.329 A
ATOM     20  H3  UNL     1      14.530  28.335  21.827  1.00  0.00     0.175 HD
HETATM   21  O2  UNL     1      13.052  28.431  23.821  1.00  0.00    -0.246 OA
HETATM   22  N4  UNL     1      14.859  29.046  25.016  1.00  0.00    -0.294 N
ATOM     23  H4  UNL     1      14.292  29.099  25.861  1.00  0.00     0.172 HD
ENDBRANCH  12  13
ENDBRANCH  11  12
ENDBRANCH   3  11
BRANCH   1  24
HETATM   24  C2  UNL     1      20.513  25.604  26.339  1.00  0.00     0.125 C
HETATM   25  C1  UNL     1      21.390  25.246  27.513  1.00  0.00     0.027 C
ENDBRANCH   1  24
BRANCH   5  26
HETATM   26  C12 UNL     1      14.842  26.120  28.611  1.00  0.00     0.130 A
HETATM   27  N5  UNL     1      14.298  27.315  28.636  1.00  0.00    -0.280 N
HETATM   28  N6  UNL     1      13.068  27.284  29.168  1.00  0.00    -0.240 N
ATOM     29  H5  UNL     1      14.754  28.161  28.293  1.00  0.00     0.188 HD
HETATM   30  N7  UNL     1      12.776  26.056  29.505  1.00  0.00    -0.264 N
ATOM     31  H6  UNL     1      12.457  28.091  29.290  1.00  0.00     0.208 HD
HETATM   32  C13 UNL     1      13.872  25.304  29.166  1.00  0.00     0.187 A
ATOM     33  H7  UNL     1      11.911  25.724  29.932  1.00  0.00     0.190 HD
BRANCH  32  34
HETATM   34  O3  UNL     1      13.942  23.944  29.373  1.00  0.00    -0.343 OA
ATOM     35  H3  UNL     1      13.419  23.424  29.971  1.00  0.00     0.219 HD
ENDBRANCH  32  34
ENDBRANCH   5  26
TORSDOF 6
ENDMDL