MODEL 3
REMARK VINA RESULT: -7.712338336      3.589      6.308
REMARK  5 active torsions:
REMARK  status: ('A' for Active; 'I' for Inactive)
REMARK    1  A    between atoms: N2_6  and  C3_7
REMARK    2  A    between atoms: C4_10  and  N4_11
REMARK    3  A    between atoms: C5_14  and  N5_15
REMARK    4  A    between atoms: C6_20  and  C7_21
REMARK    5  A    between atoms: N10_32  and  C11_33
ROOT
HETATM    1  C3  UNL     1      16.069  25.556  27.951  1.00  0.00     0.136 A
HETATM    2  N3  UNL     1      17.036  24.668  27.529  1.00  0.00    -0.324 N
ATOM      3  H3  UNL     1      17.647  24.950  26.762  1.00  0.00     0.169 HD
HETATM    4  C4  UNL     1      17.215  23.460  28.069  1.00  0.00     0.151 A
HETATM    5  C5  UNL     1      16.364  23.126  29.102  1.00  0.00     0.218 A
HETATM    6  N6  UNL     1      15.410  23.947  29.550  1.00  0.00    -0.328 N
ATOM      7  H6  UNL     1      14.804  23.654  30.317  1.00  0.00     0.168 HD
HETATM    8  C6  UNL     1      15.245  25.182  28.982  1.00  0.00     0.124 A
ENDROOT
BRANCH   1   9
HETATM    9  N2  UNL     1      16.013  26.797  27.273  1.00  0.00    -0.357 N
HETATM   10  C2  UNL     1      17.171  27.659  27.390  1.00  0.00     0.200 C
HETATM   11  C1  UNL     1      17.501  28.360  26.114  1.00  0.00     0.091 C
HETATM   12  N1  UNL     1      18.672  28.553  25.680  1.00  0.00    -0.388 N
HETATM   13  N10 UNL     1      16.398  28.838  25.366  1.00  0.00    -0.363 N
ATOM     14  H12 UNL     1      19.467  28.209  26.219  1.00  0.00     0.157 HD
ATOM     15  H11 UNL     1      18.898  29.032  24.809  1.00  0.00     0.157 HD
HETATM   16  C10 UNL     1      15.136  28.782  26.138  1.00  0.00     0.144 C
HETATM   17  C9  UNL     1      14.961  27.292  26.451  1.00  0.00     0.145 C
BRANCH  13  18
HETATM   18  C11 UNL     1      16.461  29.313  24.032  1.00  0.00     0.085 A
HETATM   19  C12 UNL     1      17.017  28.523  22.911  1.00  0.00     0.027 A
HETATM   20  C13 UNL     1      15.537  29.028  22.942  1.00  0.00     0.027 A
ENDBRANCH  13  18
ENDBRANCH   1   9
BRANCH   8  21
HETATM   21  C7  UNL     1      14.199  26.067  29.475  1.00  0.00     0.155 A
HETATM   22  N7  UNL     1      14.181  26.999  30.425  1.00  0.00    -0.279 N
HETATM   23  N8  UNL     1      12.993  27.559  30.520  1.00  0.00    -0.250 N
ATOM     24  H7  UNL     1      14.984  27.246  31.004  1.00  0.00     0.189 HD
HETATM   25  C8  UNL     1      12.207  26.974  29.601  1.00  0.00     0.340 A
ATOM     26  H8  UNL     1      12.721  28.297  31.169  1.00  0.00     0.192 HD
HETATM   27  O3  UNL     1      10.972  27.242  29.376  1.00  0.00    -0.245 OA
HETATM   28  N9  UNL     1      12.963  26.067  28.976  1.00  0.00    -0.290 N
ATOM     29  H9  UNL     1      12.640  25.461  28.222  1.00  0.00     0.172 HD
ENDBRANCH   8  21
BRANCH   4  30
HETATM   30  N4  UNL     1      18.120  22.630  27.676  1.00  0.00    -0.382 N
ATOM     31  H42 UNL     1      18.888  22.372  28.295  1.00  0.00     0.157 HD
ATOM     32  H41 UNL     1      18.124  22.195  26.753  1.00  0.00     0.157 HD
ENDBRANCH   4  30
BRANCH   5  33
HETATM   33  N5  UNL     1      16.560  21.820  29.683  1.00  0.00    -0.094 N
HETATM   34  O1  UNL     1      15.818  20.915  29.314  1.00  0.00    -0.530 OA
HETATM   35  O2  UNL     1      17.542  21.598  30.613  1.00  0.00    -0.530 OA
ENDBRANCH   5  33
TORSDOF 5
ENDMDL