MODEL 1
REMARK VINA RESULT: -7.569219112      0.000      0.000
REMARK  6 active torsions:
REMARK  status: ('A' for Active; 'I' for Inactive)
REMARK    1  A    between atoms: C2_2  and  C3_3
REMARK    2  A    between atoms: C3_3  and  N2_6
REMARK    3  A    between atoms: N3_9  and  C7_10
REMARK    4  A    between atoms: C10_13  and  C11_14
REMARK    5  A    between atoms: C13_19  and  N6_20
REMARK    6  A    between atoms: C14_25  and  N8_26
ROOT
HETATM    1  C3  UNL     1      15.795  29.041  24.433  1.00  0.00     0.351 C
HETATM    2  C4  UNL     1      14.413  28.651  24.062  1.00  0.00     0.099 C
HETATM    3  N1  UNL     1      13.337  28.326  23.778  1.00  0.00    -0.195 NA
ENDROOT
BRANCH   1   4
HETATM    4  C2  UNL     1      16.637  29.230  23.241  1.00  0.00     0.013 C
HETATM    5  C1  UNL     1      16.465  28.528  22.111  1.00  0.00     0.010 C
ENDBRANCH   1   4
BRANCH   1   6
HETATM    6  N2  UNL     1      16.279  28.040  25.334  1.00  0.00     0.113 N
HETATM    7  C5  UNL     1      17.715  28.067  25.461  1.00  0.00     0.294 C
HETATM    8  C6  UNL     1      18.228  27.419  26.724  1.00  0.00     0.154 C
HETATM    9  N3  UNL     1      17.322  26.507  27.342  1.00  0.00    -0.363 N
HETATM   10  C15 UNL     1      15.884  26.705  27.270  1.00  0.00     0.154 C
HETATM   11  C16 UNL     1      15.621  28.037  26.626  1.00  0.00     0.294 C
BRANCH   9  12
HETATM   12  C7  UNL     1      17.775  25.347  28.069  1.00  0.00     0.117 A
HETATM   13  C8  UNL     1      18.085  25.372  29.408  1.00  0.00     0.052 A
HETATM   14  C9  UNL     1      18.528  24.226  30.072  1.00  0.00     0.036 A
HETATM   15  C10 UNL     1      18.651  23.055  29.357  1.00  0.00     0.065 A
HETATM   16  N9  UNL     1      18.340  23.083  28.070  1.00  0.00    -0.298 N
HETATM   17  N10 UNL     1      17.920  24.154  27.427  1.00  0.00    -0.285 N
ATOM     18  H9  UNL     1      18.431  22.216  27.540  1.00  0.00     0.187 HD
ATOM     19  H10 UNL     1      17.700  24.089  26.433  1.00  0.00     0.188 HD
BRANCH  15  20
HETATM   20  C11 UNL     1      19.111  21.834  30.001  1.00  0.00     0.078 A
HETATM   21  C12 UNL     1      20.420  21.392  29.913  1.00  0.00     0.148 A
HETATM   22  N4  UNL     1      21.328  22.193  29.151  1.00  0.00    -0.081 NA
HETATM   23  N5  UNL     1      20.747  20.267  30.533  1.00  0.00    -0.178 N
HETATM   24  C13 UNL     1      19.865  19.542  31.240  1.00  0.00     0.678 A
ATOM     25  H5  UNL     1      21.710  19.937  30.470  1.00  0.00     0.185 HD
HETATM   26  N7  UNL     1      18.589  19.950  31.340  1.00  0.00    -0.176 N
HETATM   27  C14 UNL     1      18.198  21.081  30.735  1.00  0.00     0.130 A
ATOM     28  H7  UNL     1      17.918  19.400  31.876  1.00  0.00     0.186 HD
BRANCH  24  29
HETATM   29  N6  UNL     1      20.252  18.460  31.815  1.00  0.00    -0.234 N
ATOM     30  H62 UNL     1      20.109  17.555  31.368  1.00  0.00     0.174 HD
ATOM     31  H61 UNL     1      20.707  18.511  32.726  1.00  0.00     0.174 HD
ENDBRANCH  24  29
BRANCH  27  32
HETATM   32  N8  UNL     1      16.974  21.496  30.818  1.00  0.00    -0.384 N
ATOM     33  H82 UNL     1      16.672  22.097  31.585  1.00  0.00     0.157 HD
ATOM     34  H81 UNL     1      16.310  21.211  30.098  1.00  0.00     0.157 HD
ENDBRANCH  27  32
ENDBRANCH  15  20
ENDBRANCH   9  12
ENDBRANCH   1   6
TORSDOF 6
ENDMDL