MODEL 2
REMARK VINA RESULT: -7.397795345      0.710      1.039
REMARK  7 active torsions:
REMARK  status: ('A' for Active; 'I' for Inactive)
REMARK    1  A    between atoms: N1_2  and  C2_5
REMARK    2  A    between atoms: N2_7  and  C4_8
REMARK    3  A    between atoms: C5_11  and  N4_12
REMARK    4  A    between atoms: N4_12  and  C6_14
REMARK    5  A    between atoms: C12_22  and  N6_23
REMARK    6  A    between atoms: N6_23  and  N7_25
REMARK    7  A    between atoms: C13_30  and  N9_31
ROOT
HETATM    1  C4  UNL     1      18.695  24.663  28.283  1.00  0.00     0.149 A
HETATM    2  N3  UNL     1      17.947  25.571  27.524  1.00  0.00    -0.174 N
ATOM      3  H3  UNL     1      16.935  25.586  27.644  1.00  0.00     0.186 HD
HETATM    4  C5  UNL     1      18.495  26.417  26.653  1.00  0.00     0.680 A
HETATM    5  N5  UNL     1      19.815  26.433  26.464  1.00  0.00    -0.186 N
ATOM      6  H5  UNL     1      20.242  27.077  25.800  1.00  0.00     0.184 HD
HETATM    7  C11 UNL     1      20.574  25.570  27.179  1.00  0.00     0.126 A
HETATM    8  C12 UNL     1      21.929  25.612  26.969  1.00  0.00     0.165 A
HETATM    9  N8  UNL     1      22.704  24.774  27.664  1.00  0.00    -0.173 N
ATOM     10  H8  UNL     1      23.714  24.784  27.530  1.00  0.00     0.186 HD
HETATM   11  C13 UNL     1      22.156  23.927  28.532  1.00  0.00     0.680 A
HETATM   12  N10 UNL     1      20.814  23.834  28.788  1.00  0.00    -0.182 N
HETATM   13  C14 UNL     1      20.305  22.898  29.710  1.00  0.00     0.176 C
HETATM   14  C15 UNL     1      20.024  24.674  28.096  1.00  0.00     0.126 A
ENDROOT
BRANCH   1  15
HETATM   15  N2  UNL     1      17.893  23.923  29.130  1.00  0.00    -0.361 N
HETATM   16  C3  UNL     1      16.973  22.774  28.920  1.00  0.00     0.159 C
HETATM   17  C2  UNL     1      15.992  23.451  29.881  1.00  0.00     0.221 C
HETATM   18  C16 UNL     1      17.345  23.914  30.455  1.00  0.00     0.159 C
BRANCH  17  19
HETATM   19  N1  UNL     1      15.315  22.606  30.807  1.00  0.00    -0.072 N
HETATM   20  C1  UNL     1      14.056  23.169  31.243  1.00  0.00     0.267 C
ATOM     21  H12 UNL     1      15.912  22.378  31.602  1.00  0.00     0.277 HD
ATOM     22  H11 UNL     1      15.188  21.669  30.426  1.00  0.00     0.277 HD
ENDBRANCH  17  19
ENDBRANCH   1  15
BRANCH   4  23
HETATM   23  N4  UNL     1      17.693  27.199  26.010  1.00  0.00    -0.221 N
ATOM     24  H4  UNL     1      16.734  26.872  25.894  1.00  0.00     0.178 HD
BRANCH  23  25
HETATM   25  C6  UNL     1      18.001  28.465  25.447  1.00  0.00     0.099 C
HETATM   26  C7  UNL     1      17.337  29.576  26.225  1.00  0.00     0.026 C
HETATM   27  C8  UNL     1      15.953  29.703  25.602  1.00  0.00     0.002 C
HETATM   28  C9  UNL     1      16.268  29.571  24.135  1.00  0.00     0.002 C
HETATM   29  C10 UNL     1      17.346  28.541  24.083  1.00  0.00     0.026 C
ENDBRANCH  23  25
ENDBRANCH   4  23
BRANCH   8  30
HETATM   30  N6  UNL     1      22.468  26.455  26.131  1.00  0.00    -0.290 N
ATOM     31  H6  UNL     1      21.832  26.968  25.521  1.00  0.00     0.188 HD
BRANCH  30  32
HETATM   32  N7  UNL     1      23.810  26.721  25.991  1.00  0.00    -0.344 N
ATOM     33  H72 UNL     1      24.433  25.917  26.082  1.00  0.00     0.176 HD
ATOM     34  H71 UNL     1      24.231  27.632  25.807  1.00  0.00     0.176 HD
ENDBRANCH  30  32
ENDBRANCH   8  30
BRANCH  11  35
HETATM   35  N9  UNL     1      22.914  23.121  29.207  1.00  0.00    -0.234 N
ATOM     36  H92 UNL     1      23.143  23.419  30.155  1.00  0.00     0.174 HD
ATOM     37  H91 UNL     1      23.241  22.257  28.775  1.00  0.00     0.174 HD
ENDBRANCH  11  35
TORSDOF 7
ENDMDL