MODEL 1
REMARK VINA RESULT: -8.262933741      0.000      0.000
REMARK  7 active torsions:
REMARK  status: ('A' for Active; 'I' for Inactive)
REMARK    1  A    between atoms: C2_3  and  N2_4
REMARK    2  A    between atoms: C4_9  and  N4_10
REMARK    3  A    between atoms: C5_13  and  N5_14
REMARK    4  A    between atoms: N5_14  and  C6_16
REMARK    5  A    between atoms: C7_19  and  N7_20
REMARK    6  A    between atoms: C8_25  and  N9_26
REMARK    7  A    between atoms: N9_26  and  C9_28
ROOT
HETATM    1  N1  UNL     1      17.715  21.472  25.802  1.00  0.00    -0.195 NA
HETATM    2  C1  UNL     1      17.768  22.274  26.633  1.00  0.00     0.081 C
HETATM    3  C2  UNL     1      17.811  23.282  27.694  1.00  0.00     0.274 C
ENDROOT
BRANCH   3   4
HETATM    4  N2  UNL     1      19.178  23.749  27.855  1.00  0.00    -0.258 N
HETATM    5  N3  UNL     1      20.126  23.157  28.550  1.00  0.00    -0.260 N
HETATM    6  C3  UNL     1      21.234  23.907  28.443  1.00  0.00     0.297 A
ATOM      7  H3  UNL     1      20.035  22.287  29.075  1.00  0.00     0.190 HD
HETATM    8  O1  UNL     1      22.364  23.670  28.974  1.00  0.00    -0.264 OA
HETATM    9  C4  UNL     1      20.961  25.011  27.649  1.00  0.00     0.217 A
HETATM   10  C5  UNL     1      19.637  24.885  27.285  1.00  0.00     0.177 A
BRANCH   9  11
HETATM   11  N4  UNL     1      21.852  26.057  27.280  1.00  0.00    -0.106 N
HETATM   12  O2  UNL     1      22.102  26.221  26.078  1.00  0.00    -0.531 OA
HETATM   13  O3  UNL     1      22.438  26.881  28.196  1.00  0.00    -0.531 OA
ENDBRANCH   9  11
BRANCH  10  14
HETATM   14  N5  UNL     1      18.877  25.791  26.455  1.00  0.00    -0.171 N
ATOM     15  H5  UNL     1      18.788  25.637  25.451  1.00  0.00     0.186 HD
BRANCH  14  16
HETATM   16  C6  UNL     1      18.313  26.800  27.025  1.00  0.00     0.713 A
HETATM   17  N6  UNL     1      17.998  26.783  28.342  1.00  0.00    -0.021 N
HETATM   18  C7  UNL     1      17.405  27.828  28.950  1.00  0.00     0.705 A
ATOM     19  H6  UNL     1      18.215  25.952  28.890  1.00  0.00     0.203 HD
HETATM   20  N8  UNL     1      17.137  28.901  28.190  1.00  0.00    -0.022 N
HETATM   21  C8  UNL     1      17.420  28.989  26.881  1.00  0.00     0.707 A
ATOM     22  H8  UNL     1      16.689  29.702  28.635  1.00  0.00     0.203 HD
HETATM   23  N10 UNL     1      18.019  27.904  26.317  1.00  0.00    -0.021 N
ATOM     24  H10 UNL     1      18.252  27.931  25.324  1.00  0.00     0.203 HD
BRANCH  18  25
HETATM   25  N7  UNL     1      17.109  27.794  30.224  1.00  0.00    -0.234 N
ATOM     26  H72 UNL     1      17.805  27.989  30.943  1.00  0.00     0.174 HD
ATOM     27  H71 UNL     1      16.166  27.570  30.543  1.00  0.00     0.174 HD
ENDBRANCH  18  25
BRANCH  21  28
HETATM   28  N9  UNL     1      17.152  30.027  26.170  1.00  0.00    -0.220 N
ATOM     29  H9  UNL     1      17.689  30.879  26.338  1.00  0.00     0.178 HD
BRANCH  28  30
HETATM   30  C9  UNL     1      16.146  30.051  25.162  1.00  0.00     0.099 C
HETATM   31  C10 UNL     1      14.964  29.192  25.631  1.00  0.00     0.026 C
HETATM   32  C11 UNL     1      14.169  29.151  24.320  1.00  0.00     0.002 C
HETATM   33  C12 UNL     1      15.268  28.660  23.374  1.00  0.00     0.002 C
HETATM   34  C13 UNL     1      16.496  29.391  23.871  1.00  0.00     0.026 C
ENDBRANCH  28  30
ENDBRANCH  21  28
ENDBRANCH  14  16
ENDBRANCH  10  14
ENDBRANCH   3   4
TORSDOF 7
ENDMDL