MODEL 4
REMARK VINA RESULT: -7.686805127      2.744      6.597
REMARK  6 active torsions:
REMARK  status: ('A' for Active; 'I' for Inactive)
REMARK    1  A    between atoms: C4_7  and  S1_8
REMARK    2  A    between atoms: S1_8  and  C5_9
REMARK    3  A    between atoms: C5_9  and  C6_10
REMARK    4  A    between atoms: C6_10  and  N3_11
REMARK    5  A    between atoms: N3_11  and  C7_13
REMARK    6  A    between atoms: C13_31  and  N9_32
ROOT
HETATM    1  N1  UNL     1      16.597  28.983  20.653  1.00  0.00    -0.191 NA
HETATM    2  C1  UNL     1      16.412  28.719  21.769  1.00  0.00     0.104 C
HETATM    3  C2  UNL     1      16.181  28.369  23.150  1.00  0.00     0.103 A
HETATM    4  C3  UNL     1      17.240  28.072  24.000  1.00  0.00     0.116 A
HETATM    5  N2  UNL     1      17.021  27.745  25.296  1.00  0.00    -0.345 N
ATOM      6  H2  UNL     1      17.818  27.532  25.896  1.00  0.00     0.167 HD
HETATM    7  C4  UNL     1      15.785  27.694  25.811  1.00  0.00     0.145 A
HETATM    8  N8  UNL     1      14.752  27.979  25.001  1.00  0.00    -0.322 N
ATOM      9  H8  UNL     1      13.806  27.944  25.380  1.00  0.00     0.169 HD
HETATM   10  C13 UNL     1      14.921  28.310  23.705  1.00  0.00     0.123 A
ENDROOT
BRANCH  10  11
HETATM   11  N9  UNL     1      13.911  28.584  22.931  1.00  0.00    -0.384 N
ATOM     12  H92 UNL     1      14.028  29.101  22.060  1.00  0.00     0.157 HD
ATOM     13  H91 UNL     1      12.989  28.261  23.228  1.00  0.00     0.157 HD
ENDBRANCH  10  11
BRANCH   7  14
HETATM   14  S1  UNL     1      15.451  27.283  27.507  1.00  0.00    -0.092 SA
BRANCH  14  15
HETATM   15  C5  UNL     1      15.078  25.568  27.799  1.00  0.00     0.102 C
BRANCH  15  16
HETATM   16  C6  UNL     1      16.035  24.849  28.713  1.00  0.00     0.132 C
BRANCH  16  17
HETATM   17  N3  UNL     1      16.902  24.040  27.904  1.00  0.00    -0.374 N
ATOM     18  H3  UNL     1      16.534  23.762  26.993  1.00  0.00     0.161 HD
BRANCH  17  19
HETATM   19  C7  UNL     1      18.072  23.629  28.182  1.00  0.00     0.132 A
HETATM   20  N4  UNL     1      18.371  22.485  28.810  1.00  0.00    -0.337 N
HETATM   21  C8  UNL     1      19.627  22.098  29.085  1.00  0.00     0.182 A
ATOM     22  H4  UNL     1      17.604  21.874  29.094  1.00  0.00     0.168 HD
HETATM   23  N5  UNL     1      20.658  22.864  28.732  1.00  0.00    -0.346 N
HETATM   24  C9  UNL     1      20.464  24.028  28.098  1.00  0.00     0.133 A
ATOM     25  H5  UNL     1      21.607  22.560  28.947  1.00  0.00     0.167 HD
HETATM   26  C10 UNL     1      21.536  24.820  27.733  1.00  0.00     0.278 A
HETATM   27  C12 UNL     1      19.177  24.414  27.823  1.00  0.00     0.113 A
HETATM   28  O1  UNL     1      22.710  24.465  27.988  1.00  0.00    -0.265 OA
HETATM   29  N6  UNL     1      21.235  25.971  27.102  1.00  0.00    -0.274 N
HETATM   30  C11 UNL     1      19.973  26.345  26.834  1.00  0.00     0.327 A
ATOM     31  H6  UNL     1      21.998  26.584  26.816  1.00  0.00     0.173 HD
HETATM   32  O2  UNL     1      19.718  27.421  26.245  1.00  0.00    -0.247 OA
HETATM   33  N7  UNL     1      18.933  25.572  27.190  1.00  0.00    -0.303 N
ATOM     34  H7  UNL     1      17.977  25.860  26.984  1.00  0.00     0.171 HD
ENDBRANCH  17  19
ENDBRANCH  16  17
ENDBRANCH  15  16
ENDBRANCH  14  15
ENDBRANCH   7  14
TORSDOF 6
ENDMDL