MODEL 2
REMARK VINA RESULT: -7.642800420      1.745      7.311
REMARK  7 active torsions:
REMARK  status: ('A' for Active; 'I' for Inactive)
REMARK    1  A    between atoms: C4_7  and  N3_8
REMARK    2  A    between atoms: C5_11  and  N4_12
REMARK    3  A    between atoms: N4_12  and  C6_14
REMARK    4  A    between atoms: C7_17  and  N6_18
REMARK    5  A    between atoms: N6_18  and  C8_20
REMARK    6  A    between atoms: C8_20  and  C9_21
REMARK    7  A    between atoms: C9_21  and  N7_22
ROOT
HETATM    1  N1  UNL     1      16.904  28.622  21.635  1.00  0.00    -0.190 NA
HETATM    2  C1  UNL     1      16.915  28.633  22.776  1.00  0.00     0.119 C
HETATM    3  C2  UNL     1      16.907  28.651  24.215  1.00  0.00     0.131 A
HETATM    4  C3  UNL     1      16.700  29.811  24.940  1.00  0.00     0.131 A
HETATM    5  N2  UNL     1      16.695  29.812  26.287  1.00  0.00    -0.347 N
ATOM      6  H2  UNL     1      16.541  30.679  26.802  1.00  0.00     0.167 HD
HETATM    7  C4  UNL     1      16.897  28.660  26.940  1.00  0.00     0.144 A
HETATM    8  C5  UNL     1      17.110  27.463  26.252  1.00  0.00     0.152 A
HETATM    9  N11 UNL     1      17.104  27.521  24.916  1.00  0.00    -0.330 N
ATOM     10  H11 UNL     1      17.257  26.657  24.397  1.00  0.00     0.168 HD
ENDROOT
BRANCH   8  11
HETATM   11  N4  UNL     1      17.317  26.272  26.995  1.00  0.00    -0.324 N
ATOM     12  H4  UNL     1      16.509  25.817  27.418  1.00  0.00     0.169 HD
BRANCH  11  13
HETATM   13  C6  UNL     1      18.477  25.740  27.160  1.00  0.00     0.147 A
HETATM   14  N5  UNL     1      19.593  26.357  26.731  1.00  0.00    -0.175 N
HETATM   15  C7  UNL     1      20.804  25.758  26.928  1.00  0.00     0.681 A
ATOM     16  H5  UNL     1      19.535  27.262  26.265  1.00  0.00     0.186 HD
HETATM   17  N8  UNL     1      20.899  24.575  27.534  1.00  0.00    -0.177 N
HETATM   18  C14 UNL     1      19.786  23.941  27.971  1.00  0.00     0.156 A
ATOM     19  H8  UNL     1      21.815  24.145  27.669  1.00  0.00     0.185 HD
HETATM   20  N9  UNL     1      19.874  22.686  28.616  1.00  0.00    -0.080 NA
HETATM   21  C15 UNL     1      18.563  24.524  27.786  1.00  0.00     0.130 A
HETATM   22  C16 UNL     1      17.389  23.837  28.256  1.00  0.00     0.107 C
HETATM   23  N10 UNL     1      16.443  23.282  28.657  1.00  0.00    -0.191 NA
BRANCH  15  24
HETATM   24  N6  UNL     1      21.822  26.384  26.504  1.00  0.00    -0.224 N
ATOM     25  H6  UNL     1      21.637  27.282  26.057  1.00  0.00     0.177 HD
BRANCH  24  26
HETATM   26  C8  UNL     1      23.182  25.996  26.571  1.00  0.00     0.168 C
BRANCH  26  27
HETATM   27  C9  UNL     1      24.011  26.660  27.629  1.00  0.00     0.292 C
BRANCH  27  28
HETATM   28  N7  UNL     1      24.229  25.820  28.741  1.00  0.00     0.090 N
HETATM   29  C10 UNL     1      24.419  24.427  28.384  1.00  0.00     0.272 C
HETATM   30  C11 UNL     1      24.629  23.813  29.772  1.00  0.00     0.032 C
HETATM   31  C12 UNL     1      23.650  24.599  30.620  1.00  0.00     0.032 C
HETATM   32  C13 UNL     1      23.391  25.900  29.861  1.00  0.00     0.272 C
ENDBRANCH  27  28
ENDBRANCH  26  27
ENDBRANCH  24  26
ENDBRANCH  15  24
ENDBRANCH  11  13
ENDBRANCH   8  11
BRANCH   7  33
HETATM   33  N3  UNL     1      16.894  28.657  28.222  1.00  0.00    -0.382 N
ATOM     34  H32 UNL     1      17.421  27.943  28.723  1.00  0.00     0.157 HD
ATOM     35  H31 UNL     1      16.361  29.371  28.720  1.00  0.00     0.157 HD
ENDBRANCH   7  33
TORSDOF 7
ENDMDL