MODEL 4
REMARK VINA RESULT: -7.796979482      0.980      1.724
REMARK  8 active torsions:
REMARK  status: ('A' for Active; 'I' for Inactive)
REMARK    1  A    between atoms: N1_1  and  C1_4
REMARK    2  A    between atoms: C2_7  and  C3_8
REMARK    3  A    between atoms: C5_14  and  N5_15
REMARK    4  A    between atoms: N5_15  and  C6_17
REMARK    5  A    between atoms: C6_17  and  C7_18
REMARK    6  A    between atoms: C7_18  and  N6_19
REMARK    7  A    between atoms: C8_25  and  N8_26
REMARK    8  A    between atoms: N8_26  and  C9_28
ROOT
HETATM    1  C3  UNL     1      16.146  29.350  25.604  1.00  0.00     0.172 A
HETATM    2  N3  UNL     1      16.008  30.491  26.288  1.00  0.00    -0.280 N
ATOM      3  H3  UNL     1      15.587  31.349  25.932  1.00  0.00     0.188 HD
HETATM    4  N4  UNL     1      16.502  30.326  27.494  1.00  0.00    -0.279 N
ATOM      5  H4  UNL     1      16.521  31.046  28.217  1.00  0.00     0.189 HD
HETATM    6  C4  UNL     1      16.974  29.084  27.642  1.00  0.00     0.189 A
HETATM    7  C5  UNL     1      17.574  28.433  28.689  1.00  0.00     0.164 A
HETATM    8  N7  UNL     1      17.934  27.154  28.490  1.00  0.00    -0.172 N
ATOM      9  H7  UNL     1      18.384  26.637  29.246  1.00  0.00     0.186 HD
HETATM   10  C8  UNL     1      17.713  26.538  27.307  1.00  0.00     0.695 A
HETATM   11  N9  UNL     1      17.123  27.224  26.318  1.00  0.00    -0.122 N
ATOM     12  H9  UNL     1      16.961  26.752  25.429  1.00  0.00     0.206 HD
HETATM   13  N10 UNL     1      16.742  28.485  26.442  1.00  0.00    -0.201 N
ENDROOT
BRANCH   1  14
HETATM   14  C2  UNL     1      15.719  29.144  24.233  1.00  0.00     0.097 A
HETATM   15  N2  UNL     1      16.496  29.152  23.165  1.00  0.00    -0.188 N
HETATM   16  C1  UNL     1      16.097  28.960  21.898  1.00  0.00     0.676 A
ATOM     17  H2  UNL     1      17.491  29.320  23.317  1.00  0.00     0.184 HD
HETATM   18  N11 UNL     1      14.787  28.738  21.687  1.00  0.00    -0.202 N
HETATM   19  C15 UNL     1      13.892  28.705  22.697  1.00  0.00     0.108 A
ATOM     20  H11 UNL     1      14.460  28.590  20.732  1.00  0.00     0.183 HD
HETATM   21  C14 UNL     1      14.366  28.910  23.976  1.00  0.00     0.052 A
BRANCH  16  22
HETATM   22  N1  UNL     1      16.955  28.989  20.906  1.00  0.00    -0.234 N
ATOM     23  H12 UNL     1      16.763  29.510  20.051  1.00  0.00     0.174 HD
ATOM     24  H11 UNL     1      17.843  28.491  20.964  1.00  0.00     0.174 HD
ENDBRANCH  16  22
ENDBRANCH   1  14
BRANCH   7  25
HETATM   25  N5  UNL     1      17.778  29.010  29.789  1.00  0.00    -0.371 N
ATOM     26  H5  UNL     1      17.322  29.913  29.913  1.00  0.00     0.161 HD
BRANCH  25  27
HETATM   27  C6  UNL     1      18.569  28.552  30.881  1.00  0.00     0.148 C
BRANCH  27  28
HETATM   28  C7  UNL     1      17.694  27.956  31.964  1.00  0.00     0.249 C
BRANCH  28  29
HETATM   29  N6  UNL     1      16.333  28.369  31.785  1.00  0.00    -0.078 N
ATOM     30  H63 UNL     1      15.680  27.749  32.265  1.00  0.00     0.274 HD
ATOM     31  H62 UNL     1      16.125  29.229  32.294  1.00  0.00     0.274 HD
ATOM     32  H61 UNL     1      16.117  28.453  30.792  1.00  0.00     0.274 HD
ENDBRANCH  28  29
ENDBRANCH  27  28
ENDBRANCH  25  27
ENDBRANCH   7  25
BRANCH  10  33
HETATM   33  N8  UNL     1      18.055  25.347  27.139  1.00  0.00    -0.220 N
ATOM     34  H8  UNL     1      17.831  24.963  26.221  1.00  0.00     0.178 HD
BRANCH  33  35
HETATM   35  C9  UNL     1      18.701  24.452  28.014  1.00  0.00     0.099 C
HETATM   36  C10 UNL     1      20.192  24.369  27.864  1.00  0.00     0.026 C
HETATM   37  C11 UNL     1      20.486  23.084  28.634  1.00  0.00     0.002 C
HETATM   38  C12 UNL     1      19.285  22.202  28.367  1.00  0.00     0.002 C
HETATM   39  C13 UNL     1      18.280  23.028  27.629  1.00  0.00     0.026 C
ENDBRANCH  33  35
ENDBRANCH  10  33
TORSDOF 8
ENDMDL