MODEL 3
REMARK VINA RESULT: -7.281766874      2.991      3.976
REMARK  5 active torsions:
REMARK  status: ('A' for Active; 'I' for Inactive)
REMARK    1  A    between atoms: S1_2  and  C2_3
REMARK    2  A    between atoms: N2_6  and  C3_7
REMARK    3  A    between atoms: C8_19  and  N6_20
REMARK    4  A    between atoms: N8_26  and  C10_28
REMARK    5  A    between atoms: C10_28  and  C11_29
ROOT
HETATM    1  C3  UNL     1      16.361  27.989  25.922  1.00  0.00     0.722 A
HETATM    2  N3  UNL     1      15.038  28.041  25.687  1.00  0.00    -0.173 N
ATOM      3  H3  UNL     1      14.394  27.878  26.461  1.00  0.00     0.186 HD
HETATM    4  C4  UNL     1      14.530  28.300  24.465  1.00  0.00     0.141 A
HETATM    5  N4  UNL     1      13.223  28.359  24.197  1.00  0.00    -0.337 N
ATOM      6  H4  UNL     1      12.542  28.203  24.940  1.00  0.00     0.168 HD
HETATM    7  C5  UNL     1      12.805  28.624  22.954  1.00  0.00     0.184 A
HETATM    8  N5  UNL     1      13.662  28.841  21.928  1.00  0.00    -0.319 N
ATOM      9  H5  UNL     1      13.304  29.039  20.994  1.00  0.00     0.169 HD
HETATM   10  C6  UNL     1      14.986  28.793  22.148  1.00  0.00     0.264 A
HETATM   11  O1  UNL     1      15.807  28.988  21.223  1.00  0.00    -0.267 OA
HETATM   12  C7  UNL     1      15.420  28.520  23.428  1.00  0.00     0.120 A
HETATM   13  C8  UNL     1      16.769  28.472  23.647  1.00  0.00     0.134 A
HETATM   14  N7  UNL     1      17.197  28.206  24.896  1.00  0.00    -0.173 N
ATOM     15  H7  UNL     1      18.202  28.168  25.070  1.00  0.00     0.186 HD
ENDROOT
BRANCH   1  16
HETATM   16  N2  UNL     1      16.868  27.708  27.241  1.00  0.00     0.092 N
HETATM   17  N1  UNL     1      17.241  28.604  28.139  1.00  0.00    -0.243 N
HETATM   18  C2  UNL     1      17.658  27.969  29.251  1.00  0.00     0.175 A
ATOM     19  H1  UNL     1      17.218  29.616  28.010  1.00  0.00     0.191 HD
HETATM   20  N9  UNL     1      17.521  26.655  28.988  1.00  0.00    -0.167 N
HETATM   21  C9  UNL     1      17.032  26.489  27.745  1.00  0.00     0.716 A
ATOM     22  H9  UNL     1      17.752  25.899  29.634  1.00  0.00     0.186 HD
HETATM   23  N8  UNL     1      16.757  25.391  27.112  1.00  0.00    -0.223 N
ATOM     24  H8  UNL     1      16.387  25.407  26.162  1.00  0.00     0.177 HD
BRANCH  18  25
HETATM   25  S1  UNL     1      18.269  28.690  30.769  1.00  0.00    -0.097 SA
HETATM   26  C1  UNL     1      17.441  27.922  32.197  1.00  0.00     0.099 C
ENDBRANCH  18  25
BRANCH  23  27
HETATM   27  C10 UNL     1      16.991  24.151  27.798  1.00  0.00     0.142 C
BRANCH  27  28
HETATM   28  C11 UNL     1      18.168  23.387  27.230  1.00  0.00    -0.004 C
HETATM   29  C12 UNL     1      17.739  22.072  26.619  1.00  0.00     0.011 C
HETATM   30  C13 UNL     1      19.104  23.084  28.382  1.00  0.00     0.011 C
ENDBRANCH  27  28
ENDBRANCH  23  27
ENDBRANCH   1  16
BRANCH  13  31
HETATM   31  N6  UNL     1      17.592  28.679  22.666  1.00  0.00    -0.384 N
ATOM     32  H62 UNL     1      17.276  28.743  21.698  1.00  0.00     0.157 HD
ATOM     33  H61 UNL     1      18.589  28.783  22.852  1.00  0.00     0.157 HD
ENDBRANCH  13  31
TORSDOF 5
ENDMDL