MODEL 5
REMARK VINA RESULT: -7.601698408      1.187      1.618
REMARK  7 active torsions:
REMARK  status: ('A' for Active; 'I' for Inactive)
REMARK    1  A    between atoms: C2_3  and  N2_4
REMARK    2  A    between atoms: C2_3  and  C10_24
REMARK    3  A    between atoms: N2_4  and  C3_6
REMARK    4  A    between atoms: C6_15  and  C7_16
REMARK    5  A    between atoms: C7_16  and  C8_17
REMARK    6  A    between atoms: C8_17  and  N6_18
REMARK    7  A    between atoms: C13_30  and  N8_31
ROOT
HETATM    1  N1  UNL     1      13.899  26.862  28.191  1.00  0.00    -0.195 NA
HETATM    2  C1  UNL     1      14.826  27.058  27.537  1.00  0.00     0.091 C
HETATM    3  C2  UNL     1      16.003  27.329  26.707  1.00  0.00     0.242 C
ENDROOT
BRANCH   3   4
HETATM    4  N2  UNL     1      16.896  28.246  27.290  1.00  0.00    -0.353 N
ATOM      5  H2  UNL     1      17.011  29.111  26.763  1.00  0.00     0.162 HD
BRANCH   4   6
HETATM    6  C3  UNL     1      17.577  28.190  28.343  1.00  0.00     0.124 A
HETATM    7  N3  UNL     1      17.295  28.784  29.517  1.00  0.00    -0.338 N
HETATM    8  C4  UNL     1      18.178  28.578  30.510  1.00  0.00     0.183 A
ATOM      9  H3  UNL     1      16.461  29.356  29.647  1.00  0.00     0.168 HD
HETATM   10  N4  UNL     1      19.279  27.861  30.443  1.00  0.00    -0.337 N
HETATM   11  C5  UNL     1      19.624  27.227  29.270  1.00  0.00     0.128 A
ATOM     12  H4  UNL     1      19.880  27.773  31.264  1.00  0.00     0.168 HD
HETATM   13  N5  UNL     1      20.681  26.483  29.051  1.00  0.00    -0.339 N
HETATM   14  C9  UNL     1      18.753  27.412  28.240  1.00  0.00     0.094 A
HETATM   15  C6  UNL     1      20.871  25.946  27.867  1.00  0.00     0.054 A
ATOM     16  H5  UNL     1      21.355  26.321  29.799  1.00  0.00     0.168 HD
HETATM   17  S1  UNL     1      19.512  26.493  26.992  1.00  0.00    -0.069 SA
BRANCH  15  18
HETATM   18  C7  UNL     1      21.983  25.073  27.381  1.00  0.00     0.092 C
BRANCH  18  19
HETATM   19  C8  UNL     1      23.189  25.975  27.124  1.00  0.00     0.236 C
BRANCH  19  20
HETATM   20  N6  UNL     1      23.065  26.515  25.805  1.00  0.00    -0.079 N
ATOM     21  H63 UNL     1      22.255  26.150  25.303  1.00  0.00     0.274 HD
ATOM     22  H62 UNL     1      22.793  27.498  25.805  1.00  0.00     0.274 HD
ATOM     23  H61 UNL     1      23.942  26.349  25.311  1.00  0.00     0.274 HD
ENDBRANCH  19  20
ENDBRANCH  18  19
ENDBRANCH  15  18
ENDBRANCH   4   6
ENDBRANCH   3   4
BRANCH   3  24
HETATM   24  C10 UNL     1      15.564  27.827  25.370  1.00  0.00     0.068 A
HETATM   25  C11 UNL     1      14.271  28.122  25.064  1.00  0.00     0.103 A
HETATM   26  C12 UNL     1      13.942  28.578  23.805  1.00  0.00     0.261 A
HETATM   27  O1  UNL     1      12.735  28.852  23.520  1.00  0.00    -0.268 OA
HETATM   28  N7  UNL     1      14.882  28.739  22.864  1.00  0.00    -0.156 N
HETATM   29  C13 UNL     1      16.146  28.453  23.161  1.00  0.00     0.679 A
ATOM     30  H7  UNL     1      14.632  29.077  21.935  1.00  0.00     0.187 HD
HETATM   31  N9  UNL     1      16.482  28.008  24.383  1.00  0.00    -0.193 N
ATOM     32  H9  UNL     1      17.461  27.798  24.577  1.00  0.00     0.184 HD
BRANCH  29  33
HETATM   33  N8  UNL     1      17.061  28.603  22.268  1.00  0.00    -0.234 N
ATOM     34  H82 UNL     1      17.012  29.396  21.630  1.00  0.00     0.174 HD
ATOM     35  H81 UNL     1      17.824  27.929  22.208  1.00  0.00     0.174 HD
ENDBRANCH  29  33
ENDBRANCH   3  24
TORSDOF 7
ENDMDL