MODEL 2
REMARK VINA RESULT: -7.839922559      2.898      6.486
REMARK  6 active torsions:
REMARK  status: ('A' for Active; 'I' for Inactive)
REMARK    1  A    between atoms: N1_2  and  C2_3
REMARK    2  A    between atoms: N1_2  and  C6_14
REMARK    3  A    between atoms: C4_7  and  N3_8
REMARK    4  A    between atoms: C7_17  and  N6_18
REMARK    5  A    between atoms: N6_18  and  C8_20
REMARK    6  A    between atoms: C12_27  and  N8_28
ROOT
HETATM    1  C6  UNL     1      35.963  14.588 -24.117  1.00  0.00     0.687 A
HETATM    2  N5  UNL     1      36.045  14.467 -22.779  1.00  0.00    -0.176 N
ATOM      3  H5  UNL     1      35.368  13.865 -22.310  1.00  0.00     0.186 HD
HETATM    4  C7  UNL     1      36.951  15.083 -22.033  1.00  0.00     0.120 A
HETATM    5  C11 UNL     1      37.875  15.904 -22.644  1.00  0.00     0.097 A
HETATM    6  C12 UNL     1      37.828  16.059 -24.019  1.00  0.00     0.122 A
HETATM    7  N10 UNL     1      36.876  15.395 -24.691  1.00  0.00    -0.176 N
ATOM      8  H10 UNL     1      36.841  15.508 -25.703  1.00  0.00     0.186 HD
ENDROOT
BRANCH   1   9
HETATM    9  N1  UNL     1      34.964  13.900 -24.838  1.00  0.00    -0.185 N
HETATM   10  C1  UNL     1      34.358  14.569 -26.004  1.00  0.00     0.175 C
BRANCH   9  11
HETATM   11  C2  UNL     1      34.475  12.610 -24.529  1.00  0.00     0.083 A
HETATM   12  C3  UNL     1      33.191  12.292 -24.879  1.00  0.00     0.137 A
HETATM   13  N2  UNL     1      32.658  11.088 -24.611  1.00  0.00    -0.200 N
HETATM   14  C4  UNL     1      33.386  10.135 -23.975  1.00  0.00     0.675 A
ATOM     15  H2  UNL     1      31.697  10.889 -24.888  1.00  0.00     0.183 HD
HETATM   16  N4  UNL     1      34.638  10.413 -23.620  1.00  0.00    -0.200 N
HETATM   17  C5  UNL     1      35.204  11.622 -23.879  1.00  0.00     0.137 A
ATOM     18  H4  UNL     1      35.189   9.700 -23.141  1.00  0.00     0.183 HD
BRANCH  14  19
HETATM   19  N3  UNL     1      32.830   8.964 -23.735  1.00  0.00    -0.234 N
ATOM     20  H32 UNL     1      32.301   8.776 -22.883  1.00  0.00     0.174 HD
ATOM     21  H31 UNL     1      32.935   8.219 -24.424  1.00  0.00     0.174 HD
ENDBRANCH  14  19
ENDBRANCH   9  11
ENDBRANCH   1   9
BRANCH   4  22
HETATM   22  N6  UNL     1      36.992  14.934 -20.754  1.00  0.00    -0.368 N
ATOM     23  H6  UNL     1      37.746  14.391 -20.334  1.00  0.00     0.161 HD
BRANCH  22  24
HETATM   24  C8  UNL     1      35.996  15.518 -19.918  1.00  0.00     0.134 C
HETATM   25  C9  UNL     1      36.258  16.998 -19.730  1.00  0.00     0.259 C
HETATM   26  N7  UNL     1      36.183  16.828 -18.307  1.00  0.00    -0.071 N
HETATM   27  C10 UNL     1      36.166  15.402 -18.441  1.00  0.00     0.259 C
ATOM     28  H72 UNL     1      36.887  17.265 -17.713  1.00  0.00     0.277 HD
ATOM     29  H71 UNL     1      35.437  17.291 -17.787  1.00  0.00     0.277 HD
ENDBRANCH  22  24
ENDBRANCH   4  22
BRANCH   6  30
HETATM   30  N8  UNL     1      38.784  16.905 -24.631  1.00  0.00    -0.364 N
HETATM   31  C13 UNL     1      39.318  16.648 -25.954  1.00  0.00     0.143 C
HETATM   32  C14 UNL     1      39.276  17.978 -26.723  1.00  0.00     0.133 C
HETATM   33  N9  UNL     1      40.092  18.969 -26.089  1.00  0.00    -0.418 N
HETATM   34  C15 UNL     1      40.428  18.698 -24.718  1.00  0.00     0.133 C
ATOM     35  H9  UNL     1      40.411  19.807 -26.575  1.00  0.00     0.153 HD
HETATM   36  C16 UNL     1      39.280  18.089 -23.959  1.00  0.00     0.143 C
ENDBRANCH   6  30
TORSDOF 6
ENDMDL