MODEL 3
REMARK VINA RESULT: -7.147394689      1.204      1.831
REMARK  8 active torsions:
REMARK  status: ('A' for Active; 'I' for Inactive)
REMARK    1  A    between atoms: C3_5  and  N2_6
REMARK    2  A    between atoms: N3_9  and  C4_10
REMARK    3  A    between atoms: C6_14  and  N5_15
REMARK    4  A    between atoms: N5_15  and  C7_17
REMARK    5  A    between atoms: C10_22  and  N7_23
REMARK    6  A    between atoms: N7_23  and  C11_25
REMARK    7  A    between atoms: C11_25  and  C12_26
REMARK    8  A    between atoms: C12_26  and  O1_27
ROOT
HETATM    1  C4  UNL     1      37.108  12.465 -23.772  1.00  0.00     0.191 A
HETATM    2  N4  UNL     1      37.190  13.364 -22.831  1.00  0.00    -0.329 N
ATOM      3  H4  UNL     1      37.003  13.091 -21.866  1.00  0.00     0.168 HD
HETATM    4  C5  UNL     1      37.503  14.599 -23.090  1.00  0.00     0.114 A
HETATM    5  C6  UNL     1      37.625  15.658 -22.174  1.00  0.00     0.147 A
HETATM    6  N6  UNL     1      37.957  16.876 -22.609  1.00  0.00    -0.175 N
ATOM      7  H6  UNL     1      38.038  17.622 -21.918  1.00  0.00     0.186 HD
HETATM    8  C10 UNL     1      38.196  17.188 -23.908  1.00  0.00     0.680 A
HETATM    9  N8  UNL     1      38.079  16.173 -24.781  1.00  0.00    -0.183 N
ATOM     10  H8  UNL     1      38.248  16.356 -25.770  1.00  0.00     0.185 HD
HETATM   11  C13 UNL     1      37.747  14.924 -24.403  1.00  0.00     0.124 A
HETATM   12  S1  UNL     1      37.503  13.407 -25.171  1.00  0.00    -0.031 SA
ENDROOT
BRANCH   1  13
HETATM   13  N3  UNL     1      36.786  11.069 -23.730  1.00  0.00    -0.062 N
HETATM   14  C3  UNL     1      35.556  10.575 -23.519  1.00  0.00     0.700 A
HETATM   15  N1  UNL     1      35.656   9.232 -23.551  1.00  0.00    -0.178 N
HETATM   16  C2  UNL     1      36.917   8.888 -23.776  1.00  0.00     0.109 A
ATOM     17  H1  UNL     1      34.881   8.581 -23.423  1.00  0.00     0.185 HD
HETATM   18  C1  UNL     1      37.463   7.521 -23.886  1.00  0.00     0.091 C
HETATM   19  N9  UNL     1      37.609  10.048 -23.885  1.00  0.00    -0.266 N
ATOM     20  H9  UNL     1      38.611  10.121 -24.060  1.00  0.00     0.189 HD
BRANCH  14  21
HETATM   21  N2  UNL     1      34.443  11.186 -23.318  1.00  0.00    -0.233 N
ATOM     22  H22 UNL     1      33.959  11.874 -23.895  1.00  0.00     0.174 HD
ATOM     23  H21 UNL     1      33.872  11.036 -22.486  1.00  0.00     0.174 HD
ENDBRANCH  14  21
ENDBRANCH   1  13
BRANCH   5  24
HETATM   24  N5  UNL     1      37.413  15.452 -20.898  1.00  0.00    -0.369 N
ATOM     25  H5  UNL     1      38.147  15.049 -20.315  1.00  0.00     0.161 HD
BRANCH  24  26
HETATM   26  C7  UNL     1      36.150  15.795 -20.330  1.00  0.00     0.083 A
HETATM   27  C8  UNL     1      35.970  16.952 -19.429  1.00  0.00     0.027 A
HETATM   28  C9  UNL     1      35.985  15.602 -18.808  1.00  0.00     0.027 A
ENDBRANCH  24  26
ENDBRANCH   5  24
BRANCH   8  29
HETATM   29  N7  UNL     1      38.507  18.374 -24.234  1.00  0.00    -0.224 N
ATOM     30  H7  UNL     1      37.783  19.093 -24.205  1.00  0.00     0.177 HD
BRANCH  29  31
HETATM   31  C11 UNL     1      39.833  18.753 -24.643  1.00  0.00     0.164 C
BRANCH  31  32
HETATM   32  C12 UNL     1      39.734  20.139 -25.260  1.00  0.00     0.184 C
BRANCH  32  33
HETATM   33  O1  UNL     1      40.016  21.127 -24.327  1.00  0.00    -0.399 OA
ATOM     34  H1  UNL     1      39.661  21.966 -24.595  1.00  0.00     0.209 HD
ENDBRANCH  32  33
ENDBRANCH  31  32
ENDBRANCH  29  31
ENDBRANCH   8  29
TORSDOF 8
ENDMDL