MODEL 1
REMARK VINA RESULT: -8.008022287      0.000      0.000
REMARK  5 active torsions:
REMARK  status: ('A' for Active; 'I' for Inactive)
REMARK    1  A    between atoms: C3_4  and  C4_5
REMARK       I    between atoms: C4_5  and  N2_7
REMARK    2  A    between atoms: N2_7  and  C5_9
REMARK    3  A    between atoms: C5_9  and  C6_10
REMARK    4  A    between atoms: C11_19  and  N5_20
REMARK    5  A    between atoms: C16_30  and  N9_31
ROOT
HETATM    1  N1  UNL     1      38.719  15.025 -26.392  1.00  0.00    -0.191 NA
HETATM    2  C1  UNL     1      38.223  15.232 -25.366  1.00  0.00     0.106 C
HETATM    3  C2  UNL     1      37.631  15.507 -24.090  1.00  0.00     0.121 A
HETATM    4  C3  UNL     1      36.312  15.270 -23.782  1.00  0.00     0.141 A
HETATM    5  N4  UNL     1      35.838  15.569 -22.537  1.00  0.00    -0.184 N
ATOM      6  H4  UNL     1      34.856  15.385 -22.332  1.00  0.00     0.184 HD
HETATM    7  C11 UNL     1      36.606  16.092 -21.574  1.00  0.00     0.689 A
HETATM    8  N8  UNL     1      37.913  16.332 -21.865  1.00  0.00    -0.175 N
ATOM      9  H8  UNL     1      38.522  16.731 -21.150  1.00  0.00     0.186 HD
HETATM   10  C16 UNL     1      38.414  16.052 -23.077  1.00  0.00     0.138 A
ENDROOT
BRANCH   4  11
HETATM   11  C4  UNL     1      35.433  14.691 -24.786  1.00  0.00     0.270 C
HETATM   12  O1  UNL     1      34.730  15.452 -25.512  1.00  0.00    -0.266 OA
HETATM   13  N2  UNL     1      35.333  13.279 -24.978  1.00  0.00    -0.355 N
ATOM     14  H2  UNL     1      35.885  12.640 -24.407  1.00  0.00     0.162 HD
BRANCH  13  15
HETATM   15  C5  UNL     1      34.449  12.777 -25.984  1.00  0.00     0.129 C
BRANCH  15  16
HETATM   16  C6  UNL     1      33.746  11.526 -25.616  1.00  0.00     0.021 C
HETATM   17  C7  UNL     1      34.306  10.264 -26.191  1.00  0.00     0.009 C
HETATM   18  C8  UNL     1      33.223   9.204 -26.042  1.00  0.00     0.020 C
HETATM   19  C9  UNL     1      32.602   9.148 -24.693  1.00  0.00     0.113 C
HETATM   20  N3  UNL     1      32.491  10.370 -23.976  1.00  0.00    -0.421 N
HETATM   21  C10 UNL     1      33.584  11.296 -24.129  1.00  0.00     0.120 C
ATOM     22  H3  UNL     1      31.685  10.580 -23.387  1.00  0.00     0.153 HD
ENDBRANCH  15  16
ENDBRANCH  13  15
ENDBRANCH   4  11
BRANCH  10  23
HETATM   23  N9  UNL     1      39.661  16.279 -23.349  1.00  0.00    -0.384 N
ATOM     24  H92 UNL     1      40.260  15.539 -23.715  1.00  0.00     0.157 HD
ATOM     25  H91 UNL     1      40.010  17.223 -23.184  1.00  0.00     0.157 HD
ENDBRANCH  10  23
BRANCH   7  26
HETATM   26  N5  UNL     1      36.140  16.388 -20.270  1.00  0.00    -0.155 N
HETATM   27  C12 UNL     1      35.474  15.390 -19.438  1.00  0.00     0.152 C
HETATM   28  C13 UNL     1      36.234  15.405 -18.113  1.00  0.00     0.041 C
HETATM   29  C14 UNL     1      36.178  16.788 -17.491  1.00  0.00     0.124 C
HETATM   30  N6  UNL     1      36.313  17.855 -18.422  1.00  0.00    -0.364 N
HETATM   31  C15 UNL     1      36.298  17.689 -19.722  1.00  0.00     0.205 C
ATOM     32  H6  UNL     1      36.427  18.801 -18.058  1.00  0.00     0.162 HD
HETATM   33  N7  UNL     1      36.431  18.779 -20.611  1.00  0.00    -0.063 NA
ENDBRANCH   7  26
TORSDOF 5
ENDMDL