MODEL 2
REMARK VINA RESULT: -7.425578423      0.616      1.168
REMARK  7 active torsions:
REMARK  status: ('A' for Active; 'I' for Inactive)
REMARK    1  A    between atoms: C2_3  and  C3_4
REMARK    2  A    between atoms: C5_8  and  N3_9
REMARK    3  A    between atoms: C7_17  and  N6_18
REMARK    4  A    between atoms: N6_18  and  C8_20
REMARK    5  A    between atoms: C8_20  and  C9_21
REMARK    6  A    between atoms: C9_21  and  N7_22
REMARK    7  A    between atoms: C11_29  and  N9_30
ROOT
HETATM    1  C1  UNL     1      35.955  13.778 -26.201  1.00  0.00     0.159 C
HETATM    2  N1  UNL     1      36.153  14.047 -24.799  1.00  0.00    -0.321 N
HETATM    3  C2  UNL     1      35.586  13.372 -23.820  1.00  0.00     0.123 A
HETATM    4  N5  UNL     1      35.926  13.688 -22.506  1.00  0.00    -0.326 N
ATOM      5  H5  UNL     1      35.486  13.165 -21.749  1.00  0.00     0.169 HD
HETATM    6  C7  UNL     1      36.793  14.636 -22.200  1.00  0.00     0.134 A
HETATM    7  C10 UNL     1      37.374  15.332 -23.246  1.00  0.00     0.137 A
HETATM    8  N8  UNL     1      38.276  16.335 -23.256  1.00  0.00    -0.184 N
ATOM      9  H8  UNL     1      38.701  16.769 -22.437  1.00  0.00     0.184 HD
HETATM   10  C11 UNL     1      38.513  16.659 -24.529  1.00  0.00     0.682 A
HETATM   11  N10 UNL     1      37.773  15.876 -25.354  1.00  0.00    -0.174 N
ATOM     12  H10 UNL     1      37.754  15.905 -26.373  1.00  0.00     0.186 HD
HETATM   13  C16 UNL     1      37.073  15.060 -24.557  1.00  0.00     0.155 A
ENDROOT
BRANCH   3  14
HETATM   14  C3  UNL     1      34.647  12.276 -24.001  1.00  0.00     0.040 A
HETATM   15  C4  UNL     1      33.423  12.277 -24.568  1.00  0.00     0.122 A
HETATM   16  N2  UNL     1      32.652  11.194 -24.757  1.00  0.00    -0.201 N
HETATM   17  C5  UNL     1      33.106  10.004 -24.359  1.00  0.00     0.675 A
ATOM     18  H2  UNL     1      31.735  11.280 -25.197  1.00  0.00     0.183 HD
HETATM   19  N4  UNL     1      34.334   9.926 -23.775  1.00  0.00    -0.201 N
HETATM   20  C6  UNL     1      35.099  10.991 -23.588  1.00  0.00     0.122 A
ATOM     21  H4  UNL     1      34.676   9.015 -23.469  1.00  0.00     0.183 HD
BRANCH  17  22
HETATM   22  N3  UNL     1      32.366   8.955 -24.537  1.00  0.00    -0.234 N
ATOM     23  H32 UNL     1      31.792   8.837 -25.371  1.00  0.00     0.174 HD
ATOM     24  H31 UNL     1      32.360   8.226 -23.824  1.00  0.00     0.174 HD
ENDBRANCH  17  22
ENDBRANCH   3  14
BRANCH   6  25
HETATM   25  N6  UNL     1      37.141  14.974 -21.019  1.00  0.00    -0.373 N
ATOM     26  H6  UNL     1      38.146  14.991 -20.842  1.00  0.00     0.161 HD
BRANCH  25  27
HETATM   27  C8  UNL     1      36.314  15.328 -19.916  1.00  0.00     0.148 C
BRANCH  27  28
HETATM   28  C9  UNL     1      36.160  16.857 -19.973  1.00  0.00     0.249 C
BRANCH  28  29
HETATM   29  N7  UNL     1      37.458  17.506 -19.904  1.00  0.00    -0.078 N
ATOM     30  H73 UNL     1      38.079  17.043 -19.241  1.00  0.00     0.274 HD
ATOM     31  H72 UNL     1      38.003  17.356 -20.754  1.00  0.00     0.274 HD
ATOM     32  H71 UNL     1      37.353  18.498 -19.694  1.00  0.00     0.274 HD
ENDBRANCH  28  29
ENDBRANCH  27  28
ENDBRANCH  25  27
ENDBRANCH   6  25
BRANCH  10  33
HETATM   33  N9  UNL     1      39.395  17.653 -24.980  1.00  0.00    -0.218 N
HETATM   34  C12 UNL     1      40.796  17.508 -25.281  1.00  0.00     0.141 C
HETATM   35  C13 UNL     1      40.883  18.353 -26.560  1.00  0.00     0.022 C
HETATM   36  C14 UNL     1      40.045  19.551 -26.219  1.00  0.00     0.022 C
HETATM   37  C15 UNL     1      39.027  19.039 -25.232  1.00  0.00     0.141 C
ENDBRANCH  10  33
TORSDOF 7
ENDMDL