MODEL 5
REMARK VINA RESULT: -7.718116942      1.985      4.087
REMARK  5 active torsions:
REMARK  status: ('A' for Active; 'I' for Inactive)
REMARK    1  A    between atoms: O1_2  and  C2_3
REMARK    2  A    between atoms: C6_9  and  N2_10
REMARK    3  A    between atoms: C11_16  and  C12_17
REMARK    4  A    between atoms: C12_17  and  N3_18
REMARK    5  A    between atoms: N3_18  and  C13_20
ROOT
HETATM    1  C2  UNL     1      37.147  10.267 -23.545  1.00  0.00     0.113 A
HETATM    2  C3  UNL     1      38.380  10.851 -23.245  1.00  0.00     0.058 A
HETATM    3  C4  UNL     1      38.546  12.212 -23.386  1.00  0.00     0.039 A
HETATM    4  C5  UNL     1      37.447  12.924 -23.827  1.00  0.00     0.076 A
HETATM    5  N1  UNL     1      36.274  12.334 -24.107  1.00  0.00    -0.338 N
ATOM      6  H1  UNL     1      35.497  12.912 -24.428  1.00  0.00     0.167 HD
HETATM    7  C6  UNL     1      36.083  10.992 -23.977  1.00  0.00     0.138 A
HETATM    8  C11 UNL     1      37.871  14.318 -23.891  1.00  0.00     0.077 A
HETATM    9  N7  UNL     1      39.225  14.436 -23.488  1.00  0.00    -0.339 N
ATOM     10  H7  UNL     1      39.775  15.294 -23.438  1.00  0.00     0.167 HD
HETATM   11  C16 UNL     1      39.662  13.124 -23.168  1.00  0.00     0.112 A
HETATM   12  N8  UNL     1      40.851  12.844 -22.759  1.00  0.00    -0.385 N
ATOM     13  H81 UNL     1      41.632  13.482 -22.607  1.00  0.00     0.157 HD
ATOM     14  H82 UNL     1      41.165  11.902 -22.528  1.00  0.00     0.157 HD
ENDROOT
BRANCH   8  15
HETATM   15  C12 UNL     1      37.119  15.330 -24.267  1.00  0.00     0.121 C
BRANCH  15  16
HETATM   16  N3  UNL     1      37.412  16.662 -23.876  1.00  0.00    -0.347 N
ATOM     17  H3  UNL     1      37.893  17.294 -24.515  1.00  0.00     0.167 HD
BRANCH  16  18
HETATM   18  C13 UNL     1      37.028  17.104 -22.583  1.00  0.00     0.148 A
HETATM   19  N4  UNL     1      37.810  17.480 -21.562  1.00  0.00    -0.336 N
HETATM   20  C14 UNL     1      37.050  17.828 -20.510  1.00  0.00     0.183 A
ATOM     21  H4  UNL     1      38.830  17.498 -21.580  1.00  0.00     0.168 HD
HETATM   22  N5  UNL     1      35.779  17.664 -20.890  1.00  0.00    -0.338 N
HETATM   23  C15 UNL     1      35.729  17.221 -22.158  1.00  0.00     0.161 A
ATOM     24  H5  UNL     1      34.965  17.849 -20.304  1.00  0.00     0.168 HD
HETATM   25  N6  UNL     1      34.521  16.949 -22.853  1.00  0.00    -0.079 NA
ENDBRANCH  16  18
ENDBRANCH  15  16
ENDBRANCH   8  15
BRANCH   7  26
HETATM   26  N2  UNL     1      34.816  10.498 -24.280  1.00  0.00    -0.361 N
HETATM   27  C7  UNL     1      33.609  11.048 -23.592  1.00  0.00     0.151 C
HETATM   28  C8  UNL     1      32.530  11.045 -24.656  1.00  0.00     0.187 C
HETATM   29  O2  UNL     1      33.049  11.221 -25.930  1.00  0.00    -0.388 OA
HETATM   30  C9  UNL     1      33.829  10.194 -26.398  1.00  0.00     0.187 C
HETATM   31  C10 UNL     1      34.459   9.457 -25.216  1.00  0.00     0.151 C
ENDBRANCH   7  26
BRANCH   1  32
HETATM   32  O1  UNL     1      37.045   8.922 -23.391  1.00  0.00    -0.352 OA
HETATM   33  C1  UNL     1      37.727   8.023 -24.231  1.00  0.00     0.210 C
ENDBRANCH   1  32
TORSDOF 5
ENDMDL