MODEL 1
REMARK VINA RESULT: -6.954022810      0.000      0.000
REMARK  7 active torsions:
REMARK  status: ('A' for Active; 'I' for Inactive)
REMARK    1  A    between atoms: C2_2  and  S1_3
REMARK    2  A    between atoms: S1_3  and  C3_4
REMARK    3  A    between atoms: C3_4  and  C4_5
REMARK    4  A    between atoms: C7_9  and  N1_10
REMARK    5  A    between atoms: C8_11  and  N2_12
REMARK    6  A    between atoms: C11_23  and  N6_24
REMARK    7  A    between atoms: C14_30  and  N8_31
ROOT
HETATM    1  N1  UNL     1      36.277  14.470 -23.327  1.00  0.00    -0.136 N
HETATM    2  C8  UNL     1      37.445  14.181 -22.668  1.00  0.00     0.682 A
HETATM    3  N3  UNL     1      37.832  15.191 -21.894  1.00  0.00    -0.174 N
ATOM      4  H3  UNL     1      38.668  15.211 -21.309  1.00  0.00     0.186 HD
HETATM    5  C9  UNL     1      36.947  16.161 -22.014  1.00  0.00     0.153 A
HETATM    6  N4  UNL     1      36.889  17.384 -21.441  1.00  0.00    -0.336 N
ATOM      7  H4  UNL     1      37.611  17.690 -20.790  1.00  0.00     0.168 HD
HETATM    8  C10 UNL     1      35.854  18.184 -21.752  1.00  0.00     0.183 A
HETATM    9  N5  UNL     1      34.903  17.791 -22.604  1.00  0.00    -0.337 N
ATOM     10  H5  UNL     1      34.132  18.423 -22.819  1.00  0.00     0.168 HD
HETATM   11  C11 UNL     1      34.947  16.558 -23.193  1.00  0.00     0.131 A
HETATM   12  C12 UNL     1      35.992  15.715 -22.897  1.00  0.00     0.142 A
ENDROOT
BRANCH   1  13
HETATM   13  C7  UNL     1      35.624  13.601 -24.211  1.00  0.00     0.417 C
HETATM   14  C6  UNL     1      35.130  12.309 -23.676  1.00  0.00     0.193 C
HETATM   15  C4  UNL     1      34.612  11.630 -24.891  1.00  0.00     0.086 C
HETATM   16  O1  UNL     1      35.177  11.975 -22.516  1.00  0.00    -0.293 OA
HETATM   17  C5  UNL     1      33.213  12.211 -25.120  1.00  0.00     0.028 C
HETATM   18  C14 UNL     1      35.479  12.161 -25.979  1.00  0.00     0.436 C
HETATM   19  N7  UNL     1      36.193  13.307 -25.488  1.00  0.00     0.147 N
HETATM   20  C13 UNL     1      36.204  14.412 -26.399  1.00  0.00     0.316 C
BRANCH  15  21
HETATM   21  C3  UNL     1      34.568  10.144 -24.754  1.00  0.00     0.095 C
BRANCH  21  22
HETATM   22  S1  UNL     1      33.201   9.457 -25.665  1.00  0.00    -0.168 SA
BRANCH  22  23
HETATM   23  C2  UNL     1      33.651   8.798 -27.274  1.00  0.00     0.069 C
HETATM   24  C1  UNL     1      33.600   7.302 -27.346  1.00  0.00     0.016 C
ENDBRANCH  22  23
ENDBRANCH  21  22
ENDBRANCH  15  21
BRANCH  18  25
HETATM   25  N8  UNL     1      36.351  11.153 -26.535  1.00  0.00    -0.046 N
ATOM     26  H83 UNL     1      37.275  11.189 -26.104  1.00  0.00     0.276 HD
ATOM     27  H82 UNL     1      36.068  10.219 -26.238  1.00  0.00     0.276 HD
ATOM     28  H81 UNL     1      36.418  11.210 -27.551  1.00  0.00     0.276 HD
ENDBRANCH  18  25
ENDBRANCH   1  13
BRANCH   2  29
HETATM   29  N2  UNL     1      38.135  13.092 -22.743  1.00  0.00    -0.234 N
ATOM     30  H22 UNL     1      37.737  12.194 -22.467  1.00  0.00     0.174 HD
ATOM     31  H21 UNL     1      39.099  12.993 -23.063  1.00  0.00     0.174 HD
ENDBRANCH   2  29
BRANCH  11  32
HETATM   32  N6  UNL     1      34.034  16.219 -23.996  1.00  0.00    -0.383 N
ATOM     33  H62 UNL     1      34.221  15.597 -24.782  1.00  0.00     0.157 HD
ATOM     34  H61 UNL     1      33.087  16.573 -23.860  1.00  0.00     0.157 HD
ENDBRANCH  11  32
TORSDOF 7
ENDMDL