MODEL 2
REMARK VINA RESULT: -7.878103736      3.085      6.679
REMARK  6 active torsions:
REMARK  status: ('A' for Active; 'I' for Inactive)
REMARK    1  A    between atoms: O1_2  and  C2_3
REMARK    2  A    between atoms: C7_12  and  C8_13
REMARK    3  A    between atoms: C8_13  and  N3_14
REMARK    4  A    between atoms: N3_14  and  C9_16
REMARK    5  A    between atoms: C10_19  and  C11_20
REMARK    6  A    between atoms: C14_25  and  N6_26
ROOT
HETATM    1  N3  UNL     1      37.415  13.755 -23.199  1.00  0.00    -0.221 N
ATOM      2  H3  UNL     1      38.073  13.361 -22.527  1.00  0.00     0.178 HD
ENDROOT
BRANCH   1   3
HETATM    3  C8  UNL     1      37.512  13.293 -24.555  1.00  0.00     0.180 C
BRANCH   3   4
HETATM    4  C7  UNL     1      37.515  11.789 -24.535  1.00  0.00     0.005 A
HETATM    5  C6  UNL     1      38.637  11.035 -24.710  1.00  0.00     0.104 A
HETATM    6  N2  UNL     1      38.560   9.682 -24.677  1.00  0.00    -0.326 N
HETATM    7  C4  UNL     1      37.399   9.038 -24.473  1.00  0.00     0.276 A
HETATM    8  C5  UNL     1      39.788   8.913 -24.870  1.00  0.00     0.159 C
HETATM    9  C3  UNL     1      36.239   9.760 -24.292  1.00  0.00     0.132 A
HETATM   10  O2  UNL     1      37.407   7.774 -24.456  1.00  0.00    -0.265 OA
HETATM   11  N1  UNL     1      34.953   9.362 -24.072  1.00  0.00    -0.316 N
HETATM   12  C15 UNL     1      36.307  11.133 -24.324  1.00  0.00     0.077 A
HETATM   13  C2  UNL     1      34.226  10.491 -23.967  1.00  0.00     0.224 A
ATOM     14  H1  UNL     1      34.611   8.404 -24.000  1.00  0.00     0.169 HD
HETATM   15  N8  UNL     1      35.042  11.563 -24.120  1.00  0.00    -0.319 N
ATOM     16  H8  UNL     1      34.749  12.540 -24.086  1.00  0.00     0.169 HD
BRANCH  13  17
HETATM   17  O1  UNL     1      32.848  10.619 -23.739  1.00  0.00    -0.327 OA
HETATM   18  C1  UNL     1      32.027  10.933 -24.863  1.00  0.00     0.213 C
ENDBRANCH  13  17
ENDBRANCH   3   4
ENDBRANCH   1   3
BRANCH   1  19
HETATM   19  C9  UNL     1      36.581  14.614 -22.759  1.00  0.00     0.694 A
HETATM   20  N4  UNL     1      36.625  14.984 -21.448  1.00  0.00    -0.179 N
HETATM   21  C10 UNL     1      35.753  15.887 -20.989  1.00  0.00     0.117 A
ATOM     22  H4  UNL     1      37.318  14.576 -20.822  1.00  0.00     0.185 HD
HETATM   23  N5  UNL     1      34.851  16.409 -21.834  1.00  0.00    -0.179 N
HETATM   24  C14 UNL     1      34.807  16.046 -23.126  1.00  0.00     0.691 A
ATOM     25  H5  UNL     1      34.183  17.097 -21.487  1.00  0.00     0.185 HD
HETATM   26  N7  UNL     1      35.682  15.135 -23.605  1.00  0.00    -0.023 N
ATOM     27  H7  UNL     1      35.659  14.851 -24.585  1.00  0.00     0.203 HD
BRANCH  21  28
HETATM   28  C11 UNL     1      35.735  16.340 -19.576  1.00  0.00     0.046 C
HETATM   29  C12 UNL     1      36.478  15.374 -18.674  1.00  0.00     0.017 C
HETATM   30  C13 UNL     1      36.435  17.701 -19.557  1.00  0.00     0.017 C
ENDBRANCH  21  28
BRANCH  24  31
HETATM   31  N6  UNL     1      33.944  16.543 -23.942  1.00  0.00    -0.234 N
ATOM     32  H62 UNL     1      33.274  17.219 -23.577  1.00  0.00     0.174 HD
ATOM     33  H61 UNL     1      33.920  16.280 -24.927  1.00  0.00     0.174 HD
ENDBRANCH  24  31
ENDBRANCH   1  19
TORSDOF 6
ENDMDL