MODEL 5
REMARK VINA RESULT: -7.237761117      1.934      4.252
REMARK  6 active torsions:
REMARK  status: ('A' for Active; 'I' for Inactive)
REMARK    1  A    between atoms: C2_2  and  N1_4
REMARK    2  A    between atoms: N1_4  and  C4_6
REMARK    3  A    between atoms: C6_13  and  N4_14
REMARK    4  A    between atoms: N5_17  and  C9_18
REMARK    5  A    between atoms: C9_18  and  C10_19
REMARK    6  A    between atoms: C10_19  and  O1_20
ROOT
HETATM    1  C4  UNL     1      36.576  14.878 -22.328  1.00  0.00     0.134 C
HETATM    2  N2  UNL     1      35.866  13.754 -22.257  1.00  0.00    -0.324 N
ATOM      3  H2  UNL     1      35.201  13.720 -21.485  1.00  0.00     0.169 HD
HETATM    4  C5  UNL     1      35.879  12.629 -23.050  1.00  0.00     0.145 C
HETATM    5  N3  UNL     1      35.227  11.631 -22.625  1.00  0.00    -0.382 N
ATOM      6  H31 UNL     1      35.236  10.798 -23.213  1.00  0.00     0.157 HD
ATOM      7  H32 UNL     1      34.747  11.767 -21.734  1.00  0.00     0.157 HD
HETATM    8  C6  UNL     1      36.521  12.446 -24.243  1.00  0.00     0.149 C
HETATM    9  N6  UNL     1      37.661  13.080 -24.631  1.00  0.00    -0.324 N
ATOM     10  H6  UNL     1      38.264  12.556 -25.266  1.00  0.00     0.169 HD
HETATM   11  C13 UNL     1      38.105  14.319 -24.284  1.00  0.00     0.140 A
HETATM   12  N7  UNL     1      39.116  14.971 -24.906  1.00  0.00    -0.318 N
ATOM     13  H7  UNL     1      39.665  14.632 -25.697  1.00  0.00     0.169 HD
HETATM   14  C14 UNL     1      39.255  16.146 -24.283  1.00  0.00     0.190 A
HETATM   15  C15 UNL     1      40.195  17.217 -24.553  1.00  0.00     0.137 C
HETATM   16  N8  UNL     1      40.969  18.071 -24.759  1.00  0.00    -0.188 NA
HETATM   17  N9  UNL     1      38.353  16.227 -23.295  1.00  0.00    -0.327 N
ATOM     18  H9  UNL     1      38.242  17.021 -22.663  1.00  0.00     0.168 HD
HETATM   19  C16 UNL     1      37.609  15.092 -23.265  1.00  0.00     0.123 A
ENDROOT
BRANCH   1  20
HETATM   20  N1  UNL     1      36.417  15.849 -21.580  1.00  0.00    -0.370 N
ATOM     21  H1  UNL     1      36.765  16.666 -22.082  1.00  0.00     0.161 HD
BRANCH  20  22
HETATM   22  C2  UNL     1      35.974  16.291 -20.368  1.00  0.00     0.075 C
HETATM   23  C1  UNL     1      36.350  15.420 -19.172  1.00  0.00     0.031 C
HETATM   24  C3  UNL     1      36.210  17.721 -19.962  1.00  0.00     0.031 C
ENDBRANCH  20  22
ENDBRANCH   1  20
BRANCH   8  25
HETATM   25  N4  UNL     1      35.963  11.537 -25.169  1.00  0.00    -0.361 N
HETATM   26  C7  UNL     1      34.664  11.844 -25.779  1.00  0.00     0.154 C
HETATM   27  C8  UNL     1      33.778  10.709 -26.013  1.00  0.00     0.292 C
HETATM   28  N5  UNL     1      34.326   9.400 -26.172  1.00  0.00     0.093 N
HETATM   29  C11 UNL     1      35.563   9.190 -25.493  1.00  0.00     0.292 C
HETATM   30  C12 UNL     1      36.527  10.311 -25.624  1.00  0.00     0.154 C
BRANCH  28  31
HETATM   31  C9  UNL     1      34.264   8.930 -27.532  1.00  0.00     0.298 C
BRANCH  31  32
HETATM   32  C10 UNL     1      33.647   7.563 -27.586  1.00  0.00     0.194 C
BRANCH  32  33
HETATM   33  O1  UNL     1      32.519   7.502 -26.745  1.00  0.00    -0.399 OA
ATOM     34  H1  UNL     1      32.319   6.600 -26.525  1.00  0.00     0.209 HD
ENDBRANCH  32  33
ENDBRANCH  31  32
ENDBRANCH  28  31
ENDBRANCH   8  25
TORSDOF 6
ENDMDL