MODEL 2
REMARK VINA RESULT: -8.154209868      2.166      7.465
REMARK  5 active torsions:
REMARK  status: ('A' for Active; 'I' for Inactive)
REMARK    1  A    between atoms: C3_5  and  N2_6
REMARK    2  A    between atoms: C5_13  and  C6_14
REMARK    3  A    between atoms: C6_14  and  N4_15
REMARK    4  A    between atoms: N4_15  and  C7_17
REMARK    5  A    between atoms: C7_17  and  N5_18
ROOT
HETATM    1  N4  UNL     1      36.132  15.272 -22.910  1.00  0.00    -0.381 N
ATOM      2  H4  UNL     1      37.110  15.038 -22.738  1.00  0.00     0.160 HD
ENDROOT
BRANCH   1   3
HETATM    3  C6  UNL     1      35.315  15.651 -21.811  1.00  0.00     0.166 C
BRANCH   3   4
HETATM    4  C5  UNL     1      35.782  16.694 -20.913  1.00  0.00     0.051 A
HETATM    5  C2  UNL     1      36.113  16.391 -19.586  1.00  0.00     0.036 A
HETATM    6  C1  UNL     1      35.815  15.017 -19.063  1.00  0.00     0.069 C
HETATM    7  N1  UNL     1      36.542  17.391 -18.854  1.00  0.00    -0.195 N
HETATM    8  C3  UNL     1      36.699  18.633 -19.181  1.00  0.00     0.678 A
ATOM      9  H1  UNL     1      36.786  17.157 -17.892  1.00  0.00     0.184 HD
HETATM   10  N3  UNL     1      36.377  18.996 -20.499  1.00  0.00    -0.156 N
HETATM   11  C4  UNL     1      35.917  18.021 -21.343  1.00  0.00     0.269 A
ATOM     12  H3  UNL     1      36.483  19.958 -20.818  1.00  0.00     0.187 HD
HETATM   13  O1  UNL     1      35.630  18.432 -22.497  1.00  0.00    -0.267 OA
BRANCH   8  14
HETATM   14  N2  UNL     1      37.165  19.533 -18.455  1.00  0.00    -0.234 N
ATOM     15  H22 UNL     1      36.502  20.014 -17.847  1.00  0.00     0.174 HD
ATOM     16  H21 UNL     1      38.130  19.862 -18.447  1.00  0.00     0.174 HD
ENDBRANCH   8  14
ENDBRANCH   3   4
ENDBRANCH   1   3
BRANCH   1  17
HETATM   17  C7  UNL     1      35.645  15.208 -24.210  1.00  0.00     0.195 C
BRANCH  17  18
HETATM   18  N5  UNL     1      34.834  14.007 -24.520  1.00  0.00    -0.243 N
HETATM   19  S1  UNL     1      33.332  13.585 -24.887  1.00  0.00     0.001 SA
HETATM   20  C8  UNL     1      33.418  11.885 -24.832  1.00  0.00     0.083 A
HETATM   21  C9  UNL     1      34.752  11.713 -24.515  1.00  0.00     0.063 A
HETATM   22  C14 UNL     1      32.526  10.700 -24.911  1.00  0.00     0.194 C
HETATM   23  C10 UNL     1      35.476  12.809 -24.348  1.00  0.00     0.268 A
HETATM   24  C11 UNL     1      35.194  10.253 -24.558  1.00  0.00     0.222 C
HETATM   25  O2  UNL     1      36.738  12.773 -24.038  1.00  0.00    -0.266 OA
HETATM   26  C12 UNL     1      35.294   9.810 -26.029  1.00  0.00     0.045 C
HETATM   27  N6  UNL     1      34.285   9.472 -23.822  1.00  0.00    -0.060 N
HETATM   28  C13 UNL     1      32.983   9.355 -24.426  1.00  0.00     0.317 C
ATOM     29  H62 UNL     1      34.677   8.549 -23.636  1.00  0.00     0.278 HD
ATOM     30  H61 UNL     1      34.205   9.823 -22.868  1.00  0.00     0.278 HD
HETATM   31  O3  UNL     1      31.401  10.924 -25.380  1.00  0.00    -0.290 OA
ENDBRANCH  17  18
ENDBRANCH   1  17
TORSDOF 5
ENDMDL