MODEL 1
REMARK VINA RESULT: -7.933059330      0.000      0.000
REMARK  6 active torsions:
REMARK  status: ('A' for Active; 'I' for Inactive)
REMARK    1  A    between atoms: C2_2  and  C3_3
REMARK    2  A    between atoms: C3_3  and  N1_4
REMARK    3  A    between atoms: C5_9  and  C6_10
REMARK    4  A    between atoms: C7_11  and  O1_12
REMARK    5  A    between atoms: C9_15  and  N3_16
REMARK    6  A    between atoms: C15_28  and  N6_29
ROOT
HETATM    1  N1  UNL     1      37.121  15.499 -20.084  1.00  0.00    -0.222 N
ATOM      2  H1  UNL     1      38.074  15.454 -19.724  1.00  0.00     0.178 HD
HETATM    3  C4  UNL     1      36.960  15.909 -21.285  1.00  0.00     0.694 A
HETATM    4  N2  UNL     1      38.094  16.256 -21.987  1.00  0.00    -0.175 N
ATOM      5  H2  UNL     1      39.007  16.178 -21.538  1.00  0.00     0.186 HD
HETATM    6  C5  UNL     1      38.012  16.692 -23.245  1.00  0.00     0.155 A
HETATM    7  N5  UNL     1      36.744  16.755 -23.738  1.00  0.00    -0.175 N
ATOM      8  H5  UNL     1      36.639  17.084 -24.697  1.00  0.00     0.186 HD
HETATM    9  C15 UNL     1      35.640  16.433 -23.096  1.00  0.00     0.692 A
HETATM   10  N7  UNL     1      35.739  15.994 -21.829  1.00  0.00    -0.023 N
ATOM     11  H7  UNL     1      34.908  15.733 -21.297  1.00  0.00     0.203 HD
ENDROOT
BRANCH   6  12
HETATM   12  C6  UNL     1      39.158  17.009 -24.107  1.00  0.00     0.110 A
HETATM   13  C7  UNL     1      39.265  18.214 -24.786  1.00  0.00     0.088 A
HETATM   14  C8  UNL     1      40.349  18.455 -25.672  1.00  0.00     0.086 A
HETATM   15  C9  UNL     1      41.309  17.524 -25.879  1.00  0.00     0.108 A
HETATM   16  N4  UNL     1      41.196  16.367 -25.219  1.00  0.00    -0.309 N
HETATM   17  C14 UNL     1      40.167  16.103 -24.362  1.00  0.00     0.263 A
ATOM     18  H4  UNL     1      41.909  15.651 -25.361  1.00  0.00     0.170 HD
HETATM   19  O3  UNL     1      40.175  14.979 -23.806  1.00  0.00    -0.267 OA
BRANCH  13  20
HETATM   20  O1  UNL     1      38.361  19.215 -24.643  1.00  0.00    -0.359 OA
ATOM     21  H1  UNL     1      38.516  20.094 -24.968  1.00  0.00     0.217 HD
ENDBRANCH  13  20
BRANCH  15  22
HETATM   22  N3  UNL     1      42.421  17.717 -26.758  1.00  0.00    -0.363 N
HETATM   23  C10 UNL     1      43.725  17.216 -26.452  1.00  0.00     0.150 C
HETATM   24  C11 UNL     1      44.441  16.817 -27.727  1.00  0.00     0.187 C
HETATM   25  O2  UNL     1      44.490  17.800 -28.677  1.00  0.00    -0.388 OA
HETATM   26  C12 UNL     1      43.633  18.855 -28.482  1.00  0.00     0.187 C
HETATM   27  C13 UNL     1      42.256  18.441 -28.006  1.00  0.00     0.150 C
ENDBRANCH  15  22
ENDBRANCH   6  12
BRANCH   9  28
HETATM   28  N6  UNL     1      34.487  16.546 -23.701  1.00  0.00    -0.234 N
ATOM     29  H62 UNL     1      34.211  15.923 -24.459  1.00  0.00     0.174 HD
ATOM     30  H61 UNL     1      33.839  17.279 -23.412  1.00  0.00     0.174 HD
ENDBRANCH   9  28
BRANCH   1  31
HETATM   31  C3  UNL     1      36.065  15.100 -19.212  1.00  0.00     0.164 C
BRANCH  31  32
HETATM   32  C2  UNL     1      35.880  16.037 -18.062  1.00  0.00    -0.017 C
HETATM   33  C1  UNL     1      35.904  15.601 -16.812  1.00  0.00     0.008 C
ENDBRANCH  31  32
ENDBRANCH   1  31
TORSDOF 6
ENDMDL