MODEL 2
REMARK VINA RESULT: -5.760426889      1.602      4.986
REMARK  3 active torsions:
REMARK  status: ('A' for Active; 'I' for Inactive)
REMARK    1  A    between atoms: N1_1  and  C1_4
REMARK    2  A    between atoms: N4_12  and  C5_14
REMARK    3  A    between atoms: N6_21  and  O3_22
ROOT
HETATM    1  C1  UNL     1     -30.619 -23.771 -56.076  1.00  0.00     0.704 A
HETATM    2  N2  UNL     1     -31.494 -24.794 -56.114  1.00  0.00    -0.198 N
ATOM      3  H2  UNL     1     -31.207 -25.658 -56.575  1.00  0.00     0.183 HD
HETATM    4  C2  UNL     1     -32.713 -24.737 -55.584  1.00  0.00     0.139 A
HETATM    5  C3  UNL     1     -33.128 -23.582 -54.956  1.00  0.00     0.097 A
HETATM    6  N3  UNL     1     -34.365 -23.489 -54.402  1.00  0.00    -0.334 N
ATOM      7  H3  UNL     1     -34.998 -24.287 -54.452  1.00  0.00     0.168 HD
HETATM    8  C4  UNL     1     -34.767 -22.361 -53.790  1.00  0.00     0.177 A
HETATM    9  N4  UNL     1     -35.920 -22.218 -53.254  1.00  0.00    -0.316 N
ATOM     10  H4  UNL     1     -36.120 -21.319 -52.816  1.00  0.00     0.170 HD
HETATM   11  C6  UNL     1     -33.869 -21.313 -53.753  1.00  0.00     0.291 A
HETATM   12  O2  UNL     1     -34.230 -20.252 -53.184  1.00  0.00    -0.264 OA
HETATM   13  N5  UNL     1     -32.638 -21.396 -54.298  1.00  0.00    -0.302 N
ATOM     14  H5  UNL     1     -32.006 -20.597 -54.247  1.00  0.00     0.171 HD
HETATM   15  C7  UNL     1     -32.240 -22.527 -54.910  1.00  0.00     0.182 A
HETATM   16  N6  UNL     1     -31.010 -22.637 -55.466  1.00  0.00    -0.033 N
ENDROOT
BRANCH   9  17
HETATM   17  C5  UNL     1     -36.930 -23.182 -53.213  1.00  0.00     0.354 C
HETATM   18  O1  UNL     1     -36.680 -24.289 -52.668  1.00  0.00    -0.283 OA
ENDBRANCH   9  17
BRANCH  16  19
HETATM   19  O3  UNL     1     -30.123 -21.574 -55.418  1.00  0.00    -0.268 OA
ATOM     20  H3  UNL     1     -29.839 -21.260 -54.568  1.00  0.00     0.246 HD
ENDBRANCH  16  19
BRANCH   1  21
HETATM   21  N1  UNL     1     -29.427 -23.858 -56.608  1.00  0.00    -0.232 N
ATOM     22  H12 UNL     1     -28.767 -23.085 -56.521  1.00  0.00     0.174 HD
ATOM     23  H11 UNL     1     -29.123 -24.687 -57.119  1.00  0.00     0.174 HD
ENDBRANCH   1  21
TORSDOF 3
ENDMDL