MODEL 3
REMARK VINA RESULT: -6.624908873      1.832      2.147
REMARK  3 active torsions:
REMARK  status: ('A' for Active; 'I' for Inactive)
REMARK    1  A    between atoms: C1_2  and  C2_4
REMARK    2  A    between atoms: C4_12  and  N5_13
REMARK    3  A    between atoms: N5_13  and  C5_15
ROOT
HETATM    1  C2  UNL     1     -31.183 -22.735 -54.998  1.00  0.00     0.157 A
HETATM    2  N2  UNL     1     -30.416 -22.724 -56.024  1.00  0.00    -0.296 N
ATOM      3  H2  UNL     1     -29.943 -21.854 -56.268  1.00  0.00     0.187 HD
HETATM    4  N3  UNL     1     -30.199 -23.833 -56.814  1.00  0.00    -0.318 N
ATOM      5  H3  UNL     1     -29.575 -23.758 -57.617  1.00  0.00     0.182 HD
HETATM    6  C3  UNL     1     -30.830 -25.091 -56.533  1.00  0.00     0.262 A
HETATM    7  N4  UNL     1     -31.681 -25.062 -55.376  1.00  0.00    -0.357 N
ATOM      8  H4  UNL     1     -32.172 -25.912 -55.100  1.00  0.00     0.162 HD
HETATM    9  C4  UNL     1     -31.841 -23.994 -54.681  1.00  0.00     0.138 A
ENDROOT
BRANCH   9  10
HETATM   10  N5  UNL     1     -32.705 -24.009 -53.528  1.00  0.00    -0.327 N
ATOM     11  H5  UNL     1     -32.324 -23.740 -52.620  1.00  0.00     0.169 HD
BRANCH  10  12
HETATM   12  C5  UNL     1     -33.937 -24.351 -53.610  1.00  0.00     0.111 A
HETATM   13  C6  UNL     1     -34.590 -25.164 -52.723  1.00  0.00     0.066 A
HETATM   14  C7  UNL     1     -35.936 -25.498 -52.868  1.00  0.00     0.096 A
HETATM   15  N6  UNL     1     -36.562 -24.969 -53.939  1.00  0.00    -0.319 N
HETATM   16  C8  UNL     1     -35.940 -24.168 -54.821  1.00  0.00     0.325 A
ATOM     17  H6  UNL     1     -37.548 -25.185 -54.085  1.00  0.00     0.170 HD
HETATM   18  O2  UNL     1     -36.575 -23.699 -55.808  1.00  0.00    -0.247 OA
HETATM   19  N7  UNL     1     -34.640 -23.867 -54.651  1.00  0.00    -0.294 N
ATOM     20  H7  UNL     1     -34.177 -23.257 -55.325  1.00  0.00     0.172 HD
ENDBRANCH  10  12
ENDBRANCH   9  10
BRANCH   1  21
HETATM   21  C1  UNL     1     -31.396 -21.536 -54.173  1.00  0.00     0.286 C
HETATM   22  N1  UNL     1     -32.689 -21.096 -53.808  1.00  0.00    -0.056 NA
HETATM   23  O1  UNL     1     -30.387 -20.893 -53.790  1.00  0.00    -0.269 OA
ENDBRANCH   1  21
TORSDOF 3
ENDMDL