MODEL 3
REMARK VINA RESULT: -6.620196413      1.334      1.334
REMARK  2 active torsions:
REMARK  status: ('A' for Active; 'I' for Inactive)
REMARK    1  A    between atoms: N1_1  and  N2_4
REMARK       I    between atoms: N2_4  and  C1_6
REMARK    2  A    between atoms: C1_6  and  C2_8
ROOT
HETATM    1  C2  UNL     1     -34.365 -24.436 -53.633  1.00  0.00     0.050 A
HETATM    2  C3  UNL     1     -34.353 -23.373 -52.732  1.00  0.00     0.106 A
HETATM    3  N3  UNL     1     -33.417 -22.408 -52.744  1.00  0.00    -0.350 N
ATOM      4  H3  UNL     1     -33.458 -21.653 -52.061  1.00  0.00     0.166 HD
HETATM    5  C4  UNL     1     -32.442 -22.436 -53.639  1.00  0.00     0.124 A
HETATM    6  N4  UNL     1     -31.481 -21.481 -53.681  1.00  0.00    -0.294 N
ATOM      7  H4  UNL     1     -31.488 -20.709 -53.014  1.00  0.00     0.172 HD
HETATM    8  C5  UNL     1     -30.526 -21.568 -54.610  1.00  0.00     0.328 A
HETATM    9  O2  UNL     1     -29.619 -20.678 -54.661  1.00  0.00    -0.247 OA
HETATM   10  N5  UNL     1     -30.458 -22.561 -55.523  1.00  0.00    -0.275 N
ATOM     11  H5  UNL     1     -29.707 -22.579 -56.212  1.00  0.00     0.173 HD
HETATM   12  C6  UNL     1     -31.396 -23.525 -55.509  1.00  0.00     0.263 A
HETATM   13  O3  UNL     1     -31.386 -24.472 -56.328  1.00  0.00    -0.267 OA
HETATM   14  C7  UNL     1     -32.389 -23.457 -54.562  1.00  0.00     0.077 A
HETATM   15  C8  UNL     1     -33.356 -24.472 -54.567  1.00  0.00     0.039 A
ENDROOT
BRANCH   1  16
HETATM   16  C1  UNL     1     -35.397 -25.460 -53.586  1.00  0.00     0.271 C
HETATM   17  N2  UNL     1     -36.138 -25.901 -54.704  1.00  0.00    -0.272 N
ATOM     18  H2  UNL     1     -35.952 -25.486 -55.617  1.00  0.00     0.189 HD
HETATM   19  O1  UNL     1     -35.640 -25.990 -52.443  1.00  0.00    -0.266 OA
BRANCH  17  20
HETATM   20  N1  UNL     1     -37.113 -26.885 -54.598  1.00  0.00    -0.342 N
ATOM     21  H12 UNL     1     -37.350 -27.226 -53.666  1.00  0.00     0.176 HD
ATOM     22  H11 UNL     1     -37.588 -27.266 -55.416  1.00  0.00     0.176 HD
ENDBRANCH  17  20
ENDBRANCH   1  16
TORSDOF 2
ENDMDL