MODEL 4
REMARK VINA RESULT: -5.183153033      2.315      4.786
REMARK  2 active torsions:
REMARK  status: ('A' for Active; 'I' for Inactive)
REMARK    1  A    between atoms: N1_1  and  C1_5
REMARK    2  A    between atoms: C1_5  and  N2_6
ROOT
HETATM    1  C1  UNL     1     -34.157 -22.738 -53.925  1.00  0.00     0.355 C
HETATM    2  C6  UNL     1     -35.032 -23.835 -54.347  1.00  0.00     0.292 C
HETATM    3  O1  UNL     1     -34.512 -24.993 -54.508  1.00  0.00    -0.268 OA
HETATM    4  N4  UNL     1     -36.403 -23.673 -54.579  1.00  0.00    -0.275 N
ATOM      5  H4  UNL     1     -36.981 -24.481 -54.806  1.00  0.00     0.173 HD
HETATM    6  C7  UNL     1     -36.988 -22.383 -54.499  1.00  0.00     0.329 C
HETATM    7  O2  UNL     1     -38.249 -22.246 -54.715  1.00  0.00    -0.247 OA
HETATM    8  N5  UNL     1     -36.179 -21.274 -54.184  1.00  0.00    -0.275 N
ATOM      9  H5  UNL     1     -36.602 -20.348 -54.126  1.00  0.00     0.173 HD
HETATM   10  C8  UNL     1     -34.806 -21.419 -53.949  1.00  0.00     0.292 C
HETATM   11  O3  UNL     1     -34.085 -20.383 -53.748  1.00  0.00    -0.268 OA
ENDROOT
BRANCH   1  12
HETATM   12  N1  UNL     1     -33.865 -22.997 -52.499  1.00  0.00    -0.034 N
ATOM     13  H13 UNL     1     -34.413 -22.399 -51.880  1.00  0.00     0.278 HD
ATOM     14  H12 UNL     1     -34.226 -23.899 -52.191  1.00  0.00     0.278 HD
ATOM     15  H11 UNL     1     -32.863 -22.906 -52.331  1.00  0.00     0.278 HD
ENDBRANCH   1  12
BRANCH   1  16
HETATM   16  N2  UNL     1     -32.924 -22.619 -54.660  1.00  0.00    -0.363 N
HETATM   17  C2  UNL     1     -31.725 -22.768 -53.914  1.00  0.00     0.139 C
HETATM   18  C3  UNL     1     -30.644 -22.131 -54.811  1.00  0.00     0.133 C
HETATM   19  N3  UNL     1     -30.449 -23.043 -55.887  1.00  0.00    -0.418 N
HETATM   20  C4  UNL     1     -31.583 -23.694 -56.418  1.00  0.00     0.133 C
ATOM     21  H3  UNL     1     -29.518 -23.220 -56.262  1.00  0.00     0.153 HD
HETATM   22  C5  UNL     1     -32.927 -23.302 -55.918  1.00  0.00     0.139 C
ENDBRANCH   1  16
TORSDOF 2
ENDMDL