MODEL 5
REMARK VINA RESULT: -5.082182157      2.490      5.149
REMARK  0 active torsions:
REMARK  status: ('A' for Active; 'I' for Inactive)
REMARK       I    between atoms: N1_1  and  C1_5
REMARK       I    between atoms: C1_5  and  N2_6
REMARK       I    between atoms: C1_5  and  N3_10
ROOT
HETATM    1  N1  UNL     1     -31.662 -22.271 -55.838  1.00  0.00    -0.036 N
ATOM      2  H11 UNL     1     -32.244 -22.044 -56.645  1.00  0.00     0.278 HD
ATOM      3  H12 UNL     1     -31.361 -23.246 -55.829  1.00  0.00     0.278 HD
ATOM      4  H13 UNL     1     -30.737 -21.844 -55.884  1.00  0.00     0.278 HD
HETATM    5  C1  UNL     1     -32.392 -21.899 -54.652  1.00  0.00     0.470 C
HETATM    6  N2  UNL     1     -31.563 -22.223 -53.501  1.00  0.00    -0.036 N
ATOM      7  H21 UNL     1     -32.079 -21.960 -52.662  1.00  0.00     0.278 HD
ATOM      8  H22 UNL     1     -30.638 -21.796 -53.547  1.00  0.00     0.278 HD
ATOM      9  H23 UNL     1     -31.261 -23.198 -53.492  1.00  0.00     0.278 HD
HETATM   10  N3  UNL     1     -33.676 -22.543 -54.605  1.00  0.00    -0.140 NA
HETATM   11  C2  UNL     1     -34.572 -21.998 -53.646  1.00  0.00     0.115 C
HETATM   12  C3  UNL     1     -35.955 -21.951 -54.260  1.00  0.00     0.035 C
HETATM   13  C4  UNL     1     -36.887 -22.679 -53.338  1.00  0.00     0.125 C
HETATM   14  N4  UNL     1     -37.111 -24.027 -53.781  1.00  0.00    -0.342 N
ATOM     15  H4  UNL     1     -38.050 -24.363 -53.569  1.00  0.00     0.164 HD
HETATM   16  C5  UNL     1     -36.323 -24.989 -54.443  1.00  0.00     0.330 C
HETATM   17  O1  UNL     1     -37.024 -25.902 -54.925  1.00  0.00    -0.246 OA
HETATM   18  N5  UNL     1     -34.918 -25.119 -54.663  1.00  0.00    -0.223 N
ATOM     19  H5  UNL     1     -34.711 -26.060 -54.998  1.00  0.00     0.184 HD
HETATM   20  S1  UNL     1     -33.482 -24.228 -54.550  1.00  0.00     0.309 S
HETATM   21  O2  UNL     1     -32.600 -24.634 -55.713  1.00  0.00    -0.188 OA
HETATM   22  O3  UNL     1     -32.722 -24.647 -53.301  1.00  0.00    -0.188 OA
ENDROOT
TORSDOF 0
ENDMDL