MODEL 2
REMARK VINA RESULT: -7.112444656      0.080      1.146
REMARK  3 active torsions:
REMARK  status: ('A' for Active; 'I' for Inactive)
REMARK       I    between atoms: C1_4  and  N3_6
REMARK    1  A    between atoms: N3_6  and  C2_8
REMARK    2  A    between atoms: N5_11  and  C3_12
REMARK    3  A    between atoms: N6_20  and  N7_21
ROOT
HETATM    1  C2  UNL     1     -30.756 -23.131 -55.391  1.00  0.00     0.725 A
HETATM    2  N4  UNL     1     -31.792 -23.973 -55.213  1.00  0.00    -0.119 N
ATOM      3  H4  UNL     1     -31.911 -24.866 -55.690  1.00  0.00     0.206 HD
HETATM    4  N5  UNL     1     -32.629 -23.468 -54.331  1.00  0.00    -0.189 N
HETATM    5  C9  UNL     1     -32.109 -22.290 -53.949  1.00  0.00     0.382 A
HETATM    6  O1  UNL     1     -32.604 -21.475 -53.104  1.00  0.00    -0.242 OA
HETATM    7  N6  UNL     1     -30.941 -22.053 -54.592  1.00  0.00    -0.035 N
ENDROOT
BRANCH   1   8
HETATM    8  N3  UNL     1     -29.764 -23.340 -56.193  1.00  0.00    -0.161 N
HETATM    9  C1  UNL     1     -29.749 -24.287 -57.226  1.00  0.00     0.200 C
HETATM   10  N1  UNL     1     -30.040 -23.929 -58.449  1.00  0.00    -0.373 N
HETATM   11  N2  UNL     1     -29.422 -25.651 -57.007  1.00  0.00    -0.063 NA
ATOM     12  H12 UNL     1     -30.029 -24.618 -59.201  1.00  0.00     0.158 HD
ATOM     13  H11 UNL     1     -30.274 -22.949 -58.607  1.00  0.00     0.158 HD
ATOM     14  H3  UNL     1     -28.928 -22.770 -56.064  1.00  0.00     0.187 HD
ENDBRANCH   1   8
BRANCH   7  15
HETATM   15  N7  UNL     1     -30.108 -20.945 -54.466  1.00  0.00    -0.320 N
ATOM     16  H72 UNL     1     -29.093 -20.934 -54.370  1.00  0.00     0.178 HD
ATOM     17  H71 UNL     1     -30.384 -19.963 -54.448  1.00  0.00     0.178 HD
ENDBRANCH   7  15
BRANCH   4  18
HETATM   18  C3  UNL     1     -33.858 -24.028 -53.848  1.00  0.00     0.062 A
HETATM   19  C4  UNL     1     -35.045 -23.907 -54.539  1.00  0.00     0.032 A
HETATM   20  C5  UNL     1     -36.207 -24.477 -54.009  1.00  0.00     0.002 A
HETATM   21  C6  UNL     1     -36.203 -25.156 -52.820  1.00  0.00     0.000 A
HETATM   22  C7  UNL     1     -35.026 -25.283 -52.122  1.00  0.00     0.002 A
HETATM   23  C8  UNL     1     -33.894 -24.717 -52.655  1.00  0.00     0.032 A
ENDBRANCH   4  18
TORSDOF 3
ENDMDL