MODEL 4
REMARK VINA RESULT: -6.234712291      1.339      1.418
REMARK  1 active torsions:
REMARK  status: ('A' for Active; 'I' for Inactive)
REMARK       I    between atoms: C1_2  and  N2_4
REMARK    1  A    between atoms: N2_4  and  C2_6
ROOT
HETATM    1  C2  UNL     1     -34.904 -24.026 -53.322  1.00  0.00     0.690 A
HETATM    2  N3  UNL     1     -34.385 -22.895 -52.812  1.00  0.00    -0.155 N
ATOM      3  H3  UNL     1     -34.881 -22.383 -52.082  1.00  0.00     0.187 HD
HETATM    4  C3  UNL     1     -33.199 -22.444 -53.276  1.00  0.00     0.277 A
HETATM    5  O2  UNL     1     -32.685 -21.389 -52.822  1.00  0.00    -0.266 OA
HETATM    6  C4  UNL     1     -32.496 -23.106 -54.262  1.00  0.00     0.130 A
HETATM    7  C5  UNL     1     -31.294 -22.685 -54.760  1.00  0.00     0.208 A
HETATM    8  O3  UNL     1     -30.785 -21.623 -54.297  1.00  0.00    -0.286 OA
HETATM    9  C6  UNL     1     -30.610 -23.376 -55.754  1.00  0.00     0.163 A
HETATM   10  N4  UNL     1     -31.204 -24.496 -56.205  1.00  0.00    -0.306 N
ATOM     11  H4  UNL     1     -30.743 -25.040 -56.936  1.00  0.00     0.186 HD
HETATM   12  N5  UNL     1     -32.370 -24.917 -55.731  1.00  0.00    -0.284 N
ATOM     13  H5  UNL     1     -32.773 -25.774 -56.112  1.00  0.00     0.188 HD
HETATM   14  C7  UNL     1     -33.045 -24.259 -54.768  1.00  0.00     0.155 A
HETATM   15  N6  UNL     1     -34.228 -24.679 -54.282  1.00  0.00    -0.174 N
ATOM     16  H6  UNL     1     -34.631 -25.536 -54.662  1.00  0.00     0.186 HD
ENDROOT
BRANCH   1  17
HETATM   17  N2  UNL     1     -36.050 -24.503 -52.905  1.00  0.00    -0.143 N
HETATM   18  C1  UNL     1     -36.289 -25.897 -52.837  1.00  0.00     0.346 C
HETATM   19  N1  UNL     1     -37.233 -26.506 -53.723  1.00  0.00    -0.039 NA
HETATM   20  O1  UNL     1     -35.705 -26.645 -52.022  1.00  0.00    -0.250 OA
ATOM     21  H2  UNL     1     -36.786 -23.856 -52.623  1.00  0.00     0.188 HD
ENDBRANCH   1  17
TORSDOF 1
ENDMDL