MODEL 5
REMARK VINA RESULT: -5.645341297      1.815      5.475
REMARK  2 active torsions:
REMARK  status: ('A' for Active; 'I' for Inactive)
REMARK    1  A    between atoms: N1_1  and  C1_4
REMARK    2  A    between atoms: N5_19  and  C7_20
ROOT
HETATM    1  C1  UNL     1     -35.729 -22.599 -53.763  1.00  0.00     0.122 A
HETATM    2  N2  UNL     1     -36.297 -23.805 -53.904  1.00  0.00    -0.294 N
ATOM      3  H2  UNL     1     -37.289 -23.903 -53.685  1.00  0.00     0.172 HD
HETATM    4  C2  UNL     1     -35.631 -24.883 -54.314  1.00  0.00     0.327 A
HETATM    5  O1  UNL     1     -36.182 -26.025 -54.444  1.00  0.00    -0.247 OA
HETATM    6  N3  UNL     1     -34.308 -24.750 -54.606  1.00  0.00    -0.293 N
ATOM      7  H3  UNL     1     -33.794 -25.572 -54.920  1.00  0.00     0.172 HD
HETATM    8  C3  UNL     1     -33.648 -23.586 -54.497  1.00  0.00     0.141 A
HETATM    9  C4  UNL     1     -34.395 -22.481 -54.060  1.00  0.00     0.120 A
HETATM   10  C5  UNL     1     -33.776 -21.261 -53.930  1.00  0.00     0.267 A
HETATM   11  O2  UNL     1     -34.464 -20.277 -53.535  1.00  0.00    -0.267 OA
HETATM   12  N4  UNL     1     -32.473 -21.123 -54.215  1.00  0.00    -0.274 N
ATOM     13  H4  UNL     1     -32.016 -20.217 -54.117  1.00  0.00     0.173 HD
HETATM   14  C6  UNL     1     -31.783 -22.191 -54.629  1.00  0.00     0.337 A
HETATM   15  O3  UNL     1     -30.568 -22.053 -54.894  1.00  0.00    -0.246 OA
HETATM   16  N5  UNL     1     -32.346 -23.437 -54.780  1.00  0.00    -0.224 N
ENDROOT
BRANCH   1  17
HETATM   17  N1  UNL     1     -36.354 -21.548 -53.369  1.00  0.00    -0.384 N
ATOM     18  H12 UNL     1     -37.292 -21.383 -53.736  1.00  0.00     0.157 HD
ATOM     19  H11 UNL     1     -35.974 -20.867 -52.712  1.00  0.00     0.157 HD
ENDBRANCH   1  17
BRANCH  16  20
HETATM   20  C7  UNL     1     -31.555 -24.492 -55.216  1.00  0.00     0.365 C
HETATM   21  O4  UNL     1     -31.640 -25.233 -56.193  1.00  0.00    -0.283 OA
ENDBRANCH  16  20
TORSDOF 2
ENDMDL