MODEL 4
REMARK VINA RESULT: -6.108592818      3.084      4.366
REMARK  4 active torsions:
REMARK  status: ('A' for Active; 'I' for Inactive)
REMARK    1  A    between atoms: N1_1  and  C1_4
REMARK    2  A    between atoms: C2_7  and  N3_8
REMARK    3  A    between atoms: N3_8  and  S1_10
REMARK    4  A    between atoms: S1_10  and  N4_11
ROOT
HETATM    1  C1  UNL     1     -33.561 -23.745 -52.503  1.00  0.00     0.679 A
HETATM    2  N2  UNL     1     -33.829 -22.442 -52.784  1.00  0.00    -0.174 N
ATOM      3  H2  UNL     1     -34.329 -21.879 -52.095  1.00  0.00     0.186 HD
HETATM    4  C2  UNL     1     -33.454 -21.873 -53.944  1.00  0.00     0.163 A
HETATM    5  C3  UNL     1     -32.779 -22.674 -54.844  1.00  0.00     0.137 A
HETATM    6  N5  UNL     1     -32.264 -22.452 -56.076  1.00  0.00    -0.277 N
ATOM      7  H5  UNL     1     -32.300 -21.564 -56.577  1.00  0.00     0.184 HD
HETATM    8  N6  UNL     1     -31.703 -23.564 -56.533  1.00  0.00    -0.020 NA
HETATM    9  N7  UNL     1     -31.843 -24.514 -55.621  1.00  0.00    -0.267 N
ATOM     10  H7  UNL     1     -31.505 -25.473 -55.709  1.00  0.00     0.186 HD
HETATM   11  C4  UNL     1     -32.505 -24.011 -54.554  1.00  0.00     0.165 A
HETATM   12  N8  UNL     1     -32.910 -24.518 -53.371  1.00  0.00    -0.173 N
ATOM     13  H8  UNL     1     -32.719 -25.493 -53.142  1.00  0.00     0.186 HD
ENDROOT
BRANCH   4  14
HETATM   14  N3  UNL     1     -33.679 -20.654 -54.260  1.00  0.00    -0.251 N
ATOM     15  H3  UNL     1     -32.992 -20.189 -54.854  1.00  0.00     0.182 HD
BRANCH  14  16
HETATM   16  S1  UNL     1     -35.034 -19.746 -53.771  1.00  0.00     0.318 S
HETATM   17  O1  UNL     1     -34.753 -18.913 -52.529  1.00  0.00    -0.183 OA
HETATM   18  O2  UNL     1     -36.268 -20.589 -53.580  1.00  0.00    -0.183 OA
BRANCH  16  19
HETATM   19  N4  UNL     1     -35.413 -18.626 -55.059  1.00  0.00    -0.311 N
ATOM     20  H42 UNL     1     -36.347 -18.291 -55.295  1.00  0.00     0.170 HD
ATOM     21  H41 UNL     1     -34.537 -18.376 -55.518  1.00  0.00     0.170 HD
ENDBRANCH  16  19
ENDBRANCH  14  16
ENDBRANCH   4  14
BRANCH   1  22
HETATM   22  N1  UNL     1     -33.927 -24.280 -51.385  1.00  0.00    -0.234 N
ATOM     23  H12 UNL     1     -34.887 -24.124 -51.080  1.00  0.00     0.174 HD
ATOM     24  H11 UNL     1     -33.280 -24.838 -50.828  1.00  0.00     0.174 HD
ENDBRANCH   1  22
TORSDOF 4
ENDMDL