MODEL 3
REMARK VINA RESULT: -6.976430758      1.852      4.950
REMARK  1 active torsions:
REMARK  status: ('A' for Active; 'I' for Inactive)
REMARK       I    between atoms: C1_2  and  N1_3
REMARK    1  A    between atoms: C1_2  and  C4_13
ROOT
HETATM    1  O1  UNL     1     -33.195 -24.750 -52.693  1.00  0.00    -0.265 OA
HETATM    2  C1  UNL     1     -33.262 -24.234 -53.831  1.00  0.00     0.293 C
HETATM    3  N1  UNL     1     -32.629 -24.838 -54.911  1.00  0.00    -0.152 N
ATOM      4  H1  UNL     1     -33.006 -25.728 -55.235  1.00  0.00     0.187 HD
HETATM    5  C2  UNL     1     -31.606 -24.369 -55.538  1.00  0.00     0.700 A
HETATM    6  N2  UNL     1     -31.024 -24.988 -56.581  1.00  0.00    -0.185 N
ATOM      7  H2  UNL     1     -31.327 -25.878 -56.976  1.00  0.00     0.185 HD
HETATM    8  C3  UNL     1     -29.982 -24.260 -57.027  1.00  0.00     0.215 A
HETATM    9  N3  UNL     1     -29.932 -23.157 -56.222  1.00  0.00    -0.281 N
ATOM     10  H3  UNL     1     -29.256 -22.396 -56.288  1.00  0.00     0.188 HD
HETATM   11  N4  UNL     1     -30.915 -23.252 -55.344  1.00  0.00    -0.131 N
ATOM     12  H4  UNL     1     -31.116 -22.564 -54.619  1.00  0.00     0.205 HD
ENDROOT
BRANCH   2  13
HETATM   13  C4  UNL     1     -34.012 -23.004 -53.982  1.00  0.00     0.185 A
HETATM   14  N5  UNL     1     -35.202 -23.061 -54.610  1.00  0.00    -0.287 N
HETATM   15  N6  UNL     1     -35.876 -21.952 -54.746  1.00  0.00    -0.251 N
ATOM     16  H5  UNL     1     -35.565 -23.944 -54.968  1.00  0.00     0.187 HD
HETATM   17  C5  UNL     1     -35.402 -20.787 -54.275  1.00  0.00     0.341 A
ATOM     18  H6  UNL     1     -36.780 -21.971 -55.218  1.00  0.00     0.191 HD
HETATM   19  O2  UNL     1     -36.079 -19.721 -54.421  1.00  0.00    -0.245 OA
HETATM   20  N7  UNL     1     -34.224 -20.698 -53.648  1.00  0.00    -0.272 N
HETATM   21  C6  UNL     1     -33.507 -21.818 -53.491  1.00  0.00     0.283 A
ATOM     22  H7  UNL     1     -33.882 -19.803 -53.298  1.00  0.00     0.174 HD
HETATM   23  O3  UNL     1     -32.377 -21.790 -52.900  1.00  0.00    -0.265 OA
ENDBRANCH   2  13
TORSDOF 1
ENDMDL