MODEL 5
REMARK VINA RESULT: -7.014413219      2.644      7.358
REMARK  7 active torsions:
REMARK  status: ('A' for Active; 'I' for Inactive)
REMARK    1  A    between atoms: N1_1  and  C1_4
REMARK    2  A    between atoms: C2_7  and  N3_8
REMARK    3  A    between atoms: N3_8  and  C3_10
REMARK    4  A    between atoms: C6_19  and  C7_20
REMARK    5  A    between atoms: C7_20  and  N7_21
REMARK    6  A    between atoms: C8_23  and  C9_24
REMARK    7  A    between atoms: C10_25  and  C11_26
ROOT
HETATM    1  C1  UNL     1      23.587  37.844  54.054  1.00  0.00     0.679 A
HETATM    2  N2  UNL     1      22.664  37.036  54.604  1.00  0.00    -0.175 N
ATOM      3  H2  UNL     1      21.954  37.434  55.219  1.00  0.00     0.186 HD
HETATM    4  C2  UNL     1      22.661  35.713  54.358  1.00  0.00     0.149 A
HETATM    5  C5  UNL     1      23.609  35.124  53.526  1.00  0.00     0.122 A
HETATM    6  N6  UNL     1      23.607  33.800  53.277  1.00  0.00    -0.351 N
ATOM      7  H6  UNL     1      22.897  33.205  53.705  1.00  0.00     0.166 HD
HETATM    8  C6  UNL     1      24.536  33.255  52.467  1.00  0.00     0.043 A
HETATM    9  C14 UNL     1      25.470  34.110  51.917  1.00  0.00     0.116 A
HETATM   10  N8  UNL     1      25.474  35.431  52.162  1.00  0.00    -0.348 N
ATOM     11  H8  UNL     1      26.184  36.024  51.734  1.00  0.00     0.167 HD
HETATM   12  C15 UNL     1      24.544  35.976  52.974  1.00  0.00     0.151 A
HETATM   13  N9  UNL     1      24.513  37.295  53.246  1.00  0.00    -0.174 N
ATOM     14  H9  UNL     1      25.217  37.901  52.824  1.00  0.00     0.186 HD
ENDROOT
BRANCH   8  15
HETATM   15  C7  UNL     1      24.564  31.791  52.169  1.00  0.00     0.177 C
BRANCH  15  16
HETATM   16  N7  UNL     1      25.689  31.212  52.833  1.00  0.00    -0.393 N
HETATM   17  C8  UNL     1      25.962  29.947  52.748  1.00  0.00     0.083 C
ATOM     18  H7  UNL     1      26.296  31.813  53.391  1.00  0.00     0.159 HD
BRANCH  17  19
HETATM   19  C9  UNL     1      27.089  29.337  53.407  1.00  0.00     0.015 C
HETATM   20  C10 UNL     1      26.945  28.784  54.586  1.00  0.00     0.006 C
BRANCH  20  21
HETATM   21  C11 UNL     1      25.639  28.775  55.258  1.00  0.00     0.146 C
HETATM   22  C12 UNL     1      25.600  28.199  56.644  1.00  0.00     0.062 C
HETATM   23  C13 UNL     1      24.549  29.295  56.783  1.00  0.00     0.171 C
HETATM   24  O2  UNL     1      25.246  29.999  55.802  1.00  0.00    -0.382 OA
ENDBRANCH  20  21
ENDBRANCH  17  19
ENDBRANCH  15  16
ENDBRANCH   8  15
BRANCH   4  25
HETATM   25  N3  UNL     1      21.792  34.914  54.868  1.00  0.00    -0.346 N
ATOM     26  H3  UNL     1      22.083  34.145  55.471  1.00  0.00     0.163 HD
BRANCH  25  27
HETATM   27  C3  UNL     1      20.374  35.135  54.564  1.00  0.00     0.292 C
HETATM   28  N4  UNL     1      19.899  36.463  54.821  1.00  0.00    -0.103 NA
HETATM   29  N5  UNL     1      18.698  35.891  55.304  1.00  0.00    -0.269 N
HETATM   30  C4  UNL     1      19.471  34.759  55.682  1.00  0.00     0.273 C
ATOM     31  H5  UNL     1      17.717  36.167  55.358  1.00  0.00     0.185 HD
HETATM   32  O1  UNL     1      19.341  33.906  56.578  1.00  0.00    -0.268 OA
ENDBRANCH  25  27
ENDBRANCH   4  25
BRANCH   1  33
HETATM   33  N1  UNL     1      23.551  39.113  54.321  1.00  0.00    -0.234 N
ATOM     34  H12 UNL     1      22.992  39.775  53.782  1.00  0.00     0.174 HD
ATOM     35  H11 UNL     1      24.103  39.470  55.101  1.00  0.00     0.174 HD
ENDBRANCH   1  33
TORSDOF 7
ENDMDL