MODEL 2
REMARK VINA RESULT: -6.100871718      2.781      6.065
REMARK  7 active torsions:
REMARK  status: ('A' for Active; 'I' for Inactive)
REMARK    1  A    between atoms: C2_2  and  C3_3
REMARK    2  A    between atoms: C2_2  and  N3_13
REMARK    3  A    between atoms: C3_3  and  C4_4
REMARK    4  A    between atoms: C6_8  and  N2_9
REMARK    5  A    between atoms: C7_14  and  S2_15
REMARK    6  A    between atoms: S2_15  and  N4_16
REMARK    7  A    between atoms: C9_24  and  N6_25
ROOT
HETATM    1  N3  UNL     1      24.120  35.323  53.991  1.00  0.00    -0.301 N
HETATM    2  C7  UNL     1      24.207  35.632  55.296  1.00  0.00     0.228 A
HETATM    3  N5  UNL     1      22.963  35.968  55.714  1.00  0.00    -0.325 N
ATOM      4  H5  UNL     1      22.728  36.250  56.666  1.00  0.00     0.168 HD
HETATM    5  C8  UNL     1      22.081  35.882  54.709  1.00  0.00     0.123 A
HETATM    6  C9  UNL     1      20.724  36.118  54.641  1.00  0.00     0.131 A
HETATM    7  N7  UNL     1      20.117  35.933  53.447  1.00  0.00    -0.337 N
ATOM      8  H7  UNL     1      19.114  36.098  53.359  1.00  0.00     0.168 HD
HETATM    9  C10 UNL     1      20.822  35.536  52.379  1.00  0.00     0.183 A
HETATM   10  N8  UNL     1      22.144  35.313  52.477  1.00  0.00    -0.336 N
ATOM     11  H8  UNL     1      22.647  35.011  51.643  1.00  0.00     0.168 HD
HETATM   12  C11 UNL     1      22.839  35.467  53.615  1.00  0.00     0.142 A
ENDROOT
BRANCH   1  13
HETATM   13  C2  UNL     1      25.208  34.920  53.189  1.00  0.00     0.094 C
HETATM   14  C1  UNL     1      25.820  36.085  52.397  1.00  0.00     0.033 C
BRANCH  13  15
HETATM   15  C3  UNL     1      24.926  33.858  52.176  1.00  0.00     0.073 C
BRANCH  15  16
HETATM   16  C4  UNL     1      24.997  32.500  52.805  1.00  0.00     0.003 A
HETATM   17  C5  UNL     1      24.910  32.193  54.128  1.00  0.00     0.105 A
HETATM   18  N1  UNL     1      24.994  30.943  54.480  1.00  0.00    -0.346 N
HETATM   19  C6  UNL     1      25.161  30.024  53.530  1.00  0.00     0.142 A
ATOM     20  H1  UNL     1      24.934  30.674  55.462  1.00  0.00     0.167 HD
HETATM   21  S1  UNL     1      25.201  30.950  52.098  1.00  0.00    -0.058 SA
BRANCH  19  22
HETATM   22  N2  UNL     1      25.267  28.723  53.692  1.00  0.00    -0.380 N
ATOM     23  H22 UNL     1      24.900  28.127  54.434  1.00  0.00     0.158 HD
ATOM     24  H21 UNL     1      25.750  28.063  53.083  1.00  0.00     0.158 HD
ENDBRANCH  19  22
ENDBRANCH  15  16
ENDBRANCH  13  15
ENDBRANCH   1  13
BRANCH   2  25
HETATM   25  S2  UNL     1      25.556  35.644  56.371  1.00  0.00     0.289 S
HETATM   26  O1  UNL     1      26.563  36.645  55.887  1.00  0.00    -0.198 OA
HETATM   27  O2  UNL     1      26.257  34.340  56.495  1.00  0.00    -0.198 OA
BRANCH  25  28
HETATM   28  N4  UNL     1      25.071  36.138  57.962  1.00  0.00    -0.322 N
ATOM     29  H42 UNL     1      24.582  37.011  58.160  1.00  0.00     0.169 HD
ATOM     30  H41 UNL     1      25.340  35.440  58.655  1.00  0.00     0.169 HD
ENDBRANCH  25  28
ENDBRANCH   2  25
BRANCH   6  31
HETATM   31  N6  UNL     1      20.051  36.502  55.673  1.00  0.00    -0.383 N
ATOM     32  H62 UNL     1      20.512  36.656  56.570  1.00  0.00     0.157 HD
ATOM     33  H61 UNL     1      19.044  36.661  55.626  1.00  0.00     0.157 HD
ENDBRANCH   6  31
TORSDOF 7
ENDMDL