MODEL 5
REMARK VINA RESULT: -6.673044585      3.372      6.589
REMARK  6 active torsions:
REMARK  status: ('A' for Active; 'I' for Inactive)
REMARK    1  A    between atoms: O1_2  and  C2_3
REMARK    2  A    between atoms: C2_3  and  C3_5
REMARK    3  A    between atoms: C3_5  and  S1_6
REMARK    4  A    between atoms: S1_6  and  C4_7
REMARK    5  A    between atoms: C7_12  and  N2_13
REMARK    6  A    between atoms: C14_28  and  N6_29
ROOT
HETATM    1  C4  UNL     1      26.653  31.172  53.128  1.00  0.00     0.146 A
HETATM    2  N1  UNL     1      25.545  31.602  53.753  1.00  0.00    -0.336 N
ATOM      3  H1  UNL     1      25.141  31.043  54.504  1.00  0.00     0.168 HD
HETATM    4  C5  UNL     1      24.967  32.751  53.403  1.00  0.00     0.055 A
HETATM    5  C6  UNL     1      23.818  33.224  54.031  1.00  0.00     0.079 A
HETATM    6  C7  UNL     1      23.295  34.414  53.604  1.00  0.00     0.106 A
HETATM    7  N4  UNL     1      23.851  35.136  52.603  1.00  0.00    -0.328 N
ATOM      8  H4  UNL     1      23.426  36.018  52.317  1.00  0.00     0.169 HD
HETATM    9  C12 UNL     1      24.944  34.700  51.996  1.00  0.00     0.116 A
HETATM   10  N5  UNL     1      25.523  35.359  51.024  1.00  0.00    -0.385 N
ATOM     11  H51 UNL     1      26.365  35.024  50.556  1.00  0.00     0.157 HD
ATOM     12  H52 UNL     1      25.101  36.242  50.735  1.00  0.00     0.157 HD
HETATM   13  C13 UNL     1      25.512  33.512  52.384  1.00  0.00     0.078 A
HETATM   14  C14 UNL     1      26.659  33.074  51.731  1.00  0.00     0.117 A
HETATM   15  N7  UNL     1      27.185  31.911  52.136  1.00  0.00    -0.322 N
ATOM     16  H7  UNL     1      28.026  31.570  51.673  1.00  0.00     0.169 HD
ENDROOT
BRANCH   6  17
HETATM   17  N2  UNL     1      22.127  34.942  54.201  1.00  0.00    -0.364 N
HETATM   18  C8  UNL     1      22.122  35.403  55.597  1.00  0.00     0.152 C
HETATM   19  C9  UNL     1      20.679  35.516  56.028  1.00  0.00     0.252 C
HETATM   20  N3  UNL     1      19.944  36.474  55.248  1.00  0.00    -0.072 N
HETATM   21  C10 UNL     1      20.371  36.502  53.865  1.00  0.00     0.252 C
ATOM     22  H32 UNL     1      18.940  36.313  55.320  1.00  0.00     0.277 HD
ATOM     23  H31 UNL     1      19.991  37.403  55.666  1.00  0.00     0.277 HD
HETATM   24  C11 UNL     1      20.854  35.083  53.524  1.00  0.00     0.152 C
ENDBRANCH   6  17
BRANCH   1  25
HETATM   25  S1  UNL     1      27.498  29.649  53.521  1.00  0.00    -0.084 SA
BRANCH  25  26
HETATM   26  C3  UNL     1      26.327  28.311  53.823  1.00  0.00     0.193 C
BRANCH  26  27
HETATM   27  C2  UNL     1      25.855  28.380  55.230  1.00  0.00     0.268 C
HETATM   28  O2  UNL     1      26.295  27.573  56.112  1.00  0.00    -0.264 OA
BRANCH  27  29
HETATM   29  O1  UNL     1      24.926  29.303  55.690  1.00  0.00    -0.326 OA
HETATM   30  C1  UNL     1      24.628  29.432  57.052  1.00  0.00     0.213 C
ENDBRANCH  27  29
ENDBRANCH  26  27
ENDBRANCH  25  26
ENDBRANCH   1  25
BRANCH  14  31
HETATM   31  N6  UNL     1      27.184  33.780  50.771  1.00  0.00    -0.385 N
ATOM     32  H62 UNL     1      26.811  34.687  50.493  1.00  0.00     0.157 HD
ATOM     33  H61 UNL     1      27.998  33.436  50.260  1.00  0.00     0.157 HD
ENDBRANCH  14  31
TORSDOF 6
ENDMDL