MODEL 5
REMARK VINA RESULT: -7.764380864      2.118      2.488
REMARK  6 active torsions:
REMARK  status: ('A' for Active; 'I' for Inactive)
REMARK    1  A    between atoms: N1_1  and  C1_4
REMARK    2  A    between atoms: C3_6  and  C4_7
REMARK    3  A    between atoms: C4_7  and  C5_8
REMARK    4  A    between atoms: C5_8  and  N2_9
REMARK    5  A    between atoms: C9_18  and  N5_19
REMARK    6  A    between atoms: C11_27  and  N8_28
ROOT
HETATM    1  C4  UNL     1      23.698  33.474  54.717  1.00  0.00     0.078 C
ENDROOT
BRANCH   1   2
HETATM    2  C3  UNL     1      24.714  33.003  53.741  1.00  0.00     0.031 A
HETATM    3  C2  UNL     1      25.192  33.912  52.818  1.00  0.00     0.074 A
HETATM    4  C1  UNL     1      26.135  33.516  51.896  1.00  0.00     0.116 A
HETATM    5  N9  UNL     1      26.546  32.244  51.945  1.00  0.00    -0.177 N
HETATM    6  C11 UNL     1      26.099  31.346  52.826  1.00  0.00     0.683 A
ATOM      7  H9  UNL     1      27.244  31.942  51.266  1.00  0.00     0.185 HD
HETATM    8  N7  UNL     1      25.178  31.746  53.720  1.00  0.00    -0.195 N
ATOM      9  H7  UNL     1      24.823  31.075  54.401  1.00  0.00     0.184 HD
BRANCH   4  10
HETATM   10  N1  UNL     1      26.560  34.392  51.050  1.00  0.00    -0.385 N
ATOM     11  H12 UNL     1      26.458  35.400  51.160  1.00  0.00     0.157 HD
ATOM     12  H11 UNL     1      27.032  34.057  50.210  1.00  0.00     0.157 HD
ENDBRANCH   4  10
BRANCH   6  13
HETATM   13  N8  UNL     1      26.583  29.986  52.825  1.00  0.00    -0.196 N
HETATM   14  C12 UNL     1      27.857  29.631  53.359  1.00  0.00     0.145 C
HETATM   15  C13 UNL     1      27.672  28.448  54.282  1.00  0.00     0.047 C
HETATM   16  C14 UNL     1      26.497  27.585  53.883  1.00  0.00     0.171 C
HETATM   17  O2  UNL     1      26.296  27.706  52.517  1.00  0.00    -0.371 OA
HETATM   18  C15 UNL     1      25.738  28.955  52.262  1.00  0.00     0.311 C
ENDBRANCH   6  13
ENDBRANCH   1   2
BRANCH   1  19
HETATM   19  C5  UNL     1      23.923  34.955  55.032  1.00  0.00     0.137 C
BRANCH  19  20
HETATM   20  N2  UNL     1      22.841  35.760  54.539  1.00  0.00    -0.326 N
HETATM   21  C6  UNL     1      22.917  36.751  53.634  1.00  0.00     0.185 A
HETATM   22  N3  UNL     1      21.712  37.298  53.397  1.00  0.00    -0.345 N
HETATM   23  C7  UNL     1      20.835  36.640  54.172  1.00  0.00     0.147 A
ATOM     24  H3  UNL     1      21.504  38.063  52.755  1.00  0.00     0.167 HD
HETATM   25  C8  UNL     1      19.464  36.773  54.342  1.00  0.00     0.290 A
HETATM   26  C10 UNL     1      21.538  35.684  54.881  1.00  0.00     0.156 A
HETATM   27  O1  UNL     1      18.824  37.643  53.698  1.00  0.00    -0.265 OA
HETATM   28  N4  UNL     1      18.866  35.941  55.214  1.00  0.00    -0.154 N
HETATM   29  C9  UNL     1      19.574  35.011  55.898  1.00  0.00     0.680 A
ATOM     30  H4  UNL     1      17.860  36.012  55.362  1.00  0.00     0.187 HD
HETATM   31  N6  UNL     1      20.899  34.886  55.731  1.00  0.00    -0.174 N
ATOM     32  H6  UNL     1      21.415  34.179  56.256  1.00  0.00     0.186 HD
BRANCH  29  33
HETATM   33  N5  UNL     1      18.947  34.257  56.707  1.00  0.00    -0.234 N
ATOM     34  H52 UNL     1      18.316  33.534  56.362  1.00  0.00     0.174 HD
ATOM     35  H51 UNL     1      19.094  34.397  57.706  1.00  0.00     0.174 HD
ENDBRANCH  29  33
ENDBRANCH  19  20
ENDBRANCH   1  19
TORSDOF 6
ENDMDL