MODEL 4
REMARK VINA RESULT: -7.707231898      1.620      2.132
REMARK  5 active torsions:
REMARK  status: ('A' for Active; 'I' for Inactive)
REMARK    1  A    between atoms: C5_8  and  C6_9
REMARK    2  A    between atoms: C6_9  and  N3_10
REMARK    3  A    between atoms: C10_17  and  C11_18
REMARK    4  A    between atoms: C11_18  and  N5_19
REMARK    5  A    between atoms: C14_27  and  N8_28
ROOT
HETATM    1  N1  UNL     1      18.303  34.264  57.388  1.00  0.00    -0.191 NA
HETATM    2  C1  UNL     1      18.811  34.693  56.440  1.00  0.00     0.099 C
HETATM    3  C2  UNL     1      19.460  35.235  55.278  1.00  0.00     0.048 A
HETATM    4  C3  UNL     1      18.990  36.427  54.770  1.00  0.00     0.039 A
HETATM    5  C4  UNL     1      19.609  36.947  53.655  1.00  0.00     0.090 A
HETATM    6  N2  UNL     1      20.626  36.290  53.117  1.00  0.00    -0.365 N
ATOM      7  H2  UNL     1      21.058  36.707  52.293  1.00  0.00     0.165 HD
HETATM    8  C5  UNL     1      21.139  35.141  53.543  1.00  0.00     0.049 A
HETATM    9  C17 UNL     1      20.518  34.594  54.678  1.00  0.00     0.053 A
ENDROOT
BRANCH   8  10
HETATM   10  C6  UNL     1      22.280  34.444  52.903  1.00  0.00     0.120 C
BRANCH  10  11
HETATM   11  N3  UNL     1      23.365  34.380  53.786  1.00  0.00    -0.358 N
HETATM   12  C7  UNL     1      24.101  35.521  54.111  1.00  0.00     0.091 C
HETATM   13  C8  UNL     1      24.603  35.375  55.547  1.00  0.00     0.277 C
HETATM   14  N4  UNL     1      25.321  34.164  55.741  1.00  0.00    -0.069 N
HETATM   15  C9  UNL     1      24.697  33.018  55.191  1.00  0.00     0.259 C
ATOM     16  H42 UNL     1      26.273  34.254  55.388  1.00  0.00     0.277 HD
ATOM     17  H41 UNL     1      25.515  34.021  56.732  1.00  0.00     0.277 HD
HETATM   18  C10 UNL     1      24.101  33.167  53.822  1.00  0.00     0.133 C
BRANCH  18  19
HETATM   19  C11 UNL     1      25.084  33.097  52.684  1.00  0.00     0.176 C
BRANCH  19  20
HETATM   20  N5  UNL     1      26.177  32.185  52.868  1.00  0.00    -0.164 N
HETATM   21  C12 UNL     1      27.423  32.472  53.256  1.00  0.00     0.680 A
HETATM   22  N6  UNL     1      27.960  33.606  53.521  1.00  0.00    -0.234 N
HETATM   23  N7  UNL     1      28.150  31.314  53.328  1.00  0.00    -0.184 N
ATOM     24  H62 UNL     1      27.418  34.469  53.468  1.00  0.00     0.174 HD
ATOM     25  H61 UNL     1      28.911  33.825  53.818  1.00  0.00     0.174 HD
HETATM   26  C13 UNL     1      27.365  30.289  52.986  1.00  0.00     0.137 A
ATOM     27  H7  UNL     1      29.130  31.245  53.599  1.00  0.00     0.184 HD
HETATM   28  C14 UNL     1      27.585  28.929  52.889  1.00  0.00     0.131 A
HETATM   29  C16 UNL     1      26.136  30.840  52.700  1.00  0.00     0.155 A
HETATM   30  N9  UNL     1      26.551  28.172  52.507  1.00  0.00    -0.337 N
HETATM   31  C15 UNL     1      25.339  28.708  52.224  1.00  0.00     0.183 A
ATOM     32  H9  UNL     1      26.678  27.163  52.426  1.00  0.00     0.168 HD
HETATM   33  N10 UNL     1      25.143  30.024  52.322  1.00  0.00    -0.336 N
ATOM     34  H10 UNL     1      24.226  30.414  52.107  1.00  0.00     0.168 HD
BRANCH  28  35
HETATM   35  N8  UNL     1      28.718  28.387  53.149  1.00  0.00    -0.383 N
ATOM     36  H82 UNL     1      29.378  28.854  53.771  1.00  0.00     0.157 HD
ATOM     37  H81 UNL     1      29.005  27.491  52.757  1.00  0.00     0.157 HD
ENDBRANCH  28  35
ENDBRANCH  19  20
ENDBRANCH  18  19
ENDBRANCH  10  11
ENDBRANCH   8  10
TORSDOF 5
ENDMDL