MODEL 3
REMARK VINA RESULT: -6.943010651      2.863      4.101
REMARK  5 active torsions:
REMARK  status: ('A' for Active; 'I' for Inactive)
REMARK    1  A    between atoms: N1_1  and  C1_4
REMARK    2  A    between atoms: N3_8  and  C3_10
REMARK    3  A    between atoms: C5_17  and  C6_18
REMARK    4  A    between atoms: C7_19  and  C8_20
REMARK    5  A    between atoms: C8_20  and  C9_21
ROOT
HETATM    1  C1  UNL     1      24.618  39.874  53.752  1.00  0.00     0.678 A
HETATM    2  N2  UNL     1      23.346  39.471  53.960  1.00  0.00    -0.175 N
ATOM      3  H2  UNL     1      22.653  40.157  54.257  1.00  0.00     0.186 HD
HETATM    4  C2  UNL     1      22.965  38.188  53.787  1.00  0.00     0.149 A
HETATM    5  N3  UNL     1      21.769  37.871  53.995  1.00  0.00    -0.332 N
ATOM      6  H3  UNL     1      21.177  38.648  54.288  1.00  0.00     0.165 HD
HETATM    7  C4  UNL     1      23.936  37.299  53.386  1.00  0.00     0.107 A
HETATM    8  N6  UNL     1      23.642  36.026  53.195  1.00  0.00    -0.338 N
ATOM      9  H6  UNL     1      22.683  35.714  53.349  1.00  0.00     0.167 HD
HETATM   10  C5  UNL     1      24.560  35.128  52.804  1.00  0.00     0.105 A
HETATM   11  N7  UNL     1      25.823  35.533  52.598  1.00  0.00    -0.350 N
ATOM     12  H7  UNL     1      26.518  34.848  52.301  1.00  0.00     0.166 HD
HETATM   13  C13 UNL     1      26.202  36.807  52.770  1.00  0.00     0.122 A
HETATM   14  C14 UNL     1      25.255  37.719  53.170  1.00  0.00     0.095 A
HETATM   15  N8  UNL     1      25.561  39.002  53.360  1.00  0.00    -0.188 N
ATOM     16  H8  UNL     1      26.517  39.324  53.207  1.00  0.00     0.184 HD
ENDROOT
BRANCH  10  17
HETATM   17  C6  UNL     1      24.179  33.713  52.605  1.00  0.00     0.044 C
HETATM   18  C7  UNL     1      25.124  32.827  52.531  1.00  0.00    -0.022 C
BRANCH  18  19
HETATM   19  C8  UNL     1      24.774  31.383  52.329  1.00  0.00     0.034 C
BRANCH  19  20
HETATM   20  C9  UNL     1      25.589  30.531  53.309  1.00  0.00     0.022 C
HETATM   21  C10 UNL     1      26.410  29.532  52.576  1.00  0.00     0.174 C
HETATM   22  O2  UNL     1      26.006  28.221  52.750  1.00  0.00    -0.381 OA
HETATM   23  C11 UNL     1      26.450  27.681  53.962  1.00  0.00     0.241 C
HETATM   24  S1  UNL     1      25.666  28.703  55.261  1.00  0.00    -0.143 SA
HETATM   25  C12 UNL     1      24.677  29.932  54.355  1.00  0.00     0.083 C
ENDBRANCH  19  20
ENDBRANCH  18  19
ENDBRANCH  10  17
BRANCH   5  26
HETATM   26  C3  UNL     1      21.090  36.633  53.900  1.00  0.00     0.364 C
HETATM   27  N4  UNL     1      20.264  36.392  52.757  1.00  0.00    -0.065 NA
HETATM   28  N5  UNL     1      19.341  37.218  53.410  1.00  0.00     0.019 NA
HETATM   29  O1  UNL     1      19.846  36.751  54.574  1.00  0.00    -0.225 OA
ENDBRANCH   5  26
BRANCH   1  30
HETATM   30  N1  UNL     1      24.979  41.105  53.919  1.00  0.00    -0.234 N
ATOM     31  H12 UNL     1      24.381  41.694  54.499  1.00  0.00     0.174 HD
ATOM     32  H11 UNL     1      25.827  41.480  53.492  1.00  0.00     0.174 HD
ENDBRANCH   1  30
TORSDOF 5
ENDMDL