MODEL 2
REMARK VINA RESULT: -6.437749893      3.281      6.243
REMARK  7 active torsions:
REMARK  status: ('A' for Active; 'I' for Inactive)
REMARK    1  A    between atoms: C2_2  and  S1_3
REMARK    2  A    between atoms: S1_3  and  C3_4
REMARK    3  A    between atoms: C3_4  and  C4_5
REMARK    4  A    between atoms: C4_5  and  C5_6
REMARK    5  A    between atoms: C8_12  and  N2_13
REMARK       I    between atoms: N2_13  and  C9_15
REMARK       I    between atoms: C9_15  and  N4_19
REMARK    6  A    between atoms: N4_19  and  N5_21
REMARK    7  A    between atoms: C12_32  and  N9_33
ROOT
HETATM    1  C5  UNL     1      23.923  34.063  54.492  1.00  0.00     0.125 A
HETATM    2  N1  UNL     1      24.032  32.755  54.740  1.00  0.00    -0.337 N
ATOM      3  H1  UNL     1      23.524  32.268  55.477  1.00  0.00     0.168 HD
HETATM    4  C6  UNL     1      24.893  32.162  53.898  1.00  0.00     0.090 A
HETATM    5  C7  UNL     1      25.328  33.217  53.084  1.00  0.00     0.149 A
HETATM    6  O1  UNL     1      24.731  34.321  53.468  1.00  0.00    -0.291 OA
HETATM    7  C8  UNL     1      26.239  32.884  52.108  1.00  0.00     0.159 A
HETATM    8  N6  UNL     1      26.690  31.631  51.939  1.00  0.00    -0.325 N
ATOM      9  H6  UNL     1      27.365  31.442  51.199  1.00  0.00     0.169 HD
HETATM   10  C10 UNL     1      26.270  30.608  52.727  1.00  0.00     0.124 A
HETATM   11  N7  UNL     1      26.724  29.351  52.555  1.00  0.00    -0.338 N
ATOM     12  H7  UNL     1      27.399  29.171  51.813  1.00  0.00     0.168 HD
HETATM   13  C11 UNL     1      26.322  28.331  53.321  1.00  0.00     0.183 A
HETATM   14  N8  UNL     1      25.438  28.562  54.293  1.00  0.00    -0.338 N
ATOM     15  H8  UNL     1      25.127  27.788  54.879  1.00  0.00     0.168 HD
HETATM   16  C12 UNL     1      24.935  29.832  54.520  1.00  0.00     0.116 A
HETATM   17  C13 UNL     1      25.354  30.873  53.728  1.00  0.00     0.081 A
ENDROOT
BRANCH   7  18
HETATM   18  N2  UNL     1      26.683  33.797  51.321  1.00  0.00    -0.173 N
HETATM   19  C9  UNL     1      27.553  34.835  51.676  1.00  0.00     0.691 C
HETATM   20  N3  UNL     1      28.821  34.618  51.710  1.00  0.00    -0.233 N
HETATM   21  N4  UNL     1      27.113  36.152  52.012  1.00  0.00    -0.139 N
ATOM     22  H32 UNL     1      29.136  33.678  51.471  1.00  0.00     0.174 HD
ATOM     23  H31 UNL     1      29.454  35.375  51.969  1.00  0.00     0.174 HD
ATOM     24  H4  UNL     1      27.721  36.804  52.509  1.00  0.00     0.205 HD
ATOM     25  H2  UNL     1      26.376  33.762  50.349  1.00  0.00     0.186 HD
BRANCH  21  26
HETATM   26  N5  UNL     1      25.824  36.513  51.637  1.00  0.00    -0.331 N
ATOM     27  H52 UNL     1      25.120  35.797  51.460  1.00  0.00     0.177 HD
ATOM     28  H51 UNL     1      25.619  37.508  51.549  1.00  0.00     0.177 HD
ENDBRANCH  21  26
ENDBRANCH   7  18
BRANCH   1  29
HETATM   29  C4  UNL     1      23.086  35.078  55.185  1.00  0.00     0.095 C
BRANCH  29  30
HETATM   30  C3  UNL     1      21.656  35.075  54.745  1.00  0.00     0.082 C
BRANCH  30  31
HETATM   31  S1  UNL     1      20.630  35.318  56.226  1.00  0.00    -0.169 SA
BRANCH  31  32
HETATM   32  C2  UNL     1      18.898  34.973  55.902  1.00  0.00     0.069 C
HETATM   33  C1  UNL     1      18.278  34.403  57.161  1.00  0.00     0.016 C
ENDBRANCH  31  32
ENDBRANCH  30  31
ENDBRANCH  29  30
ENDBRANCH   1  29
BRANCH  16  34
HETATM   34  N9  UNL     1      24.106  29.997  55.445  1.00  0.00    -0.385 N
ATOM     35  H92 UNL     1      24.246  29.596  56.373  1.00  0.00     0.157 HD
ATOM     36  H91 UNL     1      23.269  30.551  55.264  1.00  0.00     0.157 HD
ENDBRANCH  16  34
TORSDOF 7
ENDMDL