MODEL 3
REMARK VINA RESULT: -7.099260396      3.707      4.858
REMARK  8 active torsions:
REMARK  status: ('A' for Active; 'I' for Inactive)
REMARK    1  A    between atoms: C1_4  and  C2_5
REMARK    2  A    between atoms: C1_4  and  N2_8
REMARK    3  A    between atoms: C2_5  and  O1_6
REMARK    4  A    between atoms: N2_8  and  N3_10
REMARK    5  A    between atoms: N3_10  and  C3_12
REMARK    6  A    between atoms: C4_15  and  N5_16
REMARK    7  A    between atoms: C10_24  and  N7_25
REMARK    8  A    between atoms: C14_29  and  N8_30
ROOT
HETATM    1  C3  UNL     1      25.609  35.079  56.037  1.00  0.00     0.726 A
HETATM    2  N4  UNL     1      25.855  33.933  55.380  1.00  0.00    -0.020 N
ATOM      3  H4  UNL     1      26.786  33.521  55.442  1.00  0.00     0.203 HD
HETATM    4  C4  UNL     1      24.917  33.308  54.644  1.00  0.00     0.709 A
HETATM    5  N6  UNL     1      23.700  33.863  54.573  1.00  0.00    -0.021 N
ATOM      6  H6  UNL     1      22.981  33.398  54.018  1.00  0.00     0.203 HD
HETATM    7  C10 UNL     1      23.384  35.024  55.213  1.00  0.00     0.709 A
HETATM    8  N9  UNL     1      24.371  35.591  55.931  1.00  0.00    -0.020 N
ATOM      9  H9  UNL     1      24.167  36.460  56.424  1.00  0.00     0.203 HD
ENDROOT
BRANCH   1  10
HETATM   10  N3  UNL     1      26.523  35.684  56.753  1.00  0.00    -0.130 N
ATOM     11  H3  UNL     1      27.412  35.224  56.945  1.00  0.00     0.205 HD
BRANCH  10  12
HETATM   12  N2  UNL     1      26.271  36.962  57.252  1.00  0.00    -0.273 N
ATOM     13  H2  UNL     1      25.792  37.664  56.688  1.00  0.00     0.189 HD
BRANCH  12  14
HETATM   14  C1  UNL     1      26.709  37.253  58.579  1.00  0.00     0.113 C
HETATM   15  N1  UNL     1      27.938  37.515  58.858  1.00  0.00    -0.386 N
ATOM     16  H12 UNL     1      28.251  37.723  59.807  1.00  0.00     0.157 HD
ATOM     17  H11 UNL     1      28.630  37.517  58.108  1.00  0.00     0.157 HD
BRANCH  14  18
HETATM   18  C2  UNL     1      25.711  37.251  59.659  1.00  0.00     0.241 C
BRANCH  18  19
HETATM   19  O1  UNL     1      24.606  36.497  59.204  1.00  0.00    -0.393 OA
ATOM     20  H1  UNL     1      24.124  36.215  59.973  1.00  0.00     0.209 HD
ENDBRANCH  18  19
ENDBRANCH  14  18
ENDBRANCH  12  14
ENDBRANCH  10  12
ENDBRANCH   1  10
BRANCH   4  21
HETATM   21  N5  UNL     1      25.152  32.095  53.939  1.00  0.00    -0.217 N
HETATM   22  C5  UNL     1      25.663  30.938  54.649  1.00  0.00     0.141 C
HETATM   23  C6  UNL     1      24.819  29.739  54.264  1.00  0.00     0.020 C
HETATM   24  C7  UNL     1      25.029  29.476  52.781  1.00  0.00     0.003 C
HETATM   25  C8  UNL     1      25.628  30.684  52.081  1.00  0.00     0.020 C
HETATM   26  C9  UNL     1      24.905  31.949  52.521  1.00  0.00     0.141 C
ENDBRANCH   4  21
BRANCH   7  27
HETATM   27  N7  UNL     1      22.074  35.596  55.121  1.00  0.00    -0.215 N
HETATM   28  C11 UNL     1      21.887  36.671  54.184  1.00  0.00     0.141 C
HETATM   29  C12 UNL     1      20.485  36.894  53.761  1.00  0.00     0.022 C
HETATM   30  C13 UNL     1      19.492  35.913  54.305  1.00  0.00     0.036 C
HETATM   31  C14 UNL     1      19.761  35.805  55.811  1.00  0.00     0.202 C
HETATM   32  C15 UNL     1      21.045  35.060  55.969  1.00  0.00     0.173 C
BRANCH  31  33
HETATM   33  N8  UNL     1      18.639  35.136  56.394  1.00  0.00    -0.073 N
ATOM     34  H83 UNL     1      17.778  35.264  55.863  1.00  0.00     0.274 HD
ATOM     35  H82 UNL     1      18.695  34.121  56.315  1.00  0.00     0.274 HD
ATOM     36  H81 UNL     1      18.565  35.458  57.359  1.00  0.00     0.274 HD
ENDBRANCH  31  33
ENDBRANCH   7  27
TORSDOF 8
ENDMDL