MODEL 2
REMARK VINA RESULT: -6.840570113      1.396      2.654
REMARK  6 active torsions:
REMARK  status: ('A' for Active; 'I' for Inactive)
REMARK    1  A    between atoms: C3_3  and  S1_4
REMARK    2  A    between atoms: S1_4  and  C4_5
REMARK    3  A    between atoms: N3_12  and  C7_13
REMARK    4  A    between atoms: C10_19  and  C11_20
REMARK    5  A    between atoms: C15_28  and  N7_29
REMARK    6  A    between atoms: N7_29  and  N8_30
ROOT
HETATM    1  C1  UNL     1      25.046  36.602  59.632  1.00  0.00     0.013 C
HETATM    2  C2  UNL     1      26.154  36.943  59.303  1.00  0.00    -0.107 C
HETATM    3  C3  UNL     1      27.494  37.370  58.905  1.00  0.00     0.175 C
ENDROOT
BRANCH   3   4
HETATM    4  S1  UNL     1      27.989  36.530  57.360  1.00  0.00    -0.082 SA
BRANCH   4   5
HETATM    5  C4  UNL     1      26.536  36.101  56.399  1.00  0.00     0.149 A
HETATM    6  N1  UNL     1      26.178  34.835  56.207  1.00  0.00    -0.321 N
HETATM    7  C5  UNL     1      25.089  34.510  55.487  1.00  0.00     0.141 A
ATOM      8  H1  UNL     1      26.743  34.091  56.617  1.00  0.00     0.169 HD
HETATM    9  N2  UNL     1      24.535  33.354  55.164  1.00  0.00    -0.336 N
HETATM   10  C14 UNL     1      24.292  35.509  54.909  1.00  0.00     0.145 A
HETATM   11  C6  UNL     1      23.475  33.575  54.443  1.00  0.00     0.190 A
ATOM     12  H2  UNL     1      24.882  32.435  55.437  1.00  0.00     0.168 HD
HETATM   13  N3  UNL     1      23.274  34.944  54.249  1.00  0.00    -0.305 N
HETATM   14  C15 UNL     1      24.642  36.835  55.093  1.00  0.00     0.236 A
HETATM   15  N9  UNL     1      25.806  37.046  55.868  1.00  0.00    -0.308 N
ATOM     16  H9  UNL     1      26.097  38.011  56.025  1.00  0.00     0.170 HD
BRANCH  13  17
HETATM   17  C7  UNL     1      22.212  35.351  53.529  1.00  0.00     0.035 C
HETATM   18  C8  UNL     1      21.185  34.920  52.695  1.00  0.00     0.083 C
HETATM   19  C9  UNL     1      20.427  36.200  52.331  1.00  0.00     0.239 C
HETATM   20  N4  UNL     1      20.503  36.981  53.510  1.00  0.00    -0.059 N
HETATM   21  C10 UNL     1      21.314  36.238  54.460  1.00  0.00     0.298 C
ATOM     22  H42 UNL     1      20.846  37.927  53.343  1.00  0.00     0.278 HD
ATOM     23  H41 UNL     1      19.587  37.238  53.880  1.00  0.00     0.278 HD
BRANCH  21  24
HETATM   24  C11 UNL     1      20.394  35.467  55.284  1.00  0.00     0.118 A
HETATM   25  N5  UNL     1      19.116  35.946  55.494  1.00  0.00    -0.352 N
HETATM   26  C12 UNL     1      18.477  35.080  56.263  1.00  0.00     0.106 A
ATOM     27  H5  UNL     1      18.732  36.814  55.121  1.00  0.00     0.166 HD
HETATM   28  C13 UNL     1      19.309  34.048  56.559  1.00  0.00     0.106 A
HETATM   29  N6  UNL     1      20.487  34.311  55.942  1.00  0.00    -0.352 N
ATOM     30  H6  UNL     1      21.315  33.717  55.975  1.00  0.00     0.166 HD
ENDBRANCH  21  24
ENDBRANCH  13  17
BRANCH  14  31
HETATM   31  N7  UNL     1      24.094  37.792  54.684  1.00  0.00    -0.312 NA
BRANCH  31  32
HETATM   32  N8  UNL     1      23.492  38.838  54.238  1.00  0.00    -0.278 N
ATOM     33  H82 UNL     1      23.960  38.020  54.627  1.00  0.00     0.191 HD
ATOM     34  H81 UNL     1      23.016  39.668  53.883  1.00  0.00     0.191 HD
ENDBRANCH  31  32
ENDBRANCH  14  31
ENDBRANCH   4   5
ENDBRANCH   3   4
TORSDOF 6
ENDMDL