MODEL 4
REMARK VINA RESULT: -6.715722513      5.892      8.107
REMARK  7 active torsions:
REMARK  status: ('A' for Active; 'I' for Inactive)
REMARK    1  A    between atoms: N1_1  and  C1_4
REMARK    2  A    between atoms: C3_9  and  C4_10
REMARK    3  A    between atoms: C4_10  and  N4_12
REMARK    4  A    between atoms: C7_16  and  C8_17
REMARK    5  A    between atoms: C8_17  and  C9_18
REMARK    6  A    between atoms: C9_18  and  N5_19
REMARK    7  A    between atoms: C13_27  and  N8_28
ROOT
HETATM    1  C4  UNL     1      24.698  34.842  53.520  1.00  0.00     0.116 C
HETATM    2  S1  UNL     1      25.423  36.170  52.922  1.00  0.00    -0.059 SA
ENDROOT
BRANCH   1   3
HETATM    3  C3  UNL     1      23.337  34.934  53.983  1.00  0.00     0.087 A
HETATM    4  C2  UNL     1      22.331  34.560  53.099  1.00  0.00     0.148 A
HETATM    5  N2  UNL     1      21.049  34.630  53.490  1.00  0.00    -0.178 N
HETATM    6  N3  UNL     1      22.674  34.108  51.796  1.00  0.00    -0.081 NA
HETATM    7  C1  UNL     1      20.716  35.057  54.722  1.00  0.00     0.678 A
ATOM      8  H2  UNL     1      20.312  34.353  52.840  1.00  0.00     0.185 HD
HETATM    9  N9  UNL     1      21.699  35.416  55.567  1.00  0.00    -0.176 N
HETATM   10  C13 UNL     1      23.003  35.377  55.261  1.00  0.00     0.131 A
ATOM     11  H9  UNL     1      21.435  35.736  56.499  1.00  0.00     0.186 HD
BRANCH   7  12
HETATM   12  N1  UNL     1      19.454  35.112  55.071  1.00  0.00    -0.234 N
ATOM     13  H12 UNL     1      18.969  34.302  55.457  1.00  0.00     0.174 HD
ATOM     14  H11 UNL     1      18.935  35.983  54.956  1.00  0.00     0.174 HD
ENDBRANCH   7  12
BRANCH  10  15
HETATM   15  N8  UNL     1      23.939  35.717  56.058  1.00  0.00    -0.384 N
ATOM     16  H82 UNL     1      24.520  35.057  56.576  1.00  0.00     0.157 HD
ATOM     17  H81 UNL     1      24.132  36.709  56.197  1.00  0.00     0.157 HD
ENDBRANCH  10  15
ENDBRANCH   1   3
BRANCH   1  18
HETATM   18  N4  UNL     1      25.414  33.621  53.575  1.00  0.00    -0.367 N
HETATM   19  C5  UNL     1      26.328  33.214  52.525  1.00  0.00     0.150 C
HETATM   20  C6  UNL     1      25.941  31.832  52.040  1.00  0.00     0.188 C
HETATM   21  O1  UNL     1      24.905  31.293  52.799  1.00  0.00    -0.383 OA
HETATM   22  C7  UNL     1      25.326  31.309  54.131  1.00  0.00     0.141 C
HETATM   23  C12 UNL     1      25.265  32.711  54.695  1.00  0.00     0.155 C
BRANCH  22  24
HETATM   24  C8  UNL     1      24.610  30.310  54.976  1.00  0.00     0.055 C
BRANCH  24  25
HETATM   25  C9  UNL     1      25.466  29.116  55.330  1.00  0.00     0.152 C
BRANCH  25  26
HETATM   26  N5  UNL     1      26.094  28.580  54.139  1.00  0.00    -0.287 N
HETATM   27  C10 UNL     1      27.395  28.396  53.868  1.00  0.00     0.201 A
HETATM   28  N6  UNL     1      27.549  27.872  52.641  1.00  0.00    -0.346 N
HETATM   29  C11 UNL     1      26.313  27.723  52.129  1.00  0.00     0.198 A
ATOM     30  H6  UNL     1      28.430  27.634  52.187  1.00  0.00     0.167 HD
HETATM   31  N7  UNL     1      25.454  28.154  53.047  1.00  0.00    -0.293 N
ATOM     32  H7  UNL     1      24.440  28.160  52.932  1.00  0.00     0.188 HD
ENDBRANCH  25  26
ENDBRANCH  24  25
ENDBRANCH  22  24
ENDBRANCH   1  18
TORSDOF 7
ENDMDL