MODEL 2
REMARK VINA RESULT: -8.131681442      1.693      1.844
REMARK  5 active torsions:
REMARK  status: ('A' for Active; 'I' for Inactive)
REMARK    1  A    between atoms: C3_8  and  N3_9
REMARK    2  A    between atoms: C10_21  and  N6_22
REMARK    3  A    between atoms: N6_22  and  C11_24
REMARK    4  A    between atoms: N7_27  and  C14_28
REMARK    5  A    between atoms: C14_28  and  O2_29
ROOT
HETATM    1  O1  UNL     1     -18.812  37.972  -5.313  1.00  0.00    -0.247 OA
HETATM    2  C1  UNL     1     -18.515  36.834  -5.783  1.00  0.00     0.326 A
HETATM    3  N1  UNL     1     -17.976  35.784  -5.139  1.00  0.00    -0.292 N
ATOM      4  H1  UNL     1     -17.723  35.761  -4.151  1.00  0.00     0.172 HD
HETATM    5  C2  UNL     1     -17.821  34.752  -6.022  1.00  0.00     0.155 A
HETATM    6  N2  UNL     1     -17.335  33.506  -5.883  1.00  0.00    -0.174 N
ATOM      7  H2  UNL     1     -16.995  33.191  -4.975  1.00  0.00     0.186 HD
HETATM    8  C3  UNL     1     -17.294  32.662  -6.953  1.00  0.00     0.683 A
HETATM    9  N5  UNL     1     -17.761  33.156  -8.111  1.00  0.00    -0.174 N
ATOM     10  H5  UNL     1     -17.736  32.533  -8.919  1.00  0.00     0.186 HD
HETATM   11  C10 UNL     1     -18.255  34.380  -8.313  1.00  0.00     0.148 A
HETATM   12  C16 UNL     1     -18.297  35.248  -7.215  1.00  0.00     0.126 A
HETATM   13  N8  UNL     1     -18.721  36.517  -7.073  1.00  0.00    -0.302 N
ATOM     14  H8  UNL     1     -19.118  37.116  -7.797  1.00  0.00     0.171 HD
ENDROOT
BRANCH   8  15
HETATM   15  N3  UNL     1     -16.784  31.347  -6.818  1.00  0.00    -0.216 N
HETATM   16  C4  UNL     1     -15.355  31.303  -6.936  1.00  0.00     0.141 C
HETATM   17  C5  UNL     1     -14.920  30.576  -8.202  1.00  0.00     0.022 C
HETATM   18  C6  UNL     1     -14.977  29.075  -8.040  1.00  0.00     0.029 C
HETATM   19  C7  UNL     1     -16.227  28.604  -8.759  1.00  0.00     0.232 C
HETATM   20  N4  UNL     1     -17.209  29.665  -8.858  1.00  0.00    -0.074 N
HETATM   21  C8  UNL     1     -18.198  29.604  -7.828  1.00  0.00     0.252 C
ATOM     22  H42 UNL     1     -16.758  30.579  -8.876  1.00  0.00     0.277 HD
ATOM     23  H41 UNL     1     -17.643  29.676  -9.781  1.00  0.00     0.277 HD
HETATM   24  C9  UNL     1     -17.818  30.377  -6.598  1.00  0.00     0.168 C
ENDBRANCH   8  15
BRANCH  11  25
HETATM   25  N6  UNL     1     -18.743  34.838  -9.557  1.00  0.00    -0.367 N
ATOM     26  H6  UNL     1     -18.098  34.738 -10.341  1.00  0.00     0.161 HD
BRANCH  25  27
HETATM   27  C11 UNL     1     -19.994  35.416  -9.874  1.00  0.00     0.113 C
HETATM   28  C12 UNL     1     -21.200  34.531  -9.644  1.00  0.00     0.057 C
HETATM   29  C13 UNL     1     -22.193  35.030 -10.670  1.00  0.00     0.277 C
HETATM   30  N7  UNL     1     -21.486  35.748 -11.680  1.00  0.00     0.113 N
HETATM   31  C15 UNL     1     -20.076  35.701 -11.350  1.00  0.00     0.300 C
BRANCH  30  32
HETATM   32  C14 UNL     1     -21.779  35.271 -13.007  1.00  0.00     0.437 C
BRANCH  32  33
HETATM   33  O2  UNL     1     -22.996  35.717 -13.488  1.00  0.00    -0.373 OA
ATOM     34  H2  UNL     1     -22.960  36.602 -13.830  1.00  0.00     0.211 HD
ENDBRANCH  32  33
ENDBRANCH  30  32
ENDBRANCH  25  27
ENDBRANCH  11  25
TORSDOF 5
ENDMDL