MODEL 2
REMARK VINA RESULT: -6.860205147      2.526      4.760
REMARK  6 active torsions:
REMARK  status: ('A' for Active; 'I' for Inactive)
REMARK    1  A    between atoms: N2_5  and  C4_6
REMARK    2  A    between atoms: C5_9  and  N4_10
REMARK    3  A    between atoms: C7_19  and  C8_20
REMARK    4  A    between atoms: C8_20  and  C9_21
REMARK    5  A    between atoms: C10_24  and  N8_25
REMARK    6  A    between atoms: C13_28  and  O1_29
ROOT
HETATM    1  C4  UNL     1     -20.851  36.976 -10.731  1.00  0.00     0.129 A
HETATM    2  N3  UNL     1     -21.531  38.180 -10.777  1.00  0.00    -0.176 N
ATOM      3  H3  UNL     1     -22.547  38.165 -10.684  1.00  0.00     0.186 HD
HETATM    4  C5  UNL     1     -20.934  39.351 -10.938  1.00  0.00     0.679 A
HETATM    5  N5  UNL     1     -19.603  39.427 -11.068  1.00  0.00    -0.177 N
ATOM      6  H5  UNL     1     -19.147  40.331 -11.191  1.00  0.00     0.185 HD
HETATM    7  C6  UNL     1     -18.884  38.308 -11.035  1.00  0.00     0.125 A
HETATM    8  N6  UNL     1     -17.619  38.391 -11.176  1.00  0.00    -0.384 N
ATOM      9  H61 UNL     1     -17.068  37.534 -11.151  1.00  0.00     0.157 HD
ATOM     10  H62 UNL     1     -17.177  39.302 -11.297  1.00  0.00     0.157 HD
HETATM   11  C7  UNL     1     -19.492  37.058 -10.869  1.00  0.00     0.038 A
ENDROOT
BRANCH  11  12
HETATM   12  C8  UNL     1     -18.603  35.915 -11.031  1.00  0.00     0.131 C
BRANCH  12  13
HETATM   13  C9  UNL     1     -18.132  35.323  -9.712  1.00  0.00     0.132 A
HETATM   14  N7  UNL     1     -18.389  34.196  -9.099  1.00  0.00    -0.322 N
HETATM   15  C10 UNL     1     -17.706  34.165  -7.945  1.00  0.00     0.165 A
ATOM     16  H7  UNL     1     -19.007  33.461  -9.442  1.00  0.00     0.169 HD
HETATM   17  C13 UNL     1     -16.991  35.365  -7.871  1.00  0.00     0.230 A
HETATM   18  O2  UNL     1     -17.282  36.003  -8.942  1.00  0.00    -0.272 OA
BRANCH  15  19
HETATM   19  N8  UNL     1     -17.641  33.153  -6.945  1.00  0.00    -0.360 N
HETATM   20  C11 UNL     1     -17.524  31.719  -6.543  1.00  0.00     0.144 A
HETATM   21  C12 UNL     1     -17.670  32.738  -5.538  1.00  0.00     0.144 A
ENDBRANCH  15  19
BRANCH  17  22
HETATM   22  O1  UNL     1     -16.163  35.726  -6.832  1.00  0.00    -0.338 OA
ATOM     23  H1  UNL     1     -16.079  36.606  -6.485  1.00  0.00     0.220 HD
ENDBRANCH  17  22
ENDBRANCH  12  13
ENDBRANCH  11  12
BRANCH   1  24
HETATM   24  N2  UNL     1     -21.585  35.806 -10.479  1.00  0.00    -0.363 N
HETATM   25  C3  UNL     1     -22.237  35.120 -11.627  1.00  0.00     0.154 C
HETATM   26  C2  UNL     1     -23.755  35.411 -11.519  1.00  0.00     0.291 C
HETATM   27  N1  UNL     1     -24.010  35.788 -10.136  1.00  0.00     0.087 N
HETATM   28  C1  UNL     1     -25.346  36.109  -9.806  1.00  0.00     0.310 C
HETATM   29  C15 UNL     1     -23.392  34.761  -9.314  1.00  0.00     0.291 C
HETATM   30  C14 UNL     1     -21.909  35.208  -9.216  1.00  0.00     0.154 C
ENDBRANCH   1  24
BRANCH   4  31
HETATM   31  N4  UNL     1     -21.582  40.477 -10.986  1.00  0.00    -0.234 N
ATOM     32  H42 UNL     1     -21.576  41.040 -10.135  1.00  0.00     0.174 HD
ATOM     33  H41 UNL     1     -22.073  40.801 -11.819  1.00  0.00     0.174 HD
ENDBRANCH   4  31
TORSDOF 6
ENDMDL