MODEL 4
REMARK VINA RESULT: -6.423230978      1.795      2.009
REMARK  7 active torsions:
REMARK  status: ('A' for Active; 'I' for Inactive)
REMARK    1  A    between atoms: S1_2  and  C2_3
REMARK    2  A    between atoms: C2_3  and  C3_4
REMARK    3  A    between atoms: C3_4  and  O1_5
REMARK    4  A    between atoms: N1_8  and  C5_9
REMARK    5  A    between atoms: C5_9  and  C6_10
REMARK    6  A    between atoms: C10_18  and  N4_19
REMARK    7  A    between atoms: C14_29  and  N7_30
ROOT
HETATM    1  C6  UNL     1     -21.215  35.607 -10.648  1.00  0.00     0.100 A
HETATM    2  C7  UNL     1     -20.962  36.073 -11.921  1.00  0.00     0.052 A
HETATM    3  C8  UNL     1     -19.714  35.792 -12.683  1.00  0.00     0.071 C
HETATM    4  N2  UNL     1     -21.997  36.740 -12.430  1.00  0.00    -0.192 N
ATOM      5  H2  UNL     1     -22.063  37.186 -13.345  1.00  0.00     0.184 HD
HETATM    6  C9  UNL     1     -22.948  36.690 -11.451  1.00  0.00     0.708 A
HETATM    7  N3  UNL     1     -24.141  37.291 -11.473  1.00  0.00    -0.022 N
ATOM      8  H3  UNL     1     -24.432  37.785 -12.317  1.00  0.00     0.203 HD
HETATM    9  C10 UNL     1     -24.984  37.263 -10.392  1.00  0.00     0.694 A
HETATM   10  N5  UNL     1     -24.511  36.584  -9.309  1.00  0.00    -0.140 N
ATOM     11  H5  UNL     1     -25.084  36.522  -8.467  1.00  0.00     0.189 HD
HETATM   12  C11 UNL     1     -23.282  35.981  -9.327  1.00  0.00     0.360 A
HETATM   13  O2  UNL     1     -22.922  35.387  -8.305  1.00  0.00    -0.245 OA
HETATM   14  N6  UNL     1     -22.470  36.009 -10.382  1.00  0.00    -0.092 N
ENDROOT
BRANCH   1  15
HETATM   15  C5  UNL     1     -20.224  35.091  -9.749  1.00  0.00     0.123 C
BRANCH  15  16
HETATM   16  N1  UNL     1     -18.891  35.390  -9.750  1.00  0.00    -0.365 N
HETATM   17  C4  UNL     1     -18.669  36.723  -9.181  1.00  0.00     0.168 C
HETATM   18  C3  UNL     1     -17.707  36.679  -7.995  1.00  0.00     0.111 C
HETATM   19  C14 UNL     1     -16.506  35.905  -8.247  1.00  0.00     0.224 C
HETATM   20  C13 UNL     1     -16.481  35.456  -9.678  1.00  0.00     0.080 C
HETATM   21  C12 UNL     1     -17.750  34.664  -9.931  1.00  0.00     0.066 C
BRANCH  18  22
HETATM   22  C2  UNL     1     -18.459  36.138  -6.770  1.00  0.00     0.115 C
BRANCH  22  23
HETATM   23  S1  UNL     1     -18.158  37.325  -5.391  1.00  0.00    -0.170 SA
HETATM   24  C1  UNL     1     -16.618  36.822  -4.554  1.00  0.00     0.089 C
ENDBRANCH  22  23
ENDBRANCH  18  22
BRANCH  18  25
HETATM   25  O1  UNL     1     -17.453  38.021  -7.720  1.00  0.00    -0.385 OA
ATOM     26  H1  UNL     1     -18.204  38.499  -8.051  1.00  0.00     0.210 HD
ENDBRANCH  18  25
BRANCH  19  27
HETATM   27  N7  UNL     1     -15.286  36.599  -7.913  1.00  0.00    -0.072 N
ATOM     28  H73 UNL     1     -15.161  37.415  -8.513  1.00  0.00     0.274 HD
ATOM     29  H72 UNL     1     -15.372  37.064  -7.009  1.00  0.00     0.274 HD
ATOM     30  H71 UNL     1     -14.457  36.007  -7.935  1.00  0.00     0.274 HD
ENDBRANCH  19  27
ENDBRANCH  15  16
ENDBRANCH   1  15
BRANCH   9  31
HETATM   31  N4  UNL     1     -26.074  37.829 -10.421  1.00  0.00    -0.234 N
ATOM     32  H42 UNL     1     -26.469  38.258 -11.258  1.00  0.00     0.174 HD
ATOM     33  H41 UNL     1     -26.660  37.890  -9.588  1.00  0.00     0.174 HD
ENDBRANCH   9  31
TORSDOF 7
ENDMDL