MODEL 1
REMARK VINA RESULT: -7.419230838      0.000      0.000
REMARK  5 active torsions:
REMARK  status: ('A' for Active; 'I' for Inactive)
REMARK    1  A    between atoms: C2_3  and  C3_4
REMARK    2  A    between atoms: C3_4  and  N2_5
REMARK    3  A    between atoms: N3_8  and  N4_9
REMARK    4  A    between atoms: C6_10  and  C7_11
REMARK    5  A    between atoms: C11_21  and  N8_22
ROOT
HETATM    1  N1  UNL     1     -19.057  38.818  -5.128  1.00  0.00    -0.197 NA
HETATM    2  C1  UNL     1     -18.681  37.740  -5.226  1.00  0.00     0.060 C
HETATM    3  C2  UNL     1     -18.178  36.371  -5.343  1.00  0.00     0.154 C
ENDROOT
BRANCH   3   4
HETATM    4  C3  UNL     1     -16.786  36.373  -5.931  1.00  0.00     0.286 C
BRANCH   4   5
HETATM    5  N2  UNL     1     -16.726  35.731  -7.203  1.00  0.00     0.092 N
HETATM    6  C4  UNL     1     -16.495  36.690  -8.232  1.00  0.00     0.293 C
HETATM    7  C5  UNL     1     -17.823  36.987  -8.920  1.00  0.00     0.173 C
HETATM    8  N3  UNL     1     -18.400  35.796  -9.532  1.00  0.00    -0.314 N
HETATM    9  C14 UNL     1     -18.002  34.550  -8.904  1.00  0.00     0.173 C
HETATM   10  C15 UNL     1     -17.898  34.898  -7.405  1.00  0.00     0.293 C
BRANCH   8  11
HETATM   11  N4  UNL     1     -19.284  35.884 -10.611  1.00  0.00    -0.219 N
HETATM   12  C6  UNL     1     -19.017  36.032 -11.910  1.00  0.00     0.174 A
HETATM   13  N7  UNL     1     -20.207  36.049 -12.602  1.00  0.00    -0.332 N
HETATM   14  C10 UNL     1     -21.226  35.916 -11.757  1.00  0.00     0.125 A
ATOM     15  H7  UNL     1     -20.295  36.149 -13.614  1.00  0.00     0.168 HD
HETATM   16  C11 UNL     1     -22.591  35.886 -11.930  1.00  0.00     0.145 A
HETATM   17  C13 UNL     1     -20.649  35.814 -10.508  1.00  0.00     0.175 A
HETATM   18  N9  UNL     1     -23.343  35.754 -10.830  1.00  0.00    -0.175 N
HETATM   19  C12 UNL     1     -22.756  35.655  -9.594  1.00  0.00     0.679 A
ATOM     20  H9  UNL     1     -24.359  35.727 -10.912  1.00  0.00     0.186 HD
HETATM   21  N10 UNL     1     -23.524  35.538  -8.574  1.00  0.00    -0.234 N
HETATM   22  N11 UNL     1     -21.429  35.683  -9.423  1.00  0.00    -0.173 N
ATOM     23 2H10 UNL     1     -24.536  35.516  -8.704  1.00  0.00     0.174 HD
ATOM     24 1H10 UNL     1     -23.088  35.464  -7.655  1.00  0.00     0.174 HD
ATOM     25  H11 UNL     1     -21.020  35.607  -8.492  1.00  0.00     0.186 HD
BRANCH  12  26
HETATM   26  C7  UNL     1     -17.700  36.154 -12.535  1.00  0.00     0.152 A
HETATM   27  N5  UNL     1     -17.077  37.193 -13.066  1.00  0.00    -0.348 N
HETATM   28  C8  UNL     1     -15.883  36.833 -13.554  1.00  0.00     0.107 A
ATOM     29  H5  UNL     1     -17.454  38.141 -13.098  1.00  0.00     0.167 HD
HETATM   30  C9  UNL     1     -15.747  35.493 -13.316  1.00  0.00     0.107 A
HETATM   31  N6  UNL     1     -16.862  35.092 -12.695  1.00  0.00    -0.348 N
ATOM     32  H6  UNL     1     -17.054  34.137 -12.388  1.00  0.00     0.167 HD
ENDBRANCH  12  26
BRANCH  16  33
HETATM   33  N8  UNL     1     -23.147  35.964 -13.079  1.00  0.00    -0.383 N
ATOM     34  H82 UNL     1     -24.061  35.538 -13.233  1.00  0.00     0.157 HD
ATOM     35  H81 UNL     1     -22.713  36.431 -13.875  1.00  0.00     0.157 HD
ENDBRANCH  16  33
ENDBRANCH   8  11
ENDBRANCH   4   5
ENDBRANCH   3   4
TORSDOF 5
ENDMDL