MODEL 3
REMARK VINA RESULT: -7.534400747      1.487      2.052
REMARK  6 active torsions:
REMARK  status: ('A' for Active; 'I' for Inactive)
REMARK    1  A    between atoms: C5_8  and  C6_9
REMARK    2  A    between atoms: C7_12  and  C8_13
REMARK    3  A    between atoms: C10_19  and  N6_20
REMARK    4  A    between atoms: C11_25  and  N8_26
REMARK    5  A    between atoms: N8_26  and  N9_28
REMARK    6  A    between atoms: N9_28  and  C12_30
ROOT
HETATM    1  C6  UNL     1     -18.188  35.821  -9.469  1.00  0.00     0.077 A
HETATM    2  N3  UNL     1     -17.188  35.837 -10.378  1.00  0.00    -0.336 N
ATOM      3  H3  UNL     1     -16.230  35.881 -10.028  1.00  0.00     0.168 HD
HETATM    4  C7  UNL     1     -17.364  35.798 -11.685  1.00  0.00     0.172 A
HETATM    5  N5  UNL     1     -18.645  35.737 -12.149  1.00  0.00    -0.333 N
ATOM      6  H5  UNL     1     -18.795  35.707 -13.158  1.00  0.00     0.168 HD
HETATM    7  C9  UNL     1     -19.717  35.715 -11.342  1.00  0.00     0.108 A
HETATM    8  C10 UNL     1     -21.008  35.635 -11.822  1.00  0.00     0.144 A
HETATM    9  N7  UNL     1     -22.052  35.595 -10.983  1.00  0.00    -0.173 N
ATOM     10  H7  UNL     1     -23.003  35.536 -11.347  1.00  0.00     0.186 HD
HETATM   11  C11 UNL     1     -21.833  35.633  -9.660  1.00  0.00     0.698 A
HETATM   12  N10 UNL     1     -20.556  35.714  -9.172  1.00  0.00    -0.186 N
ATOM     13  H10 UNL     1     -20.420  35.743  -8.161  1.00  0.00     0.184 HD
HETATM   14  C15 UNL     1     -19.486  35.757  -9.962  1.00  0.00     0.107 A
ENDROOT
BRANCH   1  15
HETATM   15  C5  UNL     1     -17.955  35.862  -8.038  1.00  0.00     0.034 A
HETATM   16  C2  UNL     1     -17.697  34.779  -7.186  1.00  0.00     0.036 A
HETATM   17  C1  UNL     1     -17.687  33.373  -7.681  1.00  0.00     0.070 C
HETATM   18  N1  UNL     1     -17.505  35.266  -5.958  1.00  0.00    -0.303 N
HETATM   19  N2  UNL     1     -17.618  36.602  -5.937  1.00  0.00    -0.307 N
ATOM     20  H1  UNL     1     -17.299  34.695  -5.140  1.00  0.00     0.186 HD
HETATM   21  C3  UNL     1     -17.476  37.485  -4.797  1.00  0.00     0.177 C
HETATM   22  C4  UNL     1     -17.892  36.949  -7.211  1.00  0.00     0.125 A
ENDBRANCH   1  15
BRANCH   4  23
HETATM   23  C8  UNL     1     -16.271  35.816 -12.677  1.00  0.00     0.298 C
HETATM   24  N4  UNL     1     -16.174  34.866 -13.697  1.00  0.00    -0.054 NA
HETATM   25  O1  UNL     1     -15.418  36.738 -12.560  1.00  0.00    -0.268 OA
ENDBRANCH   4  23
BRANCH   8  26
HETATM   26  N6  UNL     1     -21.178  35.598 -13.108  1.00  0.00    -0.383 N
ATOM     27  H62 UNL     1     -20.764  36.304 -13.716  1.00  0.00     0.157 HD
ATOM     28  H61 UNL     1     -21.741  34.840 -13.495  1.00  0.00     0.157 HD
ENDBRANCH   8  26
BRANCH  11  29
HETATM   29  N8  UNL     1     -22.753  35.569  -8.790  1.00  0.00    -0.136 N
ATOM     30  H8  UNL     1     -22.720  36.344  -8.130  1.00  0.00     0.205 HD
BRANCH  29  31
HETATM   31  N9  UNL     1     -23.765  34.715  -8.533  1.00  0.00    -0.318 N
ATOM     32  H9  UNL     1     -23.533  33.924  -7.934  1.00  0.00     0.181 HD
BRANCH  31  33
HETATM   33  C12 UNL     1     -25.129  34.770  -8.989  1.00  0.00     0.091 C
HETATM   34  C13 UNL     1     -26.103  34.746  -7.826  1.00  0.00     0.033 C
HETATM   35  C14 UNL     1     -25.383  36.135  -9.665  1.00  0.00     0.033 C
ENDBRANCH  31  33
ENDBRANCH  29  31
ENDBRANCH  11  29
TORSDOF 6
ENDMDL