MODEL 1
REMARK VINA RESULT: -7.181976342      0.000      0.000
REMARK  9 active torsions:
REMARK  status: ('A' for Active; 'I' for Inactive)
REMARK    1  A    between atoms: C2_2  and  N1_3
REMARK    2  A    between atoms: N2_5  and  C4_6
REMARK    3  A    between atoms: C4_6  and  C5_7
REMARK    4  A    between atoms: C5_7  and  C6_8
REMARK    5  A    between atoms: C11_17  and  O1_18
REMARK    6  A    between atoms: C12_20  and  N5_21
REMARK    7  A    between atoms: N5_21  and  O2_22
REMARK    8  A    between atoms: N5_21  and  O3_24
REMARK    9  A    between atoms: C13_26  and  N6_27
ROOT
HETATM    1  C6  UNL     1     -17.343  34.060  -7.693  1.00  0.00     0.041 A
HETATM    2  C7  UNL     1     -15.966  34.091  -7.672  1.00  0.00     0.082 A
HETATM    3  S1  UNL     1     -15.588  32.456  -7.358  1.00  0.00    -0.071 SA
HETATM    4  C8  UNL     1     -17.175  31.836  -7.271  1.00  0.00     0.156 A
HETATM    5  C9  UNL     1     -17.623  30.466  -7.022  1.00  0.00     0.125 C
HETATM    6  N3  UNL     1     -17.957  29.381  -6.829  1.00  0.00    -0.189 NA
HETATM    7  N4  UNL     1     -17.910  32.912  -7.487  1.00  0.00    -0.342 N
ATOM      8  H4  UNL     1     -18.927  32.839  -7.493  1.00  0.00     0.167 HD
ENDROOT
BRANCH   1   9
HETATM    9  C5  UNL     1     -18.116  35.303  -7.941  1.00  0.00     0.047 C
BRANCH   9  10
HETATM   10  C4  UNL     1     -19.346  35.202  -8.475  1.00  0.00     0.100 C
BRANCH  10  11
HETATM   11  N2  UNL     1     -19.591  35.503  -9.823  1.00  0.00    -0.312 N
HETATM   12  C3  UNL     1     -18.650  35.604 -10.786  1.00  0.00     0.192 A
HETATM   13  N1  UNL     1     -19.220  35.903 -11.957  1.00  0.00    -0.327 N
HETATM   14  C14 UNL     1     -20.564  36.002 -11.764  1.00  0.00     0.140 A
HETATM   15  C10 UNL     1     -20.757  35.742 -10.399  1.00  0.00     0.120 A
HETATM   16  N7  UNL     1     -21.589  36.275 -12.587  1.00  0.00    -0.325 N
HETATM   17  C11 UNL     1     -22.066  35.787  -9.967  1.00  0.00     0.126 A
HETATM   18  C12 UNL     1     -23.098  36.074 -10.842  1.00  0.00     0.144 A
HETATM   19  C13 UNL     1     -22.867  36.324 -12.179  1.00  0.00     0.129 A
ATOM     20  H7  UNL     1     -21.387  36.454 -13.570  1.00  0.00     0.169 HD
BRANCH  13  21
HETATM   21  C2  UNL     1     -18.572  36.102 -13.256  1.00  0.00     0.127 C
HETATM   22  C1  UNL     1     -17.226  35.398 -13.166  1.00  0.00     0.027 C
ENDBRANCH  13  21
BRANCH  17  23
HETATM   23  O1  UNL     1     -22.339  35.546  -8.651  1.00  0.00    -0.356 OA
ATOM     24  H1  UNL     1     -23.213  35.718  -8.322  1.00  0.00     0.218 HD
ENDBRANCH  17  23
BRANCH  18  25
HETATM   25  N5  UNL     1     -24.449  36.119 -10.390  1.00  0.00    -0.030 NA
BRANCH  25  26
HETATM   26  O2  UNL     1     -24.735  34.941  -9.796  1.00  0.00    -0.284 OA
ATOM     27  H2  UNL     1     -25.225  35.120  -9.002  1.00  0.00     0.240 HD
ENDBRANCH  25  26
BRANCH  25  28
HETATM   28  O3  UNL     1     -24.554  37.148  -9.506  1.00  0.00    -0.284 OA
ATOM     29  H3  UNL     1     -25.389  37.575  -9.658  1.00  0.00     0.240 HD
ENDBRANCH  25  28
ENDBRANCH  18  25
BRANCH  19  30
HETATM   30  N6  UNL     1     -23.837  36.591 -12.994  1.00  0.00    -0.384 N
ATOM     31  H62 UNL     1     -24.554  37.281 -12.773  1.00  0.00     0.157 HD
ATOM     32  H61 UNL     1     -23.921  36.118 -13.894  1.00  0.00     0.157 HD
ENDBRANCH  19  30
ENDBRANCH  10  11
ENDBRANCH   9  10
ENDBRANCH   1   9
TORSDOF 9
ENDMDL