MODEL 4
REMARK VINA RESULT: -7.866867895      1.312      1.679
REMARK  7 active torsions:
REMARK  status: ('A' for Active; 'I' for Inactive)
REMARK    1  A    between atoms: C4_8  and  N4_9
REMARK    2  A    between atoms: C5_14  and  N6_15
REMARK    3  A    between atoms: N6_15  and  N7_17
REMARK    4  A    between atoms: C6_19  and  C7_20
REMARK    5  A    between atoms: C10_25  and  N9_26
REMARK    6  A    between atoms: N9_26  and  C11_28
REMARK    7  A    between atoms: C11_28  and  C12_29
ROOT
HETATM    1  N1  UNL     1     -21.081  34.001  -9.818  1.00  0.00    -0.191 NA
HETATM    2  C1  UNL     1     -21.968  34.724  -9.972  1.00  0.00     0.107 C
HETATM    3  C2  UNL     1     -23.074  35.631 -10.163  1.00  0.00     0.132 A
HETATM    4  C3  UNL     1     -24.252  35.476  -9.436  1.00  0.00     0.156 A
HETATM    5  N2  UNL     1     -24.378  34.426  -8.502  1.00  0.00    -0.080 NA
HETATM    6  N3  UNL     1     -25.254  36.357  -9.655  1.00  0.00    -0.177 N
ATOM      7  H3  UNL     1     -26.120  36.248  -9.126  1.00  0.00     0.185 HD
HETATM    8  C4  UNL     1     -25.170  37.365 -10.532  1.00  0.00     0.678 A
HETATM    9  N5  UNL     1     -24.041  37.513 -11.229  1.00  0.00    -0.174 N
ATOM     10  H5  UNL     1     -23.961  38.277 -11.901  1.00  0.00     0.186 HD
HETATM   11  C5  UNL     1     -23.010  36.673 -11.057  1.00  0.00     0.159 A
ENDROOT
BRANCH  11  12
HETATM   12  N6  UNL     1     -21.926  36.838 -11.744  1.00  0.00    -0.284 N
ATOM     13  H6  UNL     1     -21.666  36.143 -12.445  1.00  0.00     0.188 HD
BRANCH  12  14
HETATM   14  N7  UNL     1     -21.135  37.911 -11.550  1.00  0.00    -0.308 N
HETATM   15  C6  UNL     1     -19.906  37.989 -11.412  1.00  0.00     0.137 C
ATOM     16  H7  UNL     1     -21.628  38.803 -11.511  1.00  0.00     0.186 HD
BRANCH  15  17
HETATM   17  C7  UNL     1     -18.939  36.943 -11.418  1.00  0.00     0.067 A
HETATM   18  C8  UNL     1     -18.086  36.623 -12.425  1.00  0.00     0.049 A
HETATM   19  C9  UNL     1     -17.171  35.568 -12.321  1.00  0.00     0.108 A
HETATM   20  N8  UNL     1     -17.136  34.855 -11.199  1.00  0.00    -0.202 N
HETATM   21  C10 UNL     1     -17.978  35.151 -10.171  1.00  0.00     0.678 A
ATOM     22  H8  UNL     1     -16.475  34.083 -11.108  1.00  0.00     0.183 HD
HETATM   23  N10 UNL     1     -18.844  36.163 -10.292  1.00  0.00    -0.191 N
ATOM     24  H10 UNL     1     -19.465  36.367  -9.509  1.00  0.00     0.184 HD
BRANCH  21  25
HETATM   25  N9  UNL     1     -17.932  34.461  -9.106  1.00  0.00    -0.224 N
ATOM     26  H9  UNL     1     -17.626  33.492  -9.193  1.00  0.00     0.177 HD
BRANCH  25  27
HETATM   27  C11 UNL     1     -18.270  34.921  -7.796  1.00  0.00     0.170 C
BRANCH  27  28
HETATM   28  C12 UNL     1     -17.135  34.648  -6.802  1.00  0.00     0.139 C
HETATM   29  C13 UNL     1     -17.567  35.197  -5.470  1.00  0.00     0.035 C
HETATM   30  C14 UNL     1     -18.064  33.972  -4.750  1.00  0.00     0.029 C
HETATM   31  C15 UNL     1     -17.620  32.824  -5.603  1.00  0.00     0.168 C
HETATM   32  O1  UNL     1     -16.890  33.311  -6.655  1.00  0.00    -0.384 OA
ENDBRANCH  27  28
ENDBRANCH  25  27
ENDBRANCH  21  25
ENDBRANCH  15  17
ENDBRANCH  12  14
ENDBRANCH  11  12
BRANCH   8  33
HETATM   33  N4  UNL     1     -26.159  38.174 -10.700  1.00  0.00    -0.234 N
ATOM     34  H42 UNL     1     -27.013  38.076 -10.151  1.00  0.00     0.174 HD
ATOM     35  H41 UNL     1     -26.103  38.928 -11.384  1.00  0.00     0.174 HD
ENDBRANCH   8  33
TORSDOF 7
ENDMDL