MODEL 4
REMARK VINA RESULT: -6.533034499      2.576      4.523
REMARK  5 active torsions:
REMARK  status: ('A' for Active; 'I' for Inactive)
REMARK    1  A    between atoms: N1_1  and  C1_4
REMARK    2  A    between atoms: C3_10  and  N4_11
REMARK    3  A    between atoms: N5_14  and  C6_15
REMARK    4  A    between atoms: C6_15  and  C7_16
REMARK    5  A    between atoms: C6_15  and  C10_23
ROOT
HETATM    1  N4  UNL     1     -18.932  36.744 -10.103  1.00  0.00    -0.362 N
HETATM    2  C4  UNL     1     -17.571  36.590 -10.538  1.00  0.00     0.154 C
HETATM    3  C5  UNL     1     -17.324  35.128 -10.751  1.00  0.00     0.293 C
HETATM    4  N5  UNL     1     -17.535  34.334  -9.566  1.00  0.00     0.107 N
HETATM    5  C15 UNL     1     -18.743  34.605  -8.884  1.00  0.00     0.293 C
HETATM    6  C16 UNL     1     -19.161  36.061  -8.812  1.00  0.00     0.154 C
ENDROOT
BRANCH   4   7
HETATM    7  C6  UNL     1     -16.366  34.287  -8.721  1.00  0.00     0.322 C
BRANCH   7   8
HETATM    8  C7  UNL     1     -15.859  32.896  -8.672  1.00  0.00     0.111 C
HETATM    9  N6  UNL     1     -14.887  32.509  -7.912  1.00  0.00    -0.376 N
HETATM   10  C8  UNL     1     -14.635  31.103  -8.098  1.00  0.00     0.140 C
ATOM     11  H6  UNL     1     -14.371  33.113  -7.272  1.00  0.00     0.160 HD
HETATM   12  C9  UNL     1     -15.897  30.611  -8.760  1.00  0.00     0.140 C
HETATM   13  N7  UNL     1     -16.355  31.819  -9.435  1.00  0.00    -0.376 N
ATOM     14  H7  UNL     1     -16.918  31.874 -10.283  1.00  0.00     0.160 HD
ENDBRANCH   7   8
BRANCH   7  15
HETATM   15  C10 UNL     1     -16.722  34.675  -7.334  1.00  0.00    -0.015 A
HETATM   16  C11 UNL     1     -16.276  35.910  -6.851  1.00  0.00     0.026 A
HETATM   17  C12 UNL     1     -16.554  36.323  -5.595  1.00  0.00     0.088 A
HETATM   18  N8  UNL     1     -17.264  35.570  -4.767  1.00  0.00    -0.375 N
HETATM   19  C13 UNL     1     -17.709  34.367  -5.212  1.00  0.00     0.088 A
ATOM     20  H8  UNL     1     -17.471  35.886  -3.819  1.00  0.00     0.164 HD
HETATM   21  C14 UNL     1     -17.452  33.910  -6.469  1.00  0.00     0.026 A
ENDBRANCH   7  15
ENDBRANCH   4   7
BRANCH   1  22
HETATM   22  C3  UNL     1     -20.003  37.384 -10.719  1.00  0.00     0.132 A
HETATM   23  N3  UNL     1     -20.179  38.745 -10.658  1.00  0.00    -0.337 N
HETATM   24  C2  UNL     1     -21.233  39.361 -11.219  1.00  0.00     0.183 A
ATOM     25  H3  UNL     1     -19.484  39.309 -10.170  1.00  0.00     0.168 HD
HETATM   26  N2  UNL     1     -22.187  38.704 -11.877  1.00  0.00    -0.337 N
HETATM   27  C1  UNL     1     -22.083  37.379 -11.977  1.00  0.00     0.128 A
ATOM     28  H2  UNL     1     -22.976  39.201 -12.293  1.00  0.00     0.168 HD
HETATM   29  C17 UNL     1     -20.984  36.723 -11.393  1.00  0.00     0.133 A
HETATM   30  N9  UNL     1     -20.987  35.323 -11.541  1.00  0.00    -0.094 NA
BRANCH  27  31
HETATM   31  N1  UNL     1     -23.004  36.716 -12.613  1.00  0.00    -0.384 N
ATOM     32  H12 UNL     1     -23.979  36.745 -12.314  1.00  0.00     0.157 HD
ATOM     33  H11 UNL     1     -22.744  36.159 -13.427  1.00  0.00     0.157 HD
ENDBRANCH  27  31
ENDBRANCH   1  22
TORSDOF 5
ENDMDL