MODEL 4
REMARK VINA RESULT: -7.434725868      4.419      7.523
REMARK  7 active torsions:
REMARK  status: ('A' for Active; 'I' for Inactive)
REMARK    1  A    between atoms: N3_7  and  C4_8
REMARK    2  A    between atoms: C7_11  and  C8_12
REMARK    3  A    between atoms: C8_12  and  N4_13
REMARK    4  A    between atoms: C11_18  and  N6_19
REMARK    5  A    between atoms: C12_24  and  N8_25
REMARK    6  A    between atoms: C14_31  and  C15_32
REMARK    7  A    between atoms: C15_32  and  N10_33
ROOT
HETATM    1  C1  UNL     1     -17.037  27.616  -9.776  1.00  0.00     0.021 C
HETATM    2  C2  UNL     1     -17.142  28.602  -9.081  1.00  0.00    -0.039 C
HETATM    3  C3  UNL     1     -17.268  29.752  -8.239  1.00  0.00     0.189 A
HETATM    4  N1  UNL     1     -18.016  29.819  -7.125  1.00  0.00    -0.260 N
ATOM      5  H1  UNL     1     -18.582  29.060  -6.747  1.00  0.00     0.186 HD
HETATM    6  N2  UNL     1     -17.899  31.043  -6.589  1.00  0.00    -0.002 NA
HETATM    7  N3  UNL     1     -17.078  31.754  -7.363  1.00  0.00    -0.211 N
HETATM    8  N11 UNL     1     -16.696  30.973  -8.360  1.00  0.00    -0.262 N
ATOM      9  H11 UNL     1     -16.064  31.250  -9.111  1.00  0.00     0.190 HD
ENDROOT
BRANCH   7  10
HETATM   10  C4  UNL     1     -16.681  33.129  -7.144  1.00  0.00     0.125 C
HETATM   11  C5  UNL     1     -15.436  33.428  -7.974  1.00  0.00     0.029 C
HETATM   12  C6  UNL     1     -14.955  34.838  -7.728  1.00  0.00     0.009 C
HETATM   13  C7  UNL     1     -16.051  35.628  -7.109  1.00  0.00     0.010 C
HETATM   14  C14 UNL     1     -17.302  35.402  -7.934  1.00  0.00     0.018 C
HETATM   15  C16 UNL     1     -17.833  34.031  -7.589  1.00  0.00     0.035 C
BRANCH  13  16
HETATM   16  C8  UNL     1     -15.733  37.097  -6.966  1.00  0.00     0.136 C
BRANCH  16  17
HETATM   17  N4  UNL     1     -15.313  37.461  -5.658  1.00  0.00    -0.327 N
HETATM   18  C9  UNL     1     -15.970  37.208  -4.517  1.00  0.00     0.185 A
HETATM   19  N5  UNL     1     -15.251  37.709  -3.498  1.00  0.00    -0.346 N
HETATM   20  C10 UNL     1     -14.142  38.280  -3.959  1.00  0.00     0.123 A
ATOM     21  H5  UNL     1     -15.516  37.659  -2.514  1.00  0.00     0.167 HD
HETATM   22  C11 UNL     1     -13.094  38.927  -3.315  1.00  0.00     0.145 A
HETATM   23  C13 UNL     1     -14.176  38.125  -5.337  1.00  0.00     0.155 A
HETATM   24  N7  UNL     1     -12.118  39.392  -4.111  1.00  0.00    -0.175 N
HETATM   25  C12 UNL     1     -12.114  39.260  -5.458  1.00  0.00     0.679 A
ATOM     26  H7  UNL     1     -11.331  39.873  -3.674  1.00  0.00     0.186 HD
HETATM   27  N9  UNL     1     -13.150  38.626  -6.039  1.00  0.00    -0.174 N
ATOM     28  H9  UNL     1     -13.154  38.524  -7.054  1.00  0.00     0.186 HD
BRANCH  22  29
HETATM   29  N6  UNL     1     -13.079  39.063  -2.030  1.00  0.00    -0.383 N
ATOM     30  H62 UNL     1     -13.007  39.969  -1.569  1.00  0.00     0.157 HD
ATOM     31  H61 UNL     1     -13.138  38.254  -1.413  1.00  0.00     0.157 HD
ENDBRANCH  22  29
BRANCH  25  32
HETATM   32  N8  UNL     1     -11.126  39.738  -6.178  1.00  0.00    -0.234 N
ATOM     33  H82 UNL     1     -10.211  39.915  -5.762  1.00  0.00     0.174 HD
ATOM     34  H81 UNL     1     -11.253  39.942  -7.170  1.00  0.00     0.174 HD
ENDBRANCH  25  32
ENDBRANCH  16  17
ENDBRANCH  13  16
BRANCH  14  35
HETATM   35  C15 UNL     1     -18.266  36.510  -7.692  1.00  0.00     0.234 C
BRANCH  35  36
HETATM   36  N10 UNL     1     -19.079  36.236  -6.506  1.00  0.00    -0.079 N
ATOM     37 3H10 UNL     1     -20.076  36.259  -6.717  1.00  0.00     0.274 HD
ATOM     38 2H10 UNL     1     -19.006  35.262  -6.213  1.00  0.00     0.274 HD
ATOM     39 1H10 UNL     1     -18.838  36.877  -5.750  1.00  0.00     0.274 HD
ENDBRANCH  35  36
ENDBRANCH  14  35
ENDBRANCH   7  10
TORSDOF 7
ENDMDL