MODEL 5
REMARK VINA RESULT: -5.999065896      2.473      2.886
REMARK  6 active torsions:
REMARK  status: ('A' for Active; 'I' for Inactive)
REMARK    1  A    between atoms: C2_2  and  C4_4
REMARK    2  A    between atoms: C4_4  and  C5_5
REMARK    3  A    between atoms: C4_4  and  N1_11
REMARK    4  A    between atoms: C5_5  and  C6_6
REMARK    5  A    between atoms: C6_6  and  C7_7
REMARK    6  A    between atoms: N1_11  and  O1_13
ROOT
HETATM    1  C4  UNL     1      21.891  16.953  13.197  1.00  0.00     0.035 C
ENDROOT
BRANCH   1   2
HETATM    2  C2  UNL     1      22.239  17.600  14.506  1.00  0.00     0.029 C
HETATM    3  C1  UNL     1      21.240  18.615  14.966  1.00  0.00     0.016 C
HETATM    4  C3  UNL     1      22.370  16.561  15.600  1.00  0.00     0.016 C
ENDBRANCH   1   2
BRANCH   1   5
HETATM    5  C5  UNL     1      23.039  16.508  12.420  1.00  0.00     0.028 C
BRANCH   5   6
HETATM    6  C6  UNL     1      23.040  16.453  10.994  1.00  0.00     0.016 C
BRANCH   6   7
HETATM    7  C7  UNL     1      23.654  17.030  10.013  1.00  0.00    -0.021 C
HETATM    8  C8  UNL     1      23.341  18.282   9.198  1.00  0.00     0.056 C
HETATM    9  C9  UNL     1      24.029  17.836   7.924  1.00  0.00     0.084 C
HETATM   10  S1  UNL     1      25.092  16.863   9.009  1.00  0.00    -0.134 SA
ENDBRANCH   6   7
ENDBRANCH   5   6
ENDBRANCH   1   5
BRANCH   1  11
HETATM   11  N1  UNL     1      20.690  16.848  12.884  1.00  0.00    -0.273 N
ATOM     12  H1  UNL     1      20.202  17.741  12.949  1.00  0.00     0.193 HD
BRANCH  11  13
HETATM   13  O1  UNL     1      19.887  15.876  12.490  1.00  0.00    -0.290 OA
ATOM     14  H1  UNL     1      19.374  15.195  12.910  1.00  0.00     0.244 HD
ENDBRANCH  11  13
ENDBRANCH   1  11
TORSDOF 6
ENDMDL