MODEL 3
REMARK VINA RESULT: -6.597741084      1.357      1.698
REMARK  2 active torsions:
REMARK  status: ('A' for Active; 'I' for Inactive)
REMARK    1  A    between atoms: C2_5  and  N3_6
REMARK    2  A    between atoms: N3_6  and  N4_8
ROOT
HETATM    1  N1  UNL     1      22.650  18.872   9.152  1.00  0.00    -0.172 NA
HETATM    2  C1  UNL     1      23.320  17.970   9.345  1.00  0.00     0.182 C
HETATM    3  N2  UNL     1      24.160  16.880   9.582  1.00  0.00    -0.289 N
ATOM      4  H2  UNL     1      24.818  16.588   8.860  1.00  0.00     0.178 HD
HETATM    5  C2  UNL     1      24.117  16.241  10.694  1.00  0.00     0.207 C
ENDROOT
BRANCH   5   6
HETATM    6  N3  UNL     1      23.200  16.652  11.702  1.00  0.00    -0.296 N
ATOM      7  H3  UNL     1      22.506  17.367  11.484  1.00  0.00     0.187 HD
BRANCH   6   8
HETATM    8  N4  UNL     1      23.230  16.100  12.977  1.00  0.00    -0.308 N
HETATM    9  C3  UNL     1      22.531  16.638  13.906  1.00  0.00     0.004 C
HETATM   10  C4  UNL     1      22.687  15.911  15.214  1.00  0.00     0.054 C
HETATM   11  C9  UNL     1      21.756  17.807  13.507  1.00  0.00     0.054 C
HETATM   12  C5  UNL     1      22.263  16.746  16.373  1.00  0.00     0.006 C
HETATM   13  C6  UNL     1      22.843  18.142  16.180  1.00  0.00     0.000 C
HETATM   14  C7  UNL     1      21.709  19.018  15.701  1.00  0.00     0.000 C
HETATM   15  C8  UNL     1      20.919  18.394  14.596  1.00  0.00     0.006 C
ATOM     16  H4  UNL     1      23.801  15.278  13.171  1.00  0.00     0.186 HD
ENDBRANCH   6   8
ENDBRANCH   5   6
TORSDOF 2
ENDMDL