MODEL 3
REMARK VINA RESULT: -3.811681893      1.999      2.943
REMARK  3 active torsions:
REMARK  status: ('A' for Active; 'I' for Inactive)
REMARK    1  A    between atoms: C2_2  and  C3_3
REMARK    2  A    between atoms: C3_3  and  C4_4
REMARK    3  A    between atoms: C4_4  and  O1_5
ROOT
HETATM    1  C4  UNL     1      21.780  17.417  14.570  1.00  0.00     0.138 C
HETATM    2  S1  UNL     1      20.525  18.141  13.458  1.00  0.00    -0.097 SA
HETATM    3  C5  UNL     1      20.657  16.756  12.258  1.00  0.00     0.183 C
HETATM    4  C6  UNL     1      19.303  16.036  12.351  1.00  0.00     0.051 C
HETATM    5  O2  UNL     1      21.594  15.928  12.746  1.00  0.00    -0.362 OA
HETATM    6  C7  UNL     1      22.404  16.410  13.675  1.00  0.00     0.096 C
HETATM    7  C8  UNL     1      23.675  16.957  13.007  1.00  0.00     0.050 C
HETATM    8  C9  UNL     1      22.891  15.272  14.566  1.00  0.00     0.050 C
ENDROOT
BRANCH   1   9
HETATM    9  C3  UNL     1      22.736  18.484  15.055  1.00  0.00     0.052 C
BRANCH   9  10
HETATM   10  C2  UNL     1      22.577  18.650  16.541  1.00  0.00    -0.001 C
HETATM   11  C1  UNL     1      23.338  17.625  17.322  1.00  0.00     0.005 C
ENDBRANCH   9  10
ENDBRANCH   1   9
BRANCH   1  12
HETATM   12  O1  UNL     1      21.114  16.803  15.627  1.00  0.00    -0.376 OA
ATOM     13  H1  UNL     1      21.185  15.857  15.585  1.00  0.00     0.211 HD
ENDBRANCH   1  12
TORSDOF 3
ENDMDL