MODEL 3
REMARK VINA RESULT: -5.255815509      2.343      4.507
REMARK  2 active torsions:
REMARK  status: ('A' for Active; 'I' for Inactive)
REMARK    1  A    between atoms: C2_2  and  C4_4
REMARK    2  A    between atoms: C4_4  and  C5_5
ROOT
HETATM    1  C5  UNL     1      22.230  16.468  12.904  1.00  0.00     0.178 C
HETATM    2  O1  UNL     1      22.501  16.827  14.254  1.00  0.00    -0.374 OA
HETATM    3  C6  UNL     1      22.352  18.149  14.536  1.00  0.00     0.128 C
HETATM    4  C7  UNL     1      23.056  18.454  15.869  1.00  0.00     0.040 C
HETATM    5  C8  UNL     1      20.873  18.454  14.837  1.00  0.00     0.112 C
HETATM    6  S1  UNL     1      20.069  18.226  13.197  1.00  0.00    -0.112 SA
HETATM    7  C9  UNL     1      20.814  16.688  12.588  1.00  0.00     0.069 C
HETATM    8  N1  UNL     1      20.022  15.919  11.961  1.00  0.00    -0.395 N
ATOM      9  H11 UNL     1      19.037  16.072  11.741  1.00  0.00     0.156 HD
ATOM     10  H12 UNL     1      20.441  15.054  11.618  1.00  0.00     0.156 HD
ENDROOT
BRANCH   1  11
HETATM   11  C4  UNL     1      23.263  16.975  11.993  1.00  0.00     0.042 C
BRANCH  11  12
HETATM   12  C2  UNL     1      23.160  16.786  10.538  1.00  0.00    -0.020 C
HETATM   13  C1  UNL     1      24.445  16.659   9.770  1.00  0.00     0.009 C
HETATM   14  C3  UNL     1      22.205  17.759   9.861  1.00  0.00     0.009 C
ENDBRANCH  11  12
ENDBRANCH   1  11
TORSDOF 2
ENDMDL