MODEL 1
REMARK VINA RESULT: -6.046671888      0.000      0.000
REMARK  3 active torsions:
REMARK  status: ('A' for Active; 'I' for Inactive)
REMARK    1  A    between atoms: C8_8  and  N1_9
REMARK    2  A    between atoms: C8_8  and  N2_13
REMARK    3  A    between atoms: N2_13  and  O1_14
ROOT
HETATM    1  C1  UNL     1      23.849  16.546  10.845  1.00  0.00     0.010 C
HETATM    2  C2  UNL     1      22.854  16.323  11.945  1.00  0.00    -0.010 C
HETATM    3  C3  UNL     1      23.104  17.305  13.034  1.00  0.00     0.013 C
HETATM    4  C4  UNL     1      22.192  17.059  14.183  1.00  0.00    -0.044 C
HETATM    5  C5  UNL     1      21.958  18.406  14.877  1.00  0.00     0.015 C
HETATM    6  C6  UNL     1      22.911  16.198  15.231  1.00  0.00     0.015 C
HETATM    7  C7  UNL     1      20.909  16.401  13.864  1.00  0.00     0.068 C
HETATM    8  C8  UNL     1      20.409  16.533  12.477  1.00  0.00     0.222 C
HETATM    9  C9  UNL     1      21.427  16.479  11.400  1.00  0.00     0.040 C
HETATM   10  C10 UNL     1      21.391  17.657  10.454  1.00  0.00     0.014 C
ENDROOT
BRANCH   8  11
HETATM   11  N1  UNL     1      19.562  17.734  12.404  1.00  0.00    -0.053 N
ATOM     12  H13 UNL     1      19.211  18.023  13.317  1.00  0.00     0.276 HD
ATOM     13  H12 UNL     1      20.094  18.577  12.187  1.00  0.00     0.276 HD
ATOM     14  H11 UNL     1      18.814  17.558  11.734  1.00  0.00     0.276 HD
ENDBRANCH   8  11
BRANCH   8  15
HETATM   15  N2  UNL     1      19.475  15.431  12.262  1.00  0.00    -0.063 NA
BRANCH  15  16
HETATM   16  O1  UNL     1      18.321  15.722  12.491  1.00  0.00    -0.294 OA
ATOM     17  H1  UNL     1      17.705  15.356  11.866  1.00  0.00     0.238 HD
ENDBRANCH  15  16
ENDBRANCH   8  15
TORSDOF 3
ENDMDL