MODEL 4
REMARK VINA RESULT: -5.309839426      0.283      1.876
REMARK  3 active torsions:
REMARK  status: ('A' for Active; 'I' for Inactive)
REMARK    1  A    between atoms: C2_2  and  N1_3
REMARK    2  A    between atoms: N1_3  and  C3_4
REMARK    3  A    between atoms: N1_3  and  C5_6
ROOT
HETATM    1  C5  UNL     1      21.961  17.394  14.064  1.00  0.00     0.286 C
HETATM    2  C6  UNL     1      21.021  18.500  14.461  1.00  0.00     0.055 C
HETATM    3  C7  UNL     1      20.994  18.778  15.920  1.00  0.00     0.014 C
HETATM    4  C8  UNL     1      22.325  18.855  16.590  1.00  0.00     0.075 C
HETATM    5  S1  UNL     1      22.673  17.195  17.272  1.00  0.00    -0.142 SA
HETATM    6  C9  UNL     1      22.973  16.118  15.846  1.00  0.00     0.308 C
HETATM    7  N2  UNL     1      21.878  16.224  14.890  1.00  0.00    -0.046 N
ATOM      8  H21 UNL     1      21.811  15.381  14.320  1.00  0.00     0.280 HD
ATOM      9  H22 UNL     1      20.976  16.177  15.365  1.00  0.00     0.280 HD
ENDROOT
BRANCH   1  10
HETATM   10  N1  UNL     1      21.998  17.085  12.712  1.00  0.00    -0.367 N
BRANCH  10  11
HETATM   11  C2  UNL     1      22.996  16.397  12.054  1.00  0.00     0.056 C
HETATM   12  C1  UNL     1      23.395  16.799  10.679  1.00  0.00     0.054 C
ENDBRANCH  10  11
BRANCH  10  13
HETATM   13  C3  UNL     1      20.752  17.235  11.998  1.00  0.00     0.119 C
HETATM   14  C4  UNL     1      19.934  15.976  12.144  1.00  0.00     0.026 C
ENDBRANCH  10  13
ENDBRANCH   1  10
TORSDOF 3
ENDMDL