MODEL 4
REMARK VINA RESULT: -5.901431900      2.339      4.957
REMARK  2 active torsions:
REMARK  status: ('A' for Active; 'I' for Inactive)
REMARK    1  A    between atoms: N1_2  and  C2_5
REMARK    2  A    between atoms: C2_5  and  C3_6
ROOT
HETATM    1  C3  UNL     1      21.593  17.449  15.753  1.00  0.00     0.186 C
HETATM    2  C4  UNL     1      21.098  18.351  14.611  1.00  0.00     0.040 C
HETATM    3  C5  UNL     1      22.077  18.076  13.478  1.00  0.00     0.044 C
HETATM    4  C6  UNL     1      21.709  16.673  12.983  1.00  0.00     0.096 C
HETATM    5  C7  UNL     1      22.894  16.145  12.229  1.00  0.00     0.041 C
HETATM    6  C8  UNL     1      22.811  16.880  10.912  1.00  0.00     0.003 C
HETATM    7  C9  UNL     1      21.378  17.277  10.739  1.00  0.00     0.003 C
HETATM    8  C10 UNL     1      20.632  16.825  11.976  1.00  0.00     0.041 C
HETATM    9  O1  UNL     1      21.382  15.939  14.097  1.00  0.00    -0.229 OA
HETATM   10  O2  UNL     1      22.083  16.309  15.172  1.00  0.00    -0.233 OA
ENDROOT
BRANCH   1  11
HETATM   11  C2  UNL     1      22.650  18.262  16.460  1.00  0.00     0.266 C
BRANCH  11  12
HETATM   12  N1  UNL     1      22.965  17.773  17.769  1.00  0.00    -0.076 N
HETATM   13  C1  UNL     1      21.854  16.883  18.143  1.00  0.00     0.267 C
ATOM     14  H12 UNL     1      23.142  18.512  18.449  1.00  0.00     0.276 HD
ATOM     15  H11 UNL     1      23.881  17.329  17.830  1.00  0.00     0.276 HD
ENDBRANCH  11  12
ENDBRANCH   1  11
TORSDOF 2
ENDMDL