MODEL 1
REMARK VINA RESULT: -5.110223525      0.000      0.000
REMARK  3 active torsions:
REMARK  status: ('A' for Active; 'I' for Inactive)
REMARK    1  A    between atoms: C2_2  and  C3_3
REMARK    2  A    between atoms: C3_3  and  C4_4
REMARK    3  A    between atoms: N1_10  and  O2_12
ROOT
HETATM    1  C4  UNL     1      22.837  16.083  11.976  1.00  0.00     0.135 C
HETATM    2  O1  UNL     1      21.584  15.932  11.338  1.00  0.00    -0.369 OA
HETATM    3  C5  UNL     1      20.687  16.734  11.966  1.00  0.00     0.095 C
HETATM    4  C6  UNL     1      20.234  17.930  11.216  1.00  0.00     0.052 C
HETATM    5  C7  UNL     1      19.478  15.871  12.329  1.00  0.00     0.052 C
HETATM    6  C8  UNL     1      21.309  17.200  13.260  1.00  0.00     0.050 C
HETATM    7  N1  UNL     1      20.854  18.165  13.927  1.00  0.00    -0.274 N
ATOM      8  H1  UNL     1      20.029  18.615  13.530  1.00  0.00     0.193 HD
HETATM    9  C9  UNL     1      22.431  16.255  13.390  1.00  0.00     0.061 C
HETATM   10  C10 UNL     1      23.472  16.574  14.369  1.00  0.00     0.019 C
ENDROOT
BRANCH   7  11
HETATM   11  O2  UNL     1      21.293  18.693  15.088  1.00  0.00    -0.290 OA
ATOM     12  H2  UNL     1      21.958  19.353  15.240  1.00  0.00     0.244 HD
ENDBRANCH   7  11
BRANCH   1  13
HETATM   13  C3  UNL     1      23.515  17.217  11.307  1.00  0.00     0.059 C
BRANCH  13  14
HETATM   14  C2  UNL     1      23.688  17.129   9.859  1.00  0.00    -0.034 C
HETATM   15  C1  UNL     1      23.232  18.021   9.001  1.00  0.00     0.007 C
ENDBRANCH  13  14
ENDBRANCH   1  13
TORSDOF 3
ENDMDL