MODEL 5
REMARK VINA RESULT: -5.589669141      2.209      3.119
REMARK  3 active torsions:
REMARK  status: ('A' for Active; 'I' for Inactive)
REMARK    1  A    between atoms: C6_6  and  C7_7
REMARK    2  A    between atoms: N1_8  and  N2_10
REMARK    3  A    between atoms: N2_10  and  O1_12
ROOT
HETATM    1  C1  UNL     1      21.541  17.182  17.924  1.00  0.00     0.010 C
HETATM    2  C2  UNL     1      21.755  17.015  16.412  1.00  0.00    -0.019 C
HETATM    3  C3  UNL     1      23.097  16.383  16.238  1.00  0.00     0.004 C
HETATM    4  C4  UNL     1      23.292  15.718  14.912  1.00  0.00     0.001 C
HETATM    5  C5  UNL     1      23.050  16.629  13.746  1.00  0.00     0.010 C
HETATM    6  C6  UNL     1      21.628  17.099  13.650  1.00  0.00     0.025 C
HETATM    7  C9  UNL     1      21.513  18.420  14.342  1.00  0.00     0.010 C
HETATM    8  C10 UNL     1      21.744  18.382  15.808  1.00  0.00     0.005 C
ENDROOT
BRANCH   6   9
HETATM    9  C7  UNL     1      21.231  17.319  12.218  1.00  0.00     0.086 C
HETATM   10  N1  UNL     1      22.102  17.293  11.273  1.00  0.00    -0.294 N
ATOM     11  H1  UNL     1      23.087  17.121  11.467  1.00  0.00     0.187 HD
BRANCH  10  12
HETATM   12  N2  UNL     1      21.650  17.507   9.971  1.00  0.00    -0.207 N
HETATM   13  C8  UNL     1      22.573  18.010   8.986  1.00  0.00     0.207 C
BRANCH  12  14
HETATM   14  O1  UNL     1      20.376  17.255   9.631  1.00  0.00    -0.273 OA
ATOM     15  H1  UNL     1      20.119  16.407   9.289  1.00  0.00     0.246 HD
ENDBRANCH  12  14
ENDBRANCH  10  12
ENDBRANCH   6   9
TORSDOF 3
ENDMDL