MODEL 4
REMARK VINA RESULT: -6.189148214      1.759      2.080
REMARK  17 active torsions:
REMARK  status: ('A' for Active; 'I' for Inactive)
REMARK    1  A    between atoms: O1_2  and  C2_3
REMARK    2  A    between atoms: C2_3  and  C3_4
REMARK    3  A    between atoms: C3_4  and  O2_5
REMARK    4  A    between atoms: C4_7  and  O3_8
REMARK    5  A    between atoms: O3_8  and  C5_9
REMARK    6  A    between atoms: C7_12  and  N1_13
REMARK    7  A    between atoms: C9_15  and  C10_16
REMARK    8  A    between atoms: C10_16  and  O6_18
REMARK    9  A    between atoms: O6_18  and  C11_19
REMARK   10  A    between atoms: C15_26  and  N4_27
REMARK   11  A    between atoms: C18_37  and  O9_38
REMARK   12  A    between atoms: C18_37  and  C19_40
REMARK   13  A    between atoms: C19_40  and  O10_41
REMARK   14  A    between atoms: C19_40  and  C20_43
REMARK   15  A    between atoms: C20_43  and  O11_44
REMARK   16  A    between atoms: C20_43  and  C21_46
REMARK   17  A    between atoms: C21_46  and  O12_47
ROOT
HETATM    1  C2  UNL     1      28.814  -3.103   1.084  1.00  0.00     0.170 C
HETATM    2  C4  UNL     1      30.107  -3.191   0.362  1.00  0.00     0.223 C
HETATM    3  C7  UNL     1      31.080  -2.586   1.334  1.00  0.00     0.265 C
HETATM    4  O8  UNL     1      30.638  -3.153   2.547  1.00  0.00    -0.322 OA
HETATM    5  C18 UNL     1      29.278  -3.201   2.535  1.00  0.00     0.229 C
ENDROOT
BRANCH   3   6
HETATM    6  N1  UNL     1      32.406  -3.127   1.112  1.00  0.00    -0.311 N
HETATM    7  C8  UNL     1      32.588  -4.476   1.198  1.00  0.00     0.117 A
HETATM    8  C9  UNL     1      33.805  -5.090   1.005  1.00  0.00     0.106 A
HETATM    9  C13 UNL     1      34.887  -4.286   0.711  1.00  0.00     0.207 A
HETATM   10  O7  UNL     1      36.025  -4.779   0.524  1.00  0.00    -0.286 OA
HETATM   11  C14 UNL     1      34.739  -2.920   0.617  1.00  0.00     0.103 A
HETATM   12  C15 UNL     1      35.842  -2.118   0.319  1.00  0.00     0.117 A
HETATM   13  C17 UNL     1      33.482  -2.384   0.826  1.00  0.00     0.128 A
HETATM   14  N5  UNL     1      35.617  -0.797   0.244  1.00  0.00    -0.338 N
HETATM   15  C16 UNL     1      34.402  -0.262   0.444  1.00  0.00     0.183 A
ATOM     16  H5  UNL     1      36.398  -0.177   0.028  1.00  0.00     0.168 HD
HETATM   17  N6  UNL     1      33.358  -1.066   0.730  1.00  0.00    -0.337 N
ATOM     18  H6  UNL     1      32.441  -0.646   0.879  1.00  0.00     0.168 HD
BRANCH   8  19
HETATM   19  C10 UNL     1      33.971  -6.535   1.103  1.00  0.00     0.300 C
HETATM   20  O5  UNL     1      33.484  -7.123   2.098  1.00  0.00    -0.259 OA
BRANCH  19  21
HETATM   21  O6  UNL     1      34.637  -7.286   0.155  1.00  0.00    -0.292 OA
BRANCH  21  22
HETATM   22  C11 UNL     1      33.995  -7.779  -1.008  1.00  0.00     0.256 C
HETATM   23  C12 UNL     1      34.198  -6.950  -2.251  1.00  0.00     0.181 C
HETATM   24  N2  UNL     1      32.780  -7.159  -2.506  1.00  0.00    -0.142 NA
HETATM   25  N3  UNL     1      32.608  -7.344  -1.135  1.00  0.00    -0.114 NA
ENDBRANCH  21  22
ENDBRANCH  19  21
ENDBRANCH   8  19
BRANCH  12  26
HETATM   26  N4  UNL     1      36.963  -2.689   0.142  1.00  0.00    -0.385 N
ATOM     27  H42 UNL     1      37.124  -3.696   0.146  1.00  0.00     0.157 HD
ATOM     28  H41 UNL     1      37.780  -2.100  -0.018  1.00  0.00     0.157 HD
ENDBRANCH  12  26
ENDBRANCH   3   6
BRANCH   2  29
HETATM   29  O3  UNL     1      30.142  -2.705  -0.927  1.00  0.00    -0.308 OA
BRANCH  29  30
HETATM   30  C5  UNL     1      31.295  -2.583  -1.708  1.00  0.00     0.255 C
HETATM   31  C6  UNL     1      31.951  -3.784  -2.300  1.00  0.00     0.126 C
HETATM   32  O4  UNL     1      31.754  -1.431  -1.892  1.00  0.00    -0.266 OA
ENDBRANCH  29  30
ENDBRANCH   2  29
BRANCH   1  33
HETATM   33  O1  UNL     1      28.059  -2.021   0.953  1.00  0.00    -0.374 OA
HETATM   34  C1  UNL     1      26.918  -1.983   0.249  1.00  0.00     0.203 C
ENDBRANCH   1  33
BRANCH   1  35
HETATM   35  C3  UNL     1      27.996  -4.333   0.731  1.00  0.00     0.211 C
BRANCH  35  36
HETATM   36  O2  UNL     1      28.827  -5.261   0.093  1.00  0.00    -0.398 OA
ATOM     37  H2  UNL     1      28.297  -5.985  -0.219  1.00  0.00     0.209 HD
ENDBRANCH  35  36
ENDBRANCH   1  35
BRANCH   5  38
HETATM   38  O9  UNL     1      28.882  -4.437   3.049  1.00  0.00    -0.361 OA
ATOM     39  H9  UNL     1      29.494  -4.694   3.728  1.00  0.00     0.213 HD
ENDBRANCH   5  38
BRANCH   5  40
HETATM   40  C19 UNL     1      28.681  -2.091   3.371  1.00  0.00     0.214 C
BRANCH  40  41
HETATM   41  O10 UNL     1      29.307  -0.902   3.067  1.00  0.00    -0.387 OA
ATOM     42  H10 UNL     1      30.040  -0.773   3.656  1.00  0.00     0.210 HD
ENDBRANCH  40  41
BRANCH  40  43
HETATM   43  C20 UNL     1      28.724  -2.370   4.834  1.00  0.00     0.175 C
BRANCH  43  44
HETATM   44  O11 UNL     1      29.606  -3.365   5.176  1.00  0.00    -0.391 OA
ATOM     45  H11 UNL     1      30.508  -3.163   4.959  1.00  0.00     0.210 HD
ENDBRANCH  43  44
BRANCH  43  46
HETATM   46  C21 UNL     1      28.952  -1.158   5.691  1.00  0.00     0.198 C
BRANCH  46  47
HETATM   47  O12 UNL     1      30.280  -0.845   5.864  1.00  0.00    -0.398 OA
ATOM     48  H12 UNL     1      30.874  -1.435   5.413  1.00  0.00     0.209 HD
ENDBRANCH  46  47
ENDBRANCH  43  46
ENDBRANCH  40  43
ENDBRANCH   5  40
TORSDOF 17
ENDMDL