MODEL 5
REMARK VINA RESULT: -7.655224551      2.380      3.113
REMARK  18 active torsions:
REMARK  status: ('A' for Active; 'I' for Inactive)
REMARK    1  A    between atoms: N1_2  and  C3_4
REMARK    2  A    between atoms: C4_6  and  C5_7
REMARK    3  A    between atoms: C5_7  and  O2_8
REMARK    4  A    between atoms: C6_10  and  O3_11
REMARK    5  A    between atoms: O3_11  and  C7_12
REMARK    6  A    between atoms: C7_12  and  C8_14
REMARK    7  A    between atoms: C8_14  and  O5_16
REMARK    8  A    between atoms: C8_14  and  O6_18
REMARK    9  A    between atoms: C10_20  and  N2_21
REMARK       I    between atoms: N2_21  and  C11_23
REMARK   10  A    between atoms: C11_23  and  C12_25
REMARK   11  A    between atoms: C12_25  and  C13_27
REMARK       I    between atoms: C13_27  and  N3_29
REMARK   12  A    between atoms: N3_29  and  N4_31
REMARK   13  A    between atoms: C14_33  and  C15_34
REMARK   14  A    between atoms: C16_35  and  O10_36
REMARK   15  A    between atoms: C17_39  and  C18_40
REMARK   16  A    between atoms: C18_40  and  O12_41
REMARK   17  A    between atoms: C19_43  and  O13_44
REMARK   18  A    between atoms: C20_46  and  O14_47
ROOT
HETATM    1  N2  UNL     1      31.316  -3.719   0.833  1.00  0.00    -0.344 N
ATOM      2  H2  UNL     1      31.548  -3.176   1.665  1.00  0.00     0.163 HD
HETATM    3  C11 UNL     1      29.994  -4.190   0.669  1.00  0.00     0.298 C
HETATM    4  O7  UNL     1      29.661  -4.858  -0.333  1.00  0.00    -0.264 OA
ENDROOT
BRANCH   1   5
HETATM    5  C10 UNL     1      32.357  -3.986  -0.150  1.00  0.00     0.150 C
HETATM    6  C6  UNL     1      33.268  -2.774  -0.335  1.00  0.00     0.188 C
HETATM    7  C4  UNL     1      34.584  -3.139  -0.916  1.00  0.00     0.179 C
HETATM    8  O1  UNL     1      34.528  -4.341  -1.588  1.00  0.00    -0.345 OA
HETATM    9  C3  UNL     1      34.228  -5.427  -0.795  1.00  0.00     0.389 C
HETATM   10  C20 UNL     1      33.178  -5.197   0.232  1.00  0.00     0.202 C
BRANCH   6  11
HETATM   11  O3  UNL     1      33.332  -1.975   0.814  1.00  0.00    -0.307 OA
BRANCH  11  12
HETATM   12  C7  UNL     1      32.740  -0.749   0.979  1.00  0.00     0.322 C
HETATM   13  O4  UNL     1      31.530  -0.745   1.245  1.00  0.00    -0.259 OA
BRANCH  12  14
HETATM   14  C8  UNL     1      33.473   0.547   0.854  1.00  0.00     0.247 C
HETATM   15  C9  UNL     1      32.679   1.559   1.687  1.00  0.00     0.090 C
BRANCH  14  16
HETATM   16  O5  UNL     1      33.471   1.003  -0.454  1.00  0.00    -0.358 OA
ATOM     17  H5  UNL     1      34.343   0.979  -0.830  1.00  0.00     0.213 HD
ENDBRANCH  14  16
BRANCH  14  18
HETATM   18  O6  UNL     1      34.771   0.448   1.317  1.00  0.00    -0.358 OA
ATOM     19  H6  UNL     1      35.209   1.291   1.320  1.00  0.00     0.213 HD
ENDBRANCH  14  18
ENDBRANCH  12  14
ENDBRANCH  11  12
ENDBRANCH   6  11
BRANCH   7  20
HETATM   20  C5  UNL     1      34.985  -2.074  -1.917  1.00  0.00     0.198 C
BRANCH  20  21
HETATM   21  O2  UNL     1      35.570  -1.025  -1.195  1.00  0.00    -0.398 OA
ATOM     22  H2  UNL     1      36.044  -0.485  -1.817  1.00  0.00     0.209 HD
ENDBRANCH  20  21
ENDBRANCH   7  20
BRANCH   9  23
HETATM   23  N1  UNL     1      35.391  -5.967  -0.118  1.00  0.00     0.111 N
HETATM   24  C1  UNL     1      35.425  -5.640   1.276  1.00  0.00     0.312 C
HETATM   25  C2  UNL     1      35.635  -7.351  -0.359  1.00  0.00     0.312 C
ENDBRANCH   9  23
BRANCH  10  26
HETATM   26  O14 UNL     1      32.297  -6.281   0.223  1.00  0.00    -0.389 OA
ATOM     27  H14 UNL     1      31.451  -5.989   0.543  1.00  0.00     0.210 HD
ENDBRANCH  10  26
ENDBRANCH   1   5
BRANCH   3  28
HETATM   28  C12 UNL     1      29.001  -3.887   1.691  1.00  0.00     0.307 C
HETATM   29  O8  UNL     1      27.831  -4.393   1.623  1.00  0.00    -0.276 OA
BRANCH  28  30
HETATM   30  C13 UNL     1      29.290  -3.009   2.815  1.00  0.00     0.315 C
HETATM   31  O9  UNL     1      29.974  -3.402   3.794  1.00  0.00    -0.262 OA
HETATM   32  N3  UNL     1      28.793  -1.690   2.811  1.00  0.00    -0.263 N
ATOM     33  H3  UNL     1      28.237  -1.367   2.020  1.00  0.00     0.190 HD
BRANCH  32  34
HETATM   34  N4  UNL     1      29.051  -0.813   3.880  1.00  0.00    -0.308 N
HETATM   35  C14 UNL     1      28.138  -0.701   4.778  1.00  0.00     0.126 C
ATOM     36  H4  UNL     1      29.925  -0.288   3.940  1.00  0.00     0.186 HD
BRANCH  35  37
HETATM   37  C15 UNL     1      28.379   0.209   5.903  1.00  0.00     0.075 A
HETATM   38  C16 UNL     1      29.432   0.175   6.793  1.00  0.00     0.198 A
HETATM   39  O11 UNL     1      29.275   1.162   7.645  1.00  0.00    -0.287 OA
HETATM   40  C17 UNL     1      28.208   1.852   7.404  1.00  0.00     0.113 A
HETATM   41  C19 UNL     1      27.603   1.286   6.304  1.00  0.00     0.114 A
BRANCH  38  42
HETATM   42  O10 UNL     1      30.491  -0.735   6.806  1.00  0.00    -0.340 OA
ATOM     43  H10 UNL     1      30.768  -1.278   7.535  1.00  0.00     0.220 HD
ENDBRANCH  38  42
BRANCH  40  44
HETATM   44  C18 UNL     1      27.665   3.043   8.123  1.00  0.00     0.232 C
BRANCH  44  45
HETATM   45  O12 UNL     1      26.345   2.823   8.524  1.00  0.00    -0.394 OA
ATOM     46  H12 UNL     1      25.742   3.348   8.011  1.00  0.00     0.209 HD
ENDBRANCH  44  45
ENDBRANCH  40  44
BRANCH  41  47
HETATM   47  O13 UNL     1      26.443   1.654   5.656  1.00  0.00    -0.357 OA
ATOM     48  H13 UNL     1      26.046   1.127   4.972  1.00  0.00     0.217 HD
ENDBRANCH  41  47
ENDBRANCH  35  37
ENDBRANCH  32  34
ENDBRANCH  28  30
ENDBRANCH   3  28
TORSDOF 18
ENDMDL