MODEL 1
REMARK VINA RESULT: -10.364304759      0.000      0.000
REMARK  14 active torsions:
REMARK  status: ('A' for Active; 'I' for Inactive)
REMARK    1  A    between atoms: N1_1  and  C1_4
REMARK    2  A    between atoms: C2_7  and  N3_8
REMARK    3  A    between atoms: N4_10  and  N5_12
REMARK       I    between atoms: N5_12  and  C3_14
REMARK    4  A    between atoms: C3_14  and  C4_16
REMARK    5  A    between atoms: C4_16  and  C5_17
REMARK    6  A    between atoms: C4_16  and  C6_22
REMARK    7  A    between atoms: C5_17  and  N6_18
REMARK    8  A    between atoms: C6_22  and  N7_23
REMARK    9  A    between atoms: C8_25  and  C9_26
REMARK   10  A    between atoms: C10_28  and  C11_29
REMARK   11  A    between atoms: C13_36  and  N10_37
REMARK   12  A    between atoms: C14_43  and  C15_44
REMARK   13  A    between atoms: C15_44  and  O5_45
REMARK   14  A    between atoms: C16_47  and  O6_48
ROOT
HETATM    1  N7  UNL     1      28.670   0.247   5.104  1.00  0.00    -0.286 N
HETATM    2  C7  UNL     1      28.075  -0.810   4.481  1.00  0.00     0.140 A
HETATM    3  C8  UNL     1      28.929  -1.302   3.516  1.00  0.00     0.076 A
HETATM    4  N12 UNL     1      30.025  -0.522   3.584  1.00  0.00    -0.286 N
ATOM      5  H12 UNL     1      30.859  -0.613   3.003  1.00  0.00     0.188 HD
HETATM    6  N13 UNL     1      29.835   0.391   4.542  1.00  0.00    -0.241 N
ATOM      7  H13 UNL     1      30.515   1.107   4.798  1.00  0.00     0.208 HD
ENDROOT
BRANCH   1   8
HETATM    8  C6  UNL     1      28.025   0.986   6.171  1.00  0.00     0.165 C
BRANCH   8   9
HETATM    9  C4  UNL     1      29.052   1.216   7.258  1.00  0.00     0.125 C
BRANCH   9  10
HETATM   10  C3  UNL     1      28.647   2.427   7.997  1.00  0.00     0.244 C
HETATM   11  N5  UNL     1      28.864   3.720   7.450  1.00  0.00    -0.255 N
ATOM     12  H5  UNL     1      29.306   3.833   6.538  1.00  0.00     0.191 HD
HETATM   13  O1  UNL     1      28.096   2.302   9.136  1.00  0.00    -0.271 OA
BRANCH  11  14
HETATM   14  N4  UNL     1      28.451   4.854   8.200  1.00  0.00    -0.226 N
HETATM   15  N3  UNL     1      28.972   5.993   8.005  1.00  0.00    -0.117 N
ATOM     16  H3  UNL     1      28.663   6.794   8.554  1.00  0.00     0.207 HD
ATOM     17  H4  UNL     1      27.723   4.750   8.907  1.00  0.00     0.209 HD
BRANCH  15  18
HETATM   18  C2  UNL     1      29.987   6.157   7.022  1.00  0.00     0.716 A
HETATM   19  N2  UNL     1      31.270   5.901   7.335  1.00  0.00    -0.021 N
HETATM   20  C1  UNL     1      32.252   6.048   6.424  1.00  0.00     0.694 A
ATOM     21  H2  UNL     1      31.503   5.589   8.278  1.00  0.00     0.203 HD
HETATM   22  N15 UNL     1      31.905   6.459   5.198  1.00  0.00    -0.141 N
HETATM   23  C17 UNL     1      30.650   6.728   4.834  1.00  0.00     0.352 A
ATOM     24  H15 UNL     1      32.642   6.573   4.503  1.00  0.00     0.189 HD
HETATM   25  N14 UNL     1      29.682   6.567   5.782  1.00  0.00    -0.139 N
HETATM   26  O7  UNL     1      30.384   7.107   3.675  1.00  0.00    -0.246 OA
ATOM     27  H14 UNL     1      28.710   6.762   5.544  1.00  0.00     0.189 HD
BRANCH  20  28
HETATM   28  N1  UNL     1      33.493   5.799   6.729  1.00  0.00    -0.234 N
ATOM     29  H12 UNL     1      33.762   4.931   7.191  1.00  0.00     0.174 HD
ATOM     30  H11 UNL     1      34.231   6.469   6.513  1.00  0.00     0.174 HD
ENDBRANCH  20  28
ENDBRANCH  15  18
ENDBRANCH  11  14
ENDBRANCH   9  10
BRANCH   9  31
HETATM   31  C5  UNL     1      29.259   0.028   8.128  1.00  0.00     0.245 C
BRANCH  31  32
HETATM   32  N6  UNL     1      28.115  -0.524   8.757  1.00  0.00    -0.078 N
ATOM     33  H63 UNL     1      27.278  -0.064   8.400  1.00  0.00     0.274 HD
ATOM     34  H62 UNL     1      27.969  -1.475   8.419  1.00  0.00     0.274 HD
ATOM     35  H61 UNL     1      28.094  -0.519   9.777  1.00  0.00     0.274 HD
ENDBRANCH  31  32
ENDBRANCH   9  31
ENDBRANCH   8   9
ENDBRANCH   1   8
BRANCH   3  36
HETATM   36  C9  UNL     1      28.693  -2.462   2.584  1.00  0.00     0.209 C
HETATM   37  O2  UNL     1      27.732  -2.247   1.675  1.00  0.00    -0.340 OA
HETATM   38  C10 UNL     1      27.846  -2.687   0.421  1.00  0.00     0.330 C
HETATM   39  O4  UNL     1      28.877  -3.483   0.060  1.00  0.00    -0.344 OA
HETATM   40  C14 UNL     1      29.682  -3.983   1.022  1.00  0.00     0.180 C
HETATM   41  C16 UNL     1      30.030  -2.836   1.980  1.00  0.00     0.184 C
BRANCH  38  42
HETATM   42  C11 UNL     1      26.573  -3.397   0.048  1.00  0.00     0.157 A
HETATM   43  N8  UNL     1      25.495  -2.739  -0.420  1.00  0.00    -0.293 N
HETATM   44  C12 UNL     1      24.364  -3.386  -0.750  1.00  0.00     0.340 A
ATOM     45  H8  UNL     1      25.538  -1.726  -0.526  1.00  0.00     0.172 HD
HETATM   46  O3  UNL     1      23.369  -2.752  -1.185  1.00  0.00    -0.246 OA
HETATM   47  N9  UNL     1      24.255  -4.715  -0.628  1.00  0.00    -0.141 N
HETATM   48  C13 UNL     1      25.320  -5.397  -0.163  1.00  0.00     0.681 A
ATOM     49  H9  UNL     1      23.392  -5.197  -0.881  1.00  0.00     0.189 HD
HETATM   50  N11 UNL     1      26.454  -4.732   0.165  1.00  0.00    -0.175 N
ATOM     51  H11 UNL     1      27.250  -5.265   0.516  1.00  0.00     0.185 HD
BRANCH  48  52
HETATM   52  N10 UNL     1      25.241  -6.676  -0.038  1.00  0.00    -0.234 N
ATOM     53 2H10 UNL     1      24.949  -7.100   0.842  1.00  0.00     0.174 HD
ATOM     54 1H10 UNL     1      25.474  -7.271  -0.834  1.00  0.00     0.174 HD
ENDBRANCH  48  52
ENDBRANCH  38  42
BRANCH  40  55
HETATM   55  C15 UNL     1      30.943  -4.562   0.457  1.00  0.00     0.198 C
BRANCH  55  56
HETATM   56  O5  UNL     1      30.609  -5.237  -0.724  1.00  0.00    -0.398 OA
ATOM     57  H5  UNL     1      29.801  -5.712  -0.566  1.00  0.00     0.209 HD
ENDBRANCH  55  56
ENDBRANCH  40  55
BRANCH  41  58
HETATM   58  O6  UNL     1      30.472  -1.732   1.255  1.00  0.00    -0.390 OA
ATOM     59  H6  UNL     1      31.329  -1.501   1.596  1.00  0.00     0.210 HD
ENDBRANCH  41  58
ENDBRANCH   3  36
TORSDOF 14
ENDMDL