MODEL 1
REMARK VINA RESULT: -8.018010627      0.000      0.000
REMARK  15 active torsions:
REMARK  status: ('A' for Active; 'I' for Inactive)
REMARK    1  A    between atoms: C3_5  and  N2_6
REMARK    2  A    between atoms: C5_8  and  N3_9
REMARK    3  A    between atoms: N3_9  and  C6_11
REMARK    4  A    between atoms: C6_11  and  C7_12
REMARK    5  A    between atoms: C7_12  and  C8_13
REMARK    6  A    between atoms: C8_13  and  C9_18
REMARK    7  A    between atoms: N4_14  and  O2_16
REMARK    8  A    between atoms: N8_30  and  C13_31
REMARK    9  A    between atoms: C15_34  and  C16_35
REMARK   10  A    between atoms: C16_35  and  O7_36
REMARK   11  A    between atoms: C16_35  and  C17_38
REMARK   12  A    between atoms: C17_38  and  O8_39
REMARK   13  A    between atoms: C17_38  and  C18_41
REMARK   14  A    between atoms: C18_41  and  O9_42
REMARK   15  A    between atoms: C19_49  and  O10_50
ROOT
HETATM    1  N1  UNL     1      26.513  -3.531  -0.223  1.00  0.00    -0.194 NA
HETATM    2  C1  UNL     1      27.334  -3.150   0.507  1.00  0.00     0.096 C
HETATM    3  C2  UNL     1      28.365  -2.648   1.409  1.00  0.00     0.286 C
HETATM    4  O1  UNL     1      29.428  -2.204   0.579  1.00  0.00    -0.296 OA
HETATM    5  C3  UNL     1      30.492  -2.302   1.504  1.00  0.00     0.245 C
HETATM    6  N10 UNL     1      30.367  -3.517   2.180  1.00  0.00    -0.325 N
ATOM      7  H10 UNL     1      31.119  -4.076   2.582  1.00  0.00     0.165 HD
HETATM    8  C19 UNL     1      28.988  -3.813   2.195  1.00  0.00     0.264 C
ENDROOT
BRANCH   8   9
HETATM    9  O10 UNL     1      28.510  -3.723   3.498  1.00  0.00    -0.373 OA
ATOM     10  H10 UNL     1      27.964  -4.487   3.646  1.00  0.00     0.212 HD
ENDBRANCH   8   9
BRANCH   5  11
HETATM   11  N2  UNL     1      31.739  -1.818   1.074  1.00  0.00    -0.206 N
HETATM   12  C4  UNL     1      32.264  -0.596   1.349  1.00  0.00     0.137 A
HETATM   13  C5  UNL     1      31.833   0.516   2.069  1.00  0.00     0.135 A
HETATM   14  C11 UNL     1      33.509  -0.468   0.767  1.00  0.00     0.138 A
HETATM   15  N5  UNL     1      32.598   1.633   2.176  1.00  0.00    -0.315 N
HETATM   16  C10 UNL     1      33.801   1.707   1.592  1.00  0.00     0.194 A
ATOM     17  H5  UNL     1      32.251   2.429   2.711  1.00  0.00     0.170 HD
HETATM   18  N6  UNL     1      34.550   2.905   1.745  1.00  0.00    -0.063 NA
HETATM   19  N7  UNL     1      34.265   0.663   0.885  1.00  0.00    -0.324 N
ATOM     20  H7  UNL     1      35.180   0.715   0.438  1.00  0.00     0.169 HD
HETATM   21  C12 UNL     1      33.711  -1.664   0.129  1.00  0.00     0.294 A
HETATM   22  O5  UNL     1      34.767  -1.910  -0.523  1.00  0.00    -0.264 OA
HETATM   23  N8  UNL     1      32.649  -2.460   0.320  1.00  0.00    -0.211 N
BRANCH  13  24
HETATM   24  N3  UNL     1      30.702   0.466   2.627  1.00  0.00    -0.374 N
ATOM     25  H3  UNL     1      29.874   0.428   2.032  1.00  0.00     0.161 HD
BRANCH  24  26
HETATM   26  C6  UNL     1      30.512   0.461   4.056  1.00  0.00     0.127 C
BRANCH  26  27
HETATM   27  C7  UNL     1      29.090   0.070   4.391  1.00  0.00     0.086 C
BRANCH  27  28
HETATM   28  C8  UNL     1      29.054  -0.456   5.769  1.00  0.00     0.109 C
HETATM   29  N4  UNL     1      28.239   0.156   6.583  1.00  0.00    -0.267 N
ATOM     30  H4  UNL     1      27.682   0.941   6.245  1.00  0.00     0.194 HD
BRANCH  29  31
HETATM   31  O2  UNL     1      28.125  -0.242   7.869  1.00  0.00    -0.290 OA
ATOM     32  H2  UNL     1      28.895  -0.486   8.370  1.00  0.00     0.244 HD
ENDBRANCH  29  31
BRANCH  28  33
HETATM   33  C9  UNL     1      29.831  -1.578   6.257  1.00  0.00     0.224 C
HETATM   34  O3  UNL     1      30.803  -1.380   7.041  1.00  0.00    -0.643 OA
HETATM   35  O4  UNL     1      29.507  -2.864   5.861  1.00  0.00    -0.643 OA
ENDBRANCH  28  33
ENDBRANCH  27  28
ENDBRANCH  26  27
ENDBRANCH  24  26
ENDBRANCH  13  24
BRANCH  23  36
HETATM   36  C13 UNL     1      32.574  -3.784  -0.231  1.00  0.00     0.337 C
HETATM   37  C14 UNL     1      33.166  -4.879   0.566  1.00  0.00     0.227 C
HETATM   38  O6  UNL     1      33.333  -5.883  -0.383  1.00  0.00    -0.353 OA
HETATM   39  C15 UNL     1      33.473  -5.327  -1.617  1.00  0.00     0.355 C
HETATM   40  N9  UNL     1      33.066  -3.947  -1.568  1.00  0.00    -0.021 N
ATOM     41  H92 UNL     1      32.405  -3.677  -2.296  1.00  0.00     0.283 HD
ATOM     42  H91 UNL     1      33.795  -3.284  -1.833  1.00  0.00     0.283 HD
BRANCH  39  43
HETATM   43  C16 UNL     1      32.739  -6.093  -2.670  1.00  0.00     0.205 C
BRANCH  43  44
HETATM   44  O7  UNL     1      31.446  -6.437  -2.265  1.00  0.00    -0.389 OA
ATOM     45  H7  UNL     1      30.994  -6.961  -2.916  1.00  0.00     0.210 HD
ENDBRANCH  43  44
BRANCH  43  46
HETATM   46  C17 UNL     1      33.456  -7.319  -3.166  1.00  0.00     0.174 C
BRANCH  46  47
HETATM   47  O8  UNL     1      34.684  -7.431  -2.481  1.00  0.00    -0.391 OA
ATOM     48  H8  UNL     1      35.390  -7.375  -3.112  1.00  0.00     0.210 HD
ENDBRANCH  46  47
BRANCH  46  49
HETATM   49  C18 UNL     1      33.794  -7.107  -4.642  1.00  0.00     0.198 C
BRANCH  49  50
HETATM   50  O9  UNL     1      32.579  -6.800  -5.262  1.00  0.00    -0.398 OA
ATOM     51  H9  UNL     1      32.809  -6.307  -6.041  1.00  0.00     0.209 HD
ENDBRANCH  49  50
ENDBRANCH  46  49
ENDBRANCH  43  46
ENDBRANCH  39  43
ENDBRANCH  23  36
ENDBRANCH   5  11
TORSDOF 15
ENDMDL