MODEL 5
REMARK VINA RESULT: -7.245702067      3.676     11.686
REMARK  20 active torsions:
REMARK  status: ('A' for Active; 'I' for Inactive)
REMARK    1  A    between atoms: O1_2  and  C2_3
REMARK    2  A    between atoms: C2_3  and  C3_5
REMARK    3  A    between atoms: C3_5  and  O3_6
REMARK    4  A    between atoms: C5_9  and  O4_10
REMARK    5  A    between atoms: O4_10  and  C6_11
REMARK    6  A    between atoms: C6_11  and  O5_12
REMARK    7  A    between atoms: O5_12  and  C7_13
REMARK    8  A    between atoms: C7_13  and  C8_15
REMARK    9  A    between atoms: C10_18  and  C11_19
REMARK   10  A    between atoms: C11_19  and  N1_20
REMARK   11  A    between atoms: C11_19  and  C12_24
REMARK   12  A    between atoms: C12_24  and  O7_25
REMARK   13  A    between atoms: C12_24  and  O8_27
REMARK   14  A    between atoms: C12_24  and  C13_29
REMARK   15  A    between atoms: C15_33  and  O11_34
REMARK   16  A    between atoms: C15_33  and  C16_36
REMARK   17  A    between atoms: C17_39  and  N2_40
REMARK   18  A    between atoms: C17_39  and  C18_44
REMARK   19  A    between atoms: C18_44  and  O14_45
REMARK   20  A    between atoms: C19_47  and  O15_48
ROOT
HETATM    1  C3  UNL     1      30.938   6.464   6.101  1.00  0.00     0.176 C
HETATM    2  C4  UNL     1      30.087   5.261   6.205  1.00  0.00     0.087 C
HETATM    3  C5  UNL     1      29.567   4.949   7.598  1.00  0.00     0.175 C
HETATM    4  C15 UNL     1      30.421   5.569   8.668  1.00  0.00     0.210 C
HETATM    5  C17 UNL     1      30.567   7.045   8.542  1.00  0.00     0.216 C
HETATM    6  C19 UNL     1      30.721   7.520   7.118  1.00  0.00     0.204 C
ENDROOT
BRANCH   3   7
HETATM    7  O4  UNL     1      29.518   3.581   7.815  1.00  0.00    -0.357 OA
BRANCH   7   8
HETATM    8  C6  UNL     1      28.439   2.932   7.278  1.00  0.00     0.348 C
BRANCH   8   9
HETATM    9  O5  UNL     1      28.965   1.836   6.513  1.00  0.00    -0.292 OA
BRANCH   9  10
HETATM   10  C7  UNL     1      28.102   1.013   5.814  1.00  0.00     0.295 C
HETATM   11  O6  UNL     1      26.993   1.465   5.486  1.00  0.00    -0.259 OA
BRANCH  10  12
HETATM   12  C8  UNL     1      28.450  -0.387   5.440  1.00  0.00     0.047 A
HETATM   13  C9  UNL     1      28.992  -1.258   6.347  1.00  0.00     0.067 A
HETATM   14  S1  UNL     1      29.202  -2.685   5.448  1.00  0.00    -0.103 SA
HETATM   15  C10 UNL     1      28.608  -2.168   3.951  1.00  0.00     0.020 A
HETATM   16  C14 UNL     1      28.250  -0.864   4.188  1.00  0.00     0.035 A
BRANCH  15  17
HETATM   17  C11 UNL     1      28.461  -2.876   2.605  1.00  0.00     0.296 C
BRANCH  17  18
HETATM   18  N1  UNL     1      27.747  -1.867   1.785  1.00  0.00    -0.065 N
ATOM     19  H13 UNL     1      27.448  -1.036   2.294  1.00  0.00     0.275 HD
ATOM     20  H12 UNL     1      28.332  -1.369   1.114  1.00  0.00     0.275 HD
ATOM     21  H11 UNL     1      26.990  -2.411   1.372  1.00  0.00     0.275 HD
ENDBRANCH  17  18
BRANCH  17  22
HETATM   22  C12 UNL     1      29.810  -3.155   2.055  1.00  0.00     0.285 C
BRANCH  22  23
HETATM   23  O7  UNL     1      30.518  -1.916   1.999  1.00  0.00    -0.355 OA
ATOM     24  H7  UNL     1      31.428  -2.113   1.810  1.00  0.00     0.213 HD
ENDBRANCH  22  23
BRANCH  22  25
HETATM   25  O8  UNL     1      30.590  -4.045   2.731  1.00  0.00    -0.355 OA
ATOM     26  H8  UNL     1      31.491  -4.143   2.444  1.00  0.00     0.213 HD
ENDBRANCH  22  25
BRANCH  22  27
HETATM   27  C13 UNL     1      29.675  -3.553   0.614  1.00  0.00     0.241 C
HETATM   28  O9  UNL     1      29.754  -2.651  -0.294  1.00  0.00    -0.644 OA
HETATM   29  O10 UNL     1      29.470  -4.831   0.209  1.00  0.00    -0.644 OA
ENDBRANCH  22  27
ENDBRANCH  17  22
ENDBRANCH  15  17
ENDBRANCH  10  12
ENDBRANCH   9  10
ENDBRANCH   8   9
ENDBRANCH   7   8
ENDBRANCH   3   7
BRANCH   4  30
HETATM   30  O11 UNL     1      31.738   5.006   8.610  1.00  0.00    -0.374 OA
ATOM     31  H11 UNL     1      31.708   4.106   8.915  1.00  0.00     0.211 HD
ENDBRANCH   4  30
BRANCH   4  32
HETATM   32  C16 UNL     1      29.920   5.186  10.001  1.00  0.00     0.214 C
HETATM   33  O12 UNL     1      28.765   4.752  10.238  1.00  0.00    -0.646 OA
HETATM   34  O13 UNL     1      30.730   5.282  11.155  1.00  0.00    -0.646 OA
ENDBRANCH   4  32
BRANCH   1  35
HETATM   35  C2  UNL     1      30.625   7.092   4.762  1.00  0.00     0.296 C
HETATM   36  O2  UNL     1      29.624   6.694   4.113  1.00  0.00    -0.262 OA
BRANCH  35  37
HETATM   37  O1  UNL     1      31.397   8.097   4.209  1.00  0.00    -0.324 OA
HETATM   38  C1  UNL     1      31.444   8.226   2.802  1.00  0.00     0.213 C
ENDBRANCH  35  37
ENDBRANCH   1  35
BRANCH   1  39
HETATM   39  O3  UNL     1      32.286   6.081   6.012  1.00  0.00    -0.377 OA
ATOM     40  H3  UNL     1      32.376   5.708   5.142  1.00  0.00     0.211 HD
ENDBRANCH   1  39
BRANCH   5  41
HETATM   41  N2  UNL     1      31.825   7.375   9.246  1.00  0.00    -0.062 N
ATOM     42  H23 UNL     1      32.451   6.578   9.364  1.00  0.00     0.275 HD
ATOM     43  H22 UNL     1      32.467   7.949   8.698  1.00  0.00     0.275 HD
ATOM     44  H21 UNL     1      31.537   7.805  10.125  1.00  0.00     0.275 HD
ENDBRANCH   5  41
BRANCH   5  45
HETATM   45  C18 UNL     1      29.515   7.836   9.279  1.00  0.00     0.209 C
BRANCH  45  46
HETATM   46  O14 UNL     1      28.216   7.494   8.962  1.00  0.00    -0.398 OA
ATOM     47  H14 UNL     1      27.642   8.234   8.803  1.00  0.00     0.209 HD
ENDBRANCH  45  46
ENDBRANCH   5  45
BRANCH   6  48
HETATM   48  O15 UNL     1      29.584   8.290   6.781  1.00  0.00    -0.389 OA
ATOM     49  H15 UNL     1      29.132   8.564   7.571  1.00  0.00     0.210 HD
ENDBRANCH   6  48
TORSDOF 20
ENDMDL