MODEL 4
REMARK VINA RESULT: -7.176706112      2.386      8.080
REMARK  19 active torsions:
REMARK  status: ('A' for Active; 'I' for Inactive)
REMARK    1  A    between atoms: O1_2  and  C2_3
REMARK    2  A    between atoms: C2_3  and  C3_5
REMARK    3  A    between atoms: C4_7  and  S1_8
REMARK    4  A    between atoms: S1_8  and  C5_9
REMARK    5  A    between atoms: C6_11  and  C7_12
REMARK    6  A    between atoms: C7_12  and  O5_13
REMARK    7  A    between atoms: C7_12  and  C8_15
REMARK    8  A    between atoms: C9_18  and  C10_19
REMARK    9  A    between atoms: C10_19  and  O8_20
REMARK   10  A    between atoms: C11_23  and  N1_24
REMARK   11  A    between atoms: N1_24  and  C12_26
REMARK   12  A    between atoms: C12_26  and  O10_27
REMARK   13  A    between atoms: C12_26  and  C13_29
REMARK   14  A    between atoms: C13_29  and  O11_30
REMARK   15  A    between atoms: C13_29  and  C14_32
REMARK   16  A    between atoms: C14_32  and  O12_34
REMARK   17  A    between atoms: C17_37  and  N2_38
REMARK   18  A    between atoms: C18_42  and  O13_43
REMARK   19  A    between atoms: C19_45  and  O14_46
ROOT
HETATM    1  C5  UNL     1      28.499  -4.322  -0.090  1.00  0.00     0.216 C
HETATM    2  O4  UNL     1      29.759  -4.906  -0.135  1.00  0.00    -0.363 OA
HETATM    3  C6  UNL     1      30.661  -4.429   0.776  1.00  0.00     0.179 C
HETATM    4  C11 UNL     1      31.041  -2.955   0.566  1.00  0.00     0.113 C
HETATM    5  C16 UNL     1      29.912  -2.376  -0.224  1.00  0.00     0.063 C
HETATM    6  C17 UNL     1      28.652  -2.919   0.465  1.00  0.00     0.224 C
ENDROOT
BRANCH   1   7
HETATM    7  S1  UNL     1      27.256  -5.260   0.778  1.00  0.00    -0.101 SA
BRANCH   7   8
HETATM    8  C4  UNL     1      25.575  -4.959   0.289  1.00  0.00     0.217 C
HETATM    9  O3  UNL     1      25.407  -3.796  -0.453  1.00  0.00    -0.355 OA
HETATM   10  C3  UNL     1      24.236  -3.870  -1.146  1.00  0.00     0.253 C
HETATM   11  C19 UNL     1      23.726  -5.292  -1.088  1.00  0.00     0.189 C
HETATM   12  C18 UNL     1      24.918  -6.030  -0.512  1.00  0.00     0.189 C
BRANCH  10  13
HETATM   13  C2  UNL     1      23.199  -2.923  -0.636  1.00  0.00     0.290 C
HETATM   14  O2  UNL     1      22.422  -3.252   0.296  1.00  0.00    -0.262 OA
BRANCH  13  15
HETATM   15  O1  UNL     1      23.054  -1.654  -1.165  1.00  0.00    -0.324 OA
HETATM   16  C1  UNL     1      24.193  -0.834  -1.451  1.00  0.00     0.213 C
ENDBRANCH  13  15
ENDBRANCH  10  13
BRANCH  11  17
HETATM   17  O14 UNL     1      23.376  -5.785  -2.343  1.00  0.00    -0.390 OA
ATOM     18  H14 UNL     1      22.869  -5.162  -2.850  1.00  0.00     0.210 HD
ENDBRANCH  11  17
BRANCH  12  19
HETATM   19  O13 UNL     1      24.455  -7.094   0.248  1.00  0.00    -0.389 OA
ATOM     20  H13 UNL     1      23.544  -7.311   0.090  1.00  0.00     0.210 HD
ENDBRANCH  12  19
ENDBRANCH   7   8
ENDBRANCH   1   7
BRANCH   6  21
HETATM   21  N2  UNL     1      27.515  -2.079   0.237  1.00  0.00    -0.072 N
ATOM     22  H23 UNL     1      27.494  -1.757  -0.731  1.00  0.00     0.274 HD
ATOM     23  H22 UNL     1      26.655  -2.627   0.254  1.00  0.00     0.274 HD
ATOM     24  H21 UNL     1      27.450  -1.290   0.879  1.00  0.00     0.274 HD
ENDBRANCH   6  21
BRANCH   3  25
HETATM   25  C7  UNL     1      31.908  -5.283   0.738  1.00  0.00     0.207 C
BRANCH  25  26
HETATM   26  O5  UNL     1      32.847  -4.725   1.586  1.00  0.00    -0.388 OA
ATOM     27  H5  UNL     1      32.726  -3.783   1.592  1.00  0.00     0.210 HD
ENDBRANCH  25  26
BRANCH  25  28
HETATM   28  C8  UNL     1      32.472  -5.327  -0.649  1.00  0.00     0.331 C
HETATM   29  O6  UNL     1      33.835  -5.105  -0.701  1.00  0.00    -0.203 OA
HETATM   30  O7  UNL     1      34.162  -5.735  -1.834  1.00  0.00    -0.203 OA
HETATM   31  C9  UNL     1      33.542  -6.973  -1.628  1.00  0.00     0.323 C
HETATM   32  O9  UNL     1      32.304  -6.639  -1.113  1.00  0.00    -0.321 OA
BRANCH  31  33
HETATM   33  C10 UNL     1      34.402  -7.735  -0.627  1.00  0.00     0.227 C
BRANCH  33  34
HETATM   34  O8  UNL     1      33.670  -8.793  -0.146  1.00  0.00    -0.396 OA
ATOM     35  H8  UNL     1      34.104  -9.597  -0.402  1.00  0.00     0.209 HD
ENDBRANCH  33  34
ENDBRANCH  31  33
ENDBRANCH  25  28
ENDBRANCH   3  25
BRANCH   4  36
HETATM   36  N1  UNL     1      31.255  -2.416   1.856  1.00  0.00    -0.388 N
ATOM     37  H1  UNL     1      31.967  -2.813   2.469  1.00  0.00     0.156 HD
BRANCH  36  38
HETATM   38  C12 UNL     1      30.475  -1.322   2.286  1.00  0.00     0.245 C
BRANCH  38  39
HETATM   39  O10 UNL     1      31.073  -0.083   2.283  1.00  0.00    -0.374 OA
ATOM     40  H10 UNL     1      31.364   0.261   3.119  1.00  0.00     0.212 HD
ENDBRANCH  38  39
BRANCH  38  41
HETATM   41  C13 UNL     1      29.742  -1.518   3.597  1.00  0.00     0.194 C
BRANCH  41  42
HETATM   42  O11 UNL     1      28.440  -1.986   3.403  1.00  0.00    -0.389 OA
ATOM     43  H11 UNL     1      27.793  -1.310   3.565  1.00  0.00     0.210 HD
ENDBRANCH  41  42
BRANCH  41  44
HETATM   44  C14 UNL     1      29.608  -0.174   4.312  1.00  0.00     0.147 C
HETATM   45  C15 UNL     1      29.403  -0.445   5.786  1.00  0.00     0.042 C
BRANCH  44  46
HETATM   46  O12 UNL     1      28.476   0.490   3.847  1.00  0.00    -0.393 OA
ATOM     47  H12 UNL     1      28.431   1.354   4.238  1.00  0.00     0.210 HD
ENDBRANCH  44  46
ENDBRANCH  41  44
ENDBRANCH  38  41
ENDBRANCH  36  38
ENDBRANCH   4  36
TORSDOF 19
ENDMDL