MODEL 1
REMARK VINA RESULT: -7.803199245      0.000      0.000
REMARK  16 active torsions:
REMARK  status: ('A' for Active; 'I' for Inactive)
REMARK    1  A    between atoms: C2_2  and  O1_3
REMARK    2  A    between atoms: C2_2  and  C3_5
REMARK    3  A    between atoms: C3_5  and  O2_6
REMARK    4  A    between atoms: C3_5  and  C4_8
REMARK    5  A    between atoms: C4_8  and  O3_9
REMARK    6  A    between atoms: C4_8  and  N1_11
REMARK    7  A    between atoms: N1_11  and  C5_12
REMARK    8  A    between atoms: N1_11  and  N10_47
REMARK    9  A    between atoms: C6_15  and  N3_16
REMARK   10  A    between atoms: C8_22  and  N5_23
REMARK   11  A    between atoms: N5_23  and  C10_26
REMARK   12  A    between atoms: C10_26  and  C11_27
REMARK   13  A    between atoms: C11_27  and  C12_28
REMARK   14  A    between atoms: N7_31  and  C13_32
REMARK   15  A    between atoms: C15_36  and  O6_37
REMARK   16  A    between atoms: C16_39  and  O7_40
ROOT
HETATM    1  N5  UNL     1      28.739   7.979  10.076  1.00  0.00    -0.116 N
HETATM    2  C9  UNL     1      29.213   9.002   9.284  1.00  0.00     0.199 C
HETATM    3  N6  UNL     1      29.642   9.850   8.579  1.00  0.00    -0.171 NA
ENDROOT
BRANCH   1   4
HETATM    4  C8  UNL     1      28.755   6.654   9.478  1.00  0.00     0.702 A
HETATM    5  N4  UNL     1      27.617   6.104   9.059  1.00  0.00    -0.184 N
HETATM    6  C7  UNL     1      27.955   4.907   8.578  1.00  0.00     0.126 A
ATOM      7  H4  UNL     1      26.683   6.512   9.097  1.00  0.00     0.184 HD
HETATM    8  C6  UNL     1      27.048   4.020   8.049  1.00  0.00     0.144 C
HETATM    9  C17 UNL     1      29.346   4.731   8.715  1.00  0.00     0.158 A
HETATM   10  N2  UNL     1      27.252   2.739   7.673  1.00  0.00    -0.173 N
HETATM   11  C5  UNL     1      28.422   2.110   7.546  1.00  0.00     0.711 C
ATOM     12  H2  UNL     1      26.418   2.191   7.463  1.00  0.00     0.186 HD
HETATM   13  N9  UNL     1      29.627   2.409   8.040  1.00  0.00    -0.152 N
HETATM   14  C18 UNL     1      30.101   3.649   8.346  1.00  0.00     0.290 C
ATOM     15  H9  UNL     1      30.259   1.625   8.207  1.00  0.00     0.187 HD
HETATM   16  O8  UNL     1      31.323   3.829   8.285  1.00  0.00    -0.265 OA
HETATM   17  N7  UNL     1      29.836   5.850   9.287  1.00  0.00    -0.125 N
BRANCH   8  18
HETATM   18  N3  UNL     1      25.855   4.441   7.879  1.00  0.00    -0.383 N
ATOM     19  H32 UNL     1      25.132   3.738   7.723  1.00  0.00     0.157 HD
ATOM     20  H31 UNL     1      25.751   5.455   7.922  1.00  0.00     0.157 HD
ENDBRANCH   8  18
BRANCH  11  21
HETATM   21  N1  UNL     1      28.348   0.914   6.734  1.00  0.00    -0.031 N
BRANCH  21  22
HETATM   22  C4  UNL     1      29.033  -0.208   7.245  1.00  0.00     0.296 C
BRANCH  22  23
HETATM   23  C3  UNL     1      29.792  -1.094   6.346  1.00  0.00     0.197 C
BRANCH  23  24
HETATM   24  C2  UNL     1      29.000  -2.014   5.470  1.00  0.00     0.147 C
HETATM   25  C1  UNL     1      29.350  -1.805   3.990  1.00  0.00     0.042 C
BRANCH  24  26
HETATM   26  O1  UNL     1      29.246  -3.351   5.737  1.00  0.00    -0.393 OA
ATOM     27  H1  UNL     1      29.101  -3.464   6.669  1.00  0.00     0.210 HD
ENDBRANCH  24  26
ENDBRANCH  23  24
BRANCH  23  28
HETATM   28  O2  UNL     1      30.911  -1.677   6.927  1.00  0.00    -0.389 OA
ATOM     29  H2  UNL     1      31.540  -1.057   7.277  1.00  0.00     0.210 HD
ENDBRANCH  23  28
ENDBRANCH  22  23
BRANCH  22  30
HETATM   30  O3  UNL     1      28.049  -1.024   7.874  1.00  0.00    -0.371 OA
ATOM     31  H3  UNL     1      27.209  -0.732   7.542  1.00  0.00     0.212 HD
ENDBRANCH  22  30
ENDBRANCH  21  22
BRANCH  21  32
HETATM   32  N10 UNL     1      27.606   1.075   5.584  1.00  0.00    -0.019 N
HETATM   33  O9  UNL     1      26.383   1.170   5.633  1.00  0.00    -0.516 OA
HETATM   34  O10 UNL     1      28.234   1.144   4.377  1.00  0.00    -0.516 OA
ENDBRANCH  21  32
ENDBRANCH  11  21
BRANCH  17  35
HETATM   35  C13 UNL     1      31.147   6.165   9.648  1.00  0.00     0.133 C
HETATM   36  N8  UNL     1      31.840   5.487  10.707  1.00  0.00    -0.374 N
HETATM   37  C14 UNL     1      33.112   6.112  10.771  1.00  0.00     0.155 C
ATOM     38  H8  UNL     1      31.493   4.724  11.287  1.00  0.00     0.161 HD
HETATM   39  C15 UNL     1      33.228   7.157   9.717  1.00  0.00     0.172 C
HETATM   40  C16 UNL     1      32.078   6.840   8.735  1.00  0.00     0.216 C
BRANCH  39  41
HETATM   41  O6  UNL     1      32.990   8.393  10.311  1.00  0.00    -0.391 OA
ATOM     42  H6  UNL     1      33.761   8.932  10.183  1.00  0.00     0.210 HD
ENDBRANCH  39  41
BRANCH  40  43
HETATM   43  O7  UNL     1      32.616   6.274   7.652  1.00  0.00    -0.385 OA
ATOM     44  H7  UNL     1      32.732   6.714   6.817  1.00  0.00     0.210 HD
ENDBRANCH  40  43
ENDBRANCH  17  35
ENDBRANCH   1   4
BRANCH   1  45
HETATM   45  C10 UNL     1      28.244   8.116  11.392  1.00  0.00     0.170 C
BRANCH  45  46
HETATM   46  C11 UNL     1      29.111   8.716  12.438  1.00  0.00     0.135 C
BRANCH  46  47
HETATM   47  C12 UNL     1      30.394   8.122  12.740  1.00  0.00     0.174 C
HETATM   48  O4  UNL     1      30.580   6.956  13.089  1.00  0.00    -0.648 OA
HETATM   49  O5  UNL     1      31.551   8.923  12.635  1.00  0.00    -0.648 OA
ENDBRANCH  46  47
ENDBRANCH  45  46
ENDBRANCH   1  45
TORSDOF 16
ENDMDL