MODEL 5
REMARK VINA RESULT: -7.993561587      3.640      6.071
REMARK  14 active torsions:
REMARK  status: ('A' for Active; 'I' for Inactive)
REMARK       I    between atoms: N1_2  and  C2_4
REMARK    1  A    between atoms: C2_4  and  C3_6
REMARK    2  A    between atoms: C3_6  and  O2_7
REMARK    3  A    between atoms: C3_6  and  C4_9
REMARK    4  A    between atoms: C4_9  and  O3_10
REMARK    5  A    between atoms: C4_9  and  C5_12
REMARK    6  A    between atoms: C5_12  and  O4_13
REMARK    7  A    between atoms: C5_12  and  C6_15
REMARK    8  A    between atoms: C7_19  and  O5_20
REMARK    9  A    between atoms: O5_20  and  C8_21
REMARK   10  A    between atoms: C10_23  and  O6_24
REMARK   11  A    between atoms: O6_24  and  C11_25
REMARK   12  A    between atoms: C13_29  and  O9_31
REMARK   13  A    between atoms: C15_33  and  N3_34
REMARK   14  A    between atoms: C19_43  and  C20_44
ROOT
HETATM    1  C6  UNL     1      28.046   0.956   6.069  1.00  0.00     0.417 C
HETATM    2  N2  UNL     1      27.713   0.556   4.691  1.00  0.00    -0.017 N
ATOM      3  H21 UNL     1      27.555   1.341   4.060  1.00  0.00     0.282 HD
ATOM      4  H22 UNL     1      26.788   0.138   4.595  1.00  0.00     0.282 HD
HETATM    5  C7  UNL     1      28.795  -0.316   4.280  1.00  0.00     0.332 C
HETATM    6  C18 UNL     1      28.647  -1.588   5.080  1.00  0.00     0.106 C
HETATM    7  C19 UNL     1      28.716  -1.309   6.553  1.00  0.00     0.292 C
HETATM    8  N7  UNL     1      27.968  -0.161   6.968  1.00  0.00    -0.029 N
ATOM      9  H71 UNL     1      26.995  -0.414   7.138  1.00  0.00     0.280 HD
ATOM     10  H72 UNL     1      28.242   0.121   7.910  1.00  0.00     0.280 HD
ENDROOT
BRANCH   5  11
HETATM   11  O5  UNL     1      28.949  -0.482   2.924  1.00  0.00    -0.320 OA
BRANCH  11  12
HETATM   12  C8  UNL     1      29.299  -1.650   2.243  1.00  0.00     0.080 C
HETATM   13  C9  UNL     1      28.342  -2.325   1.672  1.00  0.00     0.068 C
HETATM   14  C10 UNL     1      28.575  -3.568   0.926  1.00  0.00     0.300 C
HETATM   15  O8  UNL     1      29.874  -3.963   0.839  1.00  0.00    -0.319 OA
HETATM   16  C13 UNL     1      30.645  -3.638   1.949  1.00  0.00     0.190 C
HETATM   17  C14 UNL     1      30.161  -4.356   3.184  1.00  0.00     0.082 C
HETATM   18  C15 UNL     1      30.687  -2.134   2.152  1.00  0.00     0.227 C
BRANCH  14  19
HETATM   19  O6  UNL     1      27.729  -4.617   1.419  1.00  0.00    -0.286 OA
BRANCH  19  20
HETATM   20  C11 UNL     1      26.836  -5.297   0.629  1.00  0.00     0.257 C
HETATM   21  C12 UNL     1      25.649  -4.642  -0.002  1.00  0.00     0.126 C
HETATM   22  O7  UNL     1      27.026  -6.523   0.430  1.00  0.00    -0.266 OA
ENDBRANCH  19  20
ENDBRANCH  14  19
BRANCH  16  23
HETATM   23  O9  UNL     1      31.947  -4.063   1.695  1.00  0.00    -0.363 OA
ATOM     24  H9  UNL     1      32.395  -3.358   1.243  1.00  0.00     0.213 HD
ENDBRANCH  16  23
BRANCH  18  25
HETATM   25  N3  UNL     1      31.475  -1.502   1.125  1.00  0.00    -0.269 N
HETATM   26  C16 UNL     1      32.270  -0.434   1.314  1.00  0.00     0.159 A
HETATM   27  C17 UNL     1      32.856  -0.121   0.107  1.00  0.00     0.149 A
HETATM   28  N4  UNL     1      33.784   0.947  -0.175  1.00  0.00    -0.080 NA
HETATM   29  N5  UNL     1      32.394  -1.017  -0.779  1.00  0.00    -0.272 N
HETATM   30  N6  UNL     1      31.567  -1.828  -0.130  1.00  0.00    -0.239 N
ATOM     31  H5  UNL     1      32.634  -1.066  -1.770  1.00  0.00     0.189 HD
ATOM     32  H6  UNL     1      31.069  -2.608  -0.560  1.00  0.00     0.208 HD
ENDBRANCH  18  25
ENDBRANCH  11  12
ENDBRANCH   5  11
BRANCH   1  33
HETATM   33  C5  UNL     1      27.111   2.033   6.546  1.00  0.00     0.208 C
BRANCH  33  34
HETATM   34  C4  UNL     1      27.931   3.054   7.322  1.00  0.00     0.188 C
BRANCH  34  35
HETATM   35  C3  UNL     1      27.039   3.901   8.206  1.00  0.00     0.241 C
BRANCH  35  36
HETATM   36  C2  UNL     1      27.823   4.775   9.101  1.00  0.00     0.248 C
HETATM   37  N1  UNL     1      27.973   6.160   8.855  1.00  0.00    -0.363 N
HETATM   38  C1  UNL     1      28.758   7.014   9.756  1.00  0.00     0.149 C
ATOM     39  H1  UNL     1      27.528   6.574   8.035  1.00  0.00     0.162 HD
HETATM   40  O1  UNL     1      28.380   4.272  10.124  1.00  0.00    -0.271 OA
ENDBRANCH  35  36
BRANCH  35  41
HETATM   41  O2  UNL     1      26.233   3.048   8.928  1.00  0.00    -0.383 OA
ATOM     42  H2  UNL     1      25.438   3.487   9.209  1.00  0.00     0.210 HD
ENDBRANCH  35  41
ENDBRANCH  34  35
BRANCH  34  43
HETATM   43  O3  UNL     1      28.874   2.460   8.120  1.00  0.00    -0.390 OA
ATOM     44  H3  UNL     1      28.543   2.454   9.010  1.00  0.00     0.210 HD
ENDBRANCH  34  43
ENDBRANCH  33  34
BRANCH  33  45
HETATM   45  O4  UNL     1      26.563   2.659   5.403  1.00  0.00    -0.389 OA
ATOM     46  H4  UNL     1      25.750   3.088   5.646  1.00  0.00     0.210 HD
ENDBRANCH  33  45
ENDBRANCH   1  33
BRANCH   7  47
HETATM   47  C20 UNL     1      30.119  -1.152   7.018  1.00  0.00     0.205 C
HETATM   48  O10 UNL     1      30.964  -2.078   6.878  1.00  0.00    -0.646 OA
HETATM   49  O11 UNL     1      30.586   0.013   7.629  1.00  0.00    -0.646 OA
ENDBRANCH   7  47
TORSDOF 14
ENDMDL