MODEL 1
REMARK VINA RESULT: -7.253491812      0.000      0.000
REMARK  19 active torsions:
REMARK  status: ('A' for Active; 'I' for Inactive)
REMARK    1  A    between atoms: C1_2  and  C2_4
REMARK    2  A    between atoms: C3_5  and  C4_6
REMARK    3  A    between atoms: C4_6  and  O3_7
REMARK    4  A    between atoms: C4_6  and  O4_9
REMARK    5  A    between atoms: O4_9  and  C5_10
REMARK    6  A    between atoms: C5_10  and  C6_11
REMARK    7  A    between atoms: C6_11  and  O5_12
REMARK    8  A    between atoms: C6_11  and  C7_14
REMARK    9  A    between atoms: C7_14  and  O6_15
REMARK   10  A    between atoms: C10_19  and  O7_20
REMARK   11  A    between atoms: O7_20  and  C11_21
REMARK   12  A    between atoms: C11_21  and  O8_22
REMARK   13  A    between atoms: C11_21  and  C12_24
REMARK   14  A    between atoms: C13_26  and  C14_27
REMARK   15  A    between atoms: C14_27  and  O10_28
REMARK   16  A    between atoms: C14_27  and  O11_30
REMARK   17  A    between atoms: C17_35  and  O13_36
REMARK   18  A    between atoms: C18_42  and  O14_43
REMARK   19  A    between atoms: C19_46  and  O16_47
ROOT
HETATM    1  C2  UNL     1      31.724   5.745   9.305  1.00  0.00     0.093 C
HETATM    2  C3  UNL     1      31.093   6.365  10.276  1.00  0.00     0.065 C
HETATM    3  C8  UNL     1      29.725   6.869   9.899  1.00  0.00     0.216 C
HETATM    4  C9  UNL     1      28.785   5.760   9.499  1.00  0.00     0.093 C
HETATM    5  C10 UNL     1      29.126   5.090   8.217  1.00  0.00     0.194 C
HETATM    6  S1  UNL     1      30.778   5.657   7.729  1.00  0.00    -0.090 SA
HETATM    7  N1  UNL     1      29.119   7.469  11.072  1.00  0.00    -0.007 N
ATOM      8  H11 UNL     1      29.768   7.649  11.837  1.00  0.00     0.284 HD
ATOM      9  H12 UNL     1      28.506   6.846  11.596  1.00  0.00     0.284 HD
HETATM   10  C18 UNL     1      28.465   8.653  10.548  1.00  0.00     0.470 C
HETATM   11  O15 UNL     1      29.503   9.170   9.755  1.00  0.00    -0.306 OA
HETATM   12  C19 UNL     1      29.792   8.021   8.963  1.00  0.00     0.303 C
ENDROOT
BRANCH   5  13
HETATM   13  O7  UNL     1      29.185   3.716   8.389  1.00  0.00    -0.339 OA
BRANCH  13  14
HETATM   14  C11 UNL     1      28.077   3.059   7.864  1.00  0.00     0.320 C
BRANCH  14  15
HETATM   15  O8  UNL     1      27.455   3.749   6.851  1.00  0.00    -0.365 OA
ATOM     16  H8  UNL     1      27.941   3.751   6.036  1.00  0.00     0.213 HD
ENDBRANCH  14  15
BRANCH  14  17
HETATM   17  C12 UNL     1      28.437   1.657   7.450  1.00  0.00     0.145 A
HETATM   18  O9  UNL     1      28.834   1.379   6.232  1.00  0.00    -0.306 OA
HETATM   19  C13 UNL     1      29.159   0.201   5.802  1.00  0.00     0.112 A
HETATM   20  C15 UNL     1      29.088  -0.854   6.688  1.00  0.00     0.095 A
HETATM   21  C16 UNL     1      28.681  -0.643   7.988  1.00  0.00     0.210 A
HETATM   22  O12 UNL     1      28.605  -1.572   8.814  1.00  0.00    -0.285 OA
HETATM   23  C17 UNL     1      28.353   0.629   8.369  1.00  0.00     0.151 A
BRANCH  19  24
HETATM   24  C14 UNL     1      29.606  -0.041   4.386  1.00  0.00     0.312 C
BRANCH  24  25
HETATM   25  O10 UNL     1      28.534   0.116   3.502  1.00  0.00    -0.365 OA
ATOM     26  H10 UNL     1      28.192   1.001   3.549  1.00  0.00     0.213 HD
ENDBRANCH  24  25
BRANCH  24  27
HETATM   27  O11 UNL     1      30.626   0.842   4.038  1.00  0.00    -0.365 OA
ATOM     28  H11 UNL     1      31.349   0.375   3.636  1.00  0.00     0.213 HD
ENDBRANCH  24  27
ENDBRANCH  19  24
BRANCH  23  29
HETATM   29  O13 UNL     1      27.932   0.932   9.656  1.00  0.00    -0.355 OA
ATOM     30  H13 UNL     1      27.486   0.256  10.155  1.00  0.00     0.218 HD
ENDBRANCH  23  29
ENDBRANCH  14  17
ENDBRANCH  13  14
ENDBRANCH   5  13
BRANCH   1  31
HETATM   31  C1  UNL     1      33.019   5.161   9.352  1.00  0.00     0.217 C
HETATM   32  O1  UNL     1      33.991   6.031   9.308  1.00  0.00    -0.643 OA
HETATM   33  O2  UNL     1      33.480   3.894   9.431  1.00  0.00    -0.643 OA
ENDBRANCH   1  31
BRANCH   2  34
HETATM   34  C4  UNL     1      31.622   6.573  11.614  1.00  0.00     0.189 C
BRANCH  34  35
HETATM   35  O3  UNL     1      32.693   7.306  11.695  1.00  0.00    -0.340 OA
ATOM     36  H3  UNL     1      32.657   8.028  12.312  1.00  0.00     0.220 HD
ENDBRANCH  34  35
BRANCH  34  37
HETATM   37  O4  UNL     1      31.223   6.153  12.819  1.00  0.00    -0.328 OA
BRANCH  37  38
HETATM   38  C5  UNL     1      31.639   6.419  14.099  1.00  0.00     0.211 C
BRANCH  38  39
HETATM   39  C6  UNL     1      30.692   6.906  15.117  1.00  0.00     0.166 C
BRANCH  39  40
HETATM   40  O5  UNL     1      29.692   6.044  15.440  1.00  0.00    -0.391 OA
ATOM     41  H5  UNL     1      28.842   6.444  15.583  1.00  0.00     0.210 HD
ENDBRANCH  39  40
BRANCH  39  42
HETATM   42  C7  UNL     1      30.069   8.196  14.536  1.00  0.00     0.198 C
BRANCH  42  43
HETATM   43  O6  UNL     1      28.845   7.798  13.998  1.00  0.00    -0.398 OA
ATOM     44  H6  UNL     1      29.059   7.112  13.378  1.00  0.00     0.209 HD
ENDBRANCH  42  43
ENDBRANCH  39  42
ENDBRANCH  38  39
ENDBRANCH  37  38
ENDBRANCH  34  37
ENDBRANCH   2  34
BRANCH  12  45
HETATM   45  O16 UNL     1      28.808   8.038   7.977  1.00  0.00    -0.368 OA
ATOM     46  H16 UNL     1      28.732   8.855   7.498  1.00  0.00     0.212 HD
ENDBRANCH  12  45
BRANCH  10  47
HETATM   47  O14 UNL     1      28.153   9.551  11.563  1.00  0.00    -0.349 OA
ATOM     48  H14 UNL     1      28.911  10.067  11.813  1.00  0.00     0.214 HD
ENDBRANCH  10  47
TORSDOF 19
ENDMDL