MODEL 1
REMARK VINA RESULT: -8.386628368      0.000      0.000
REMARK  18 active torsions:
REMARK  status: ('A' for Active; 'I' for Inactive)
REMARK    1  A    between atoms: N1_1  and  C1_5
REMARK    2  A    between atoms: C1_5  and  C2_6
REMARK    3  A    between atoms: C2_6  and  N2_7
REMARK    4  A    between atoms: C2_6  and  C21_48
REMARK    5  A    between atoms: N2_7  and  C3_10
REMARK    6  A    between atoms: C6_15  and  O3_16
REMARK    7  A    between atoms: C7_18  and  O4_19
REMARK    8  A    between atoms: C7_18  and  C8_21
REMARK    9  A    between atoms: C8_21  and  O5_22
REMARK   10  A    between atoms: C10_26  and  O7_27
REMARK   11  A    between atoms: C10_26  and  C11_29
REMARK   12  A    between atoms: C11_29  and  O8_30
REMARK   13  A    between atoms: O8_30  and  C12_31
REMARK   14  A    between atoms: C12_31  and  C13_33
REMARK   15  A    between atoms: C14_34  and  C15_35
REMARK   16  A    between atoms: C17_37  and  O10_38
REMARK   17  A    between atoms: C18_40  and  O11_41
REMARK   18  A    between atoms: C19_43  and  O12_44
ROOT
HETATM    1  C3  UNL     1      33.039  -6.839   1.817  1.00  0.00     0.480 C
HETATM    2  O1  UNL     1      32.937  -7.798   0.750  1.00  0.00    -0.264 OA
HETATM    3  C4  UNL     1      33.065  -7.469  -0.583  1.00  0.00     0.272 C
HETATM    4  O2  UNL     1      32.752  -8.369  -1.385  1.00  0.00    -0.265 OA
HETATM    5  C5  UNL     1      33.516  -6.211  -1.137  1.00  0.00     0.154 C
HETATM    6  C6  UNL     1      32.983  -5.948  -2.527  1.00  0.00     0.199 C
HETATM    7  C7  UNL     1      33.056  -4.458  -2.587  1.00  0.00     0.211 C
HETATM    8  O6  UNL     1      32.809  -4.032  -1.324  1.00  0.00    -0.339 OA
HETATM    9  C9  UNL     1      33.190  -4.991  -0.389  1.00  0.00     0.206 C
HETATM   10  C10 UNL     1      32.103  -5.030   0.640  1.00  0.00     0.216 C
HETATM   11  O13 UNL     1      32.076  -5.910   1.585  1.00  0.00    -0.297 OA
ENDROOT
BRANCH  10  12
HETATM   12  O7  UNL     1      30.913  -5.175  -0.131  1.00  0.00    -0.362 OA
ATOM     13  H7  UNL     1      30.770  -4.308  -0.492  1.00  0.00     0.213 HD
ENDBRANCH  10  12
BRANCH  10  14
HETATM   14  C11 UNL     1      32.006  -3.616   1.173  1.00  0.00     0.250 C
BRANCH  14  15
HETATM   15  O8  UNL     1      31.093  -3.329   2.128  1.00  0.00    -0.313 OA
BRANCH  15  16
HETATM   16  C12 UNL     1      29.955  -2.603   2.147  1.00  0.00     0.283 C
HETATM   17  O9  UNL     1      30.013  -1.404   2.498  1.00  0.00    -0.260 OA
BRANCH  16  18
HETATM   18  C13 UNL     1      28.648  -3.174   1.769  1.00  0.00     0.083 C
HETATM   19  C14 UNL     1      28.171  -2.962   0.583  1.00  0.00     0.017 C
BRANCH  19  20
HETATM   20  C15 UNL     1      26.893  -3.505   0.169  1.00  0.00    -0.031 A
HETATM   21  C16 UNL     1      25.929  -2.637  -0.333  1.00  0.00     0.051 A
HETATM   22  C17 UNL     1      24.711  -3.074  -0.746  1.00  0.00     0.102 A
HETATM   23  C18 UNL     1      24.418  -4.417  -0.666  1.00  0.00     0.132 A
HETATM   24  C19 UNL     1      25.349  -5.303  -0.174  1.00  0.00     0.102 A
HETATM   25  C20 UNL     1      26.593  -4.825   0.243  1.00  0.00     0.051 A
BRANCH  22  26
HETATM   26  O10 UNL     1      23.761  -2.202  -1.243  1.00  0.00    -0.358 OA
ATOM     27  H10 UNL     1      22.921  -2.512  -1.562  1.00  0.00     0.217 HD
ENDBRANCH  22  26
BRANCH  23  28
HETATM   28  O11 UNL     1      23.185  -4.913  -1.077  1.00  0.00    -0.356 OA
ATOM     29  H11 UNL     1      22.439  -4.931  -0.488  1.00  0.00     0.218 HD
ENDBRANCH  23  28
BRANCH  24  30
HETATM   30  O12 UNL     1      25.049  -6.651  -0.097  1.00  0.00    -0.358 OA
ATOM     31  H12 UNL     1      25.282  -7.146   0.679  1.00  0.00     0.217 HD
ENDBRANCH  24  30
ENDBRANCH  19  20
ENDBRANCH  16  18
ENDBRANCH  15  16
ENDBRANCH  14  15
ENDBRANCH  10  14
BRANCH   1  32
HETATM   32  N2  UNL     1      34.357  -6.354   1.980  1.00  0.00    -0.009 N
ATOM     33  H22 UNL     1      34.421  -5.703   2.762  1.00  0.00     0.284 HD
ATOM     34  H21 UNL     1      34.618  -5.720   1.225  1.00  0.00     0.284 HD
BRANCH  32  35
HETATM   35  C2  UNL     1      35.299  -7.430   2.114  1.00  0.00     0.316 C
BRANCH  35  36
HETATM   36  C1  UNL     1      35.525  -7.851   3.535  1.00  0.00     0.274 C
BRANCH  36  37
HETATM   37  N1  UNL     1      36.185  -6.751   4.244  1.00  0.00    -0.077 N
ATOM     38  H13 UNL     1      36.081  -5.857   3.763  1.00  0.00     0.274 HD
ATOM     39  H12 UNL     1      35.708  -6.499   5.109  1.00  0.00     0.274 HD
ATOM     40  H11 UNL     1      37.161  -7.005   4.393  1.00  0.00     0.274 HD
ENDBRANCH  36  37
ENDBRANCH  35  36
BRANCH  35  41
HETATM   41  C21 UNL     1      36.608  -7.071   1.451  1.00  0.00     0.206 C
HETATM   42  O14 UNL     1      36.622  -6.172   0.576  1.00  0.00    -0.646 OA
HETATM   43  O15 UNL     1      37.802  -7.692   1.765  1.00  0.00    -0.646 OA
ENDBRANCH  35  41
ENDBRANCH  32  35
ENDBRANCH   1  32
BRANCH   6  44
HETATM   44  O3  UNL     1      31.692  -6.452  -2.588  1.00  0.00    -0.389 OA
ATOM     45  H3  UNL     1      31.229  -6.157  -1.813  1.00  0.00     0.210 HD
ENDBRANCH   6  44
BRANCH   7  46
HETATM   46  O4  UNL     1      34.303  -4.029  -3.026  1.00  0.00    -0.362 OA
ATOM     47  H4  UNL     1      34.619  -3.296  -2.511  1.00  0.00     0.213 HD
ENDBRANCH   7  46
BRANCH   7  48
HETATM   48  C8  UNL     1      31.993  -3.868  -3.502  1.00  0.00     0.235 C
BRANCH  48  49
HETATM   49  O5  UNL     1      32.092  -4.548  -4.715  1.00  0.00    -0.395 OA
ATOM     50  H5  UNL     1      32.895  -4.251  -5.126  1.00  0.00     0.209 HD
ENDBRANCH  48  49
ENDBRANCH   7  48
TORSDOF 18
ENDMDL