MODEL 1
REMARK VINA RESULT: -5.091640177      0.000      0.000
REMARK  4 active torsions:
REMARK  status: ('A' for Active; 'I' for Inactive)
REMARK    1  A    between atoms: N1_2  and  N2_3
REMARK    2  A    between atoms: N1_2  and  S1_6
REMARK    3  A    between atoms: S1_6  and  N3_7
REMARK    4  A    between atoms: N3_7  and  N4_9
ROOT
HETATM    1  N4  UNL     1      12.488  -4.004   4.824  1.00  0.00    -0.143 N
HETATM    2  C2  UNL     1      11.848  -4.780   5.716  1.00  0.00     0.365 A
HETATM    3  O1  UNL     1      12.417  -5.561   6.532  1.00  0.00    -0.243 OA
HETATM    4  N5  UNL     1      10.510  -4.619   5.635  1.00  0.00    -0.246 N
ATOM      5  H5  UNL     1       9.795  -5.086   6.194  1.00  0.00     0.192 HD
HETATM    6  N6  UNL     1      10.323  -3.722   4.674  1.00  0.00    -0.246 N
ATOM      7  H6  UNL     1       9.416  -3.375   4.361  1.00  0.00     0.192 HD
HETATM    8  C3  UNL     1      11.513  -3.342   4.177  1.00  0.00     0.365 A
HETATM    9  O2  UNL     1      11.730  -2.511   3.259  1.00  0.00    -0.243 OA
ENDROOT
BRANCH   1  10
HETATM   10  N3  UNL     1      13.883  -3.909   4.619  1.00  0.00    -0.244 N
ATOM     11  H3  UNL     1      14.433  -3.174   5.062  1.00  0.00     0.197 HD
BRANCH  10  12
HETATM   12  S1  UNL     1      14.638  -5.110   3.569  1.00  0.00     0.074 SA
BRANCH  12  13
HETATM   13  N1  UNL     1      13.448  -5.823   2.515  1.00  0.00    -0.161 NA
HETATM   14  C1  UNL     1      13.900  -5.917   1.143  1.00  0.00     0.152 C
BRANCH  13  15
HETATM   15  N2  UNL     1      13.031  -7.033   3.017  1.00  0.00    -0.353 NA
ATOM     16  H22 UNL     1      12.012  -7.069   3.050  1.00  0.00     0.172 HD
ATOM     17  H21 UNL     1      13.463  -7.254   3.914  1.00  0.00     0.172 HD
ENDBRANCH  13  15
ENDBRANCH  12  13
ENDBRANCH  10  12
ENDBRANCH   1  10
TORSDOF 4
ENDMDL