MODEL 2
REMARK VINA RESULT: -4.869428276      2.743      3.363
REMARK  3 active torsions:
REMARK  status: ('A' for Active; 'I' for Inactive)
REMARK    1  A    between atoms: N1_1  and  C1_4
REMARK    2  A    between atoms: C2_7  and  C3_8
REMARK       I    between atoms: N5_13  and  C4_14
REMARK       I    between atoms: C4_14  and  N6_16
REMARK    3  A    between atoms: N6_16  and  N7_18
ROOT
HETATM    1  C1  UNL     1      11.112  -4.037   4.937  1.00  0.00     0.703 A
HETATM    2  N2  UNL     1      10.490  -3.162   4.099  1.00  0.00    -0.169 N
ATOM      3  H2  UNL     1       9.503  -2.910   4.158  1.00  0.00     0.186 HD
HETATM    4  C2  UNL     1      11.343  -2.676   3.187  1.00  0.00     0.202 A
HETATM    5  N4  UNL     1      12.513  -3.260   3.463  1.00  0.00    -0.255 N
ATOM      6  H4  UNL     1      13.381  -3.105   2.950  1.00  0.00     0.190 HD
HETATM    7  N5  UNL     1      12.377  -4.083   4.521  1.00  0.00    -0.029 N
HETATM    8  C4  UNL     1      13.448  -4.845   5.052  1.00  0.00     0.374 C
HETATM    9  O2  UNL     1      13.329  -5.621   6.043  1.00  0.00    -0.243 OA
HETATM   10  N6  UNL     1      14.735  -4.760   4.465  1.00  0.00    -0.256 N
ATOM     11  H6  UNL     1      14.887  -4.151   3.662  1.00  0.00     0.191 HD
ENDROOT
BRANCH   1  12
HETATM   12  N1  UNL     1      10.559  -4.661   5.907  1.00  0.00    -0.233 N
ATOM     13  H12 UNL     1       9.943  -5.474   5.880  1.00  0.00     0.174 HD
ATOM     14  H11 UNL     1      10.656  -4.429   6.895  1.00  0.00     0.174 HD
ENDBRANCH   1  12
BRANCH   4  15
HETATM   15  C3  UNL     1      11.070  -1.713   2.111  1.00  0.00     0.300 C
HETATM   16  N3  UNL     1      11.981  -0.680   1.818  1.00  0.00    -0.054 NA
HETATM   17  O1  UNL     1      10.022  -1.780   1.424  1.00  0.00    -0.268 OA
ENDBRANCH   4  15
BRANCH  10  18
HETATM   18  N7  UNL     1      15.794  -5.503   4.978  1.00  0.00    -0.341 N
ATOM     19  H72 UNL     1      15.740  -5.835   5.940  1.00  0.00     0.177 HD
ATOM     20  H71 UNL     1      16.609  -5.710   4.399  1.00  0.00     0.177 HD
ENDBRANCH  10  18
TORSDOF 3
ENDMDL