MODEL 4
REMARK VINA RESULT: -4.553634564      3.283      3.625
REMARK  2 active torsions:
REMARK  status: ('A' for Active; 'I' for Inactive)
REMARK    1  A    between atoms: N1_1  and  N2_4
REMARK       I    between atoms: N2_4  and  C1_6
REMARK       I    between atoms: C1_6  and  N3_8
REMARK       I    between atoms: N3_8  and  C2_10
REMARK    2  A    between atoms: C2_10  and  C3_12
ROOT
HETATM    1  N2  UNL     1      16.615  -2.745   3.113  1.00  0.00    -0.258 N
ATOM      2  H2  UNL     1      16.687  -3.753   3.253  1.00  0.00     0.191 HD
HETATM    3  C1  UNL     1      15.417  -2.085   3.369  1.00  0.00     0.341 C
HETATM    4  O1  UNL     1      15.380  -0.813   3.178  1.00  0.00    -0.245 OA
HETATM    5  N3  UNL     1      14.240  -2.664   3.817  1.00  0.00    -0.271 N
ATOM      6  H3  UNL     1      13.436  -2.052   3.961  1.00  0.00     0.174 HD
HETATM    7  C2  UNL     1      14.074  -4.038   4.086  1.00  0.00     0.296 C
HETATM    8  O2  UNL     1      14.979  -4.875   3.947  1.00  0.00    -0.264 OA
ENDROOT
BRANCH   7   9
HETATM    9  C3  UNL     1      12.762  -4.561   4.566  1.00  0.00     0.203 A
HETATM   10  N4  UNL     1      12.462  -5.836   4.836  1.00  0.00    -0.262 N
HETATM   11  N5  UNL     1      11.183  -5.883   5.238  1.00  0.00    -0.005 NA
ATOM     12  H4  UNL     1      13.094  -6.632   4.752  1.00  0.00     0.186 HD
HETATM   13  N6  UNL     1      10.675  -4.649   5.223  1.00  0.00    -0.225 N
HETATM   14  N7  UNL     1      11.643  -3.860   4.814  1.00  0.00    -0.267 N
ATOM     15  H6  UNL     1       9.726  -4.373   5.477  1.00  0.00     0.205 HD
ATOM     16  H7  UNL     1      11.557  -2.850   4.700  1.00  0.00     0.190 HD
ENDBRANCH   7   9
BRANCH   1  17
HETATM   17  N1  UNL     1      17.754  -1.992   2.650  1.00  0.00    -0.341 N
ATOM     18  H12 UNL     1      18.591  -2.489   2.346  1.00  0.00     0.177 HD
ATOM     19  H11 UNL     1      17.707  -0.974   2.632  1.00  0.00     0.177 HD
ENDBRANCH   1  17
TORSDOF 2
ENDMDL