MODEL 5
REMARK VINA RESULT: -4.807514424      2.874      5.267
REMARK  4 active torsions:
REMARK  status: ('A' for Active; 'I' for Inactive)
REMARK    1  A    between atoms: N1_1  and  N2_4
REMARK    2  A    between atoms: N2_4  and  O1_5
REMARK    3  A    between atoms: O1_5  and  N3_6
REMARK    4  A    between atoms: N3_6  and  C1_8
ROOT
HETATM    1  C1  UNL     1      13.941  -4.911   4.687  1.00  0.00     0.144 A
HETATM    2  C2  UNL     1      14.352  -3.670   4.247  1.00  0.00     0.140 A
HETATM    3  N4  UNL     1      14.628  -3.429   2.952  1.00  0.00    -0.345 N
ATOM      4  H4  UNL     1      14.930  -2.503   2.646  1.00  0.00     0.167 HD
HETATM    5  C3  UNL     1      14.495  -4.436   2.069  1.00  0.00     0.154 A
HETATM    6  N5  UNL     1      14.695  -4.491   0.735  1.00  0.00    -0.291 N
ATOM      7  H5  UNL     1      15.002  -3.726   0.134  1.00  0.00     0.172 HD
HETATM    8  C4  UNL     1      14.411  -5.754   0.347  1.00  0.00     0.327 A
HETATM    9  O2  UNL     1      14.498  -6.138  -0.842  1.00  0.00    -0.247 OA
HETATM   10  N6  UNL     1      14.040  -6.499   1.378  1.00  0.00    -0.291 N
ATOM     11  H6  UNL     1      13.775  -7.484   1.350  1.00  0.00     0.172 HD
HETATM   12  C5  UNL     1      14.079  -5.714   2.465  1.00  0.00     0.156 A
HETATM   13  N7  UNL     1      13.822  -5.884   3.770  1.00  0.00    -0.323 N
ATOM     14  H7  UNL     1      13.517  -6.805   4.085  1.00  0.00     0.169 HD
ENDROOT
BRANCH   1  15
HETATM   15  N3  UNL     1      13.680  -5.112   5.953  1.00  0.00    -0.226 N
ATOM     16  H3  UNL     1      14.386  -4.951   6.671  1.00  0.00     0.198 HD
BRANCH  15  17
HETATM   17  O1  UNL     1      12.429  -5.546   6.276  1.00  0.00    -0.141 OA
BRANCH  17  18
HETATM   18  N2  UNL     1      11.385  -5.667   5.423  1.00  0.00     0.040 NA
BRANCH  18  19
HETATM   19  N1  UNL     1      10.504  -4.591   5.494  1.00  0.00    -0.321 N
ATOM     20  H12 UNL     1       9.513  -4.702   5.706  1.00  0.00     0.174 HD
ATOM     21  H11 UNL     1      10.960  -3.696   5.313  1.00  0.00     0.174 HD
ENDBRANCH  18  19
ENDBRANCH  17  18
ENDBRANCH  15  17
ENDBRANCH   1  15
TORSDOF 4
ENDMDL