MODEL 5
REMARK VINA RESULT: -4.162415832      1.338      3.979
REMARK  6 active torsions:
REMARK  status: ('A' for Active; 'I' for Inactive)
REMARK    1  A    between atoms: N1_1  and  C1_4
REMARK    2  A    between atoms: C1_4  and  N2_5
REMARK    3  A    between atoms: C2_6  and  N3_7
REMARK    4  A    between atoms: C3_14  and  C4_15
REMARK    5  A    between atoms: C4_15  and  N6_16
REMARK    6  A    between atoms: C4_15  and  N7_20
ROOT
HETATM    1  N2  UNL     1      13.116  -2.374   3.099  1.00  0.00    -0.105 N
HETATM    2  C2  UNL     1      14.438  -2.168   3.177  1.00  0.00     0.700 A
HETATM    3  N4  UNL     1      15.174  -2.923   4.008  1.00  0.00    -0.131 N
ATOM      4  H4  UNL     1      16.181  -2.771   4.071  1.00  0.00     0.205 HD
HETATM    5  N5  UNL     1      14.612  -3.853   4.737  1.00  0.00    -0.282 N
ATOM      6  H5  UNL     1      15.205  -4.406   5.357  1.00  0.00     0.187 HD
HETATM    7  C3  UNL     1      13.280  -4.122   4.713  1.00  0.00     0.153 A
HETATM    8  C5  UNL     1      12.528  -3.341   3.856  1.00  0.00     0.295 A
HETATM    9  O1  UNL     1      11.283  -3.533   3.781  1.00  0.00    -0.265 OA
ENDROOT
BRANCH   7  10
HETATM   10  C4  UNL     1      12.683  -5.182   5.553  1.00  0.00     0.434 C
BRANCH  10  11
HETATM   11  N6  UNL     1      11.543  -4.772   6.297  1.00  0.00    -0.045 N
ATOM     12  H63 UNL     1      11.819  -4.147   7.054  1.00  0.00     0.277 HD
ATOM     13  H62 UNL     1      10.968  -4.135   5.746  1.00  0.00     0.277 HD
ATOM     14  H61 UNL     1      10.976  -5.539   6.659  1.00  0.00     0.277 HD
ENDBRANCH  10  11
BRANCH  10  15
HETATM   15  N7  UNL     1      12.422  -6.326   4.708  1.00  0.00    -0.045 N
ATOM     16  H73 UNL     1      11.665  -6.912   5.059  1.00  0.00     0.277 HD
ATOM     17  H72 UNL     1      11.995  -6.071   3.818  1.00  0.00     0.277 HD
ATOM     18  H71 UNL     1      13.297  -6.838   4.594  1.00  0.00     0.277 HD
ENDBRANCH  10  15
ENDBRANCH   7  10
BRANCH   1  19
HETATM   19  C1  UNL     1      12.321  -1.580   2.221  1.00  0.00     0.203 C
BRANCH  19  20
HETATM   20  N1  UNL     1      11.780  -2.129   1.187  1.00  0.00    -0.394 N
ATOM     21  H12 UNL     1      12.373  -2.589   0.497  1.00  0.00     0.156 HD
ATOM     22  H11 UNL     1      10.766  -2.095   1.076  1.00  0.00     0.156 HD
ENDBRANCH  19  20
ENDBRANCH   1  19
BRANCH   2  23
HETATM   23  N3  UNL     1      15.008  -1.240   2.452  1.00  0.00    -0.233 N
ATOM     24  H32 UNL     1      16.016  -1.259   2.293  1.00  0.00     0.174 HD
ATOM     25  H31 UNL     1      14.451  -0.491   2.040  1.00  0.00     0.174 HD
ENDBRANCH   2  23
TORSDOF 6
ENDMDL