MODEL 2
REMARK VINA RESULT: -5.008687349      2.114      3.148
REMARK  5 active torsions:
REMARK  status: ('A' for Active; 'I' for Inactive)
REMARK    1  A    between atoms: N1_1  and  C1_4
REMARK    2  A    between atoms: C2_7  and  N3_8
REMARK    3  A    between atoms: N3_8  and  O1_9
REMARK    4  A    between atoms: N3_8  and  N4_11
REMARK    5  A    between atoms: N4_11  and  N5_13
ROOT
HETATM    1  C1  UNL     1      14.508  -4.414   3.734  1.00  0.00     0.692 A
HETATM    2  N2  UNL     1      13.165  -4.320   3.785  1.00  0.00    -0.166 N
ATOM      3  H2  UNL     1      12.662  -3.948   2.979  1.00  0.00     0.186 HD
HETATM    4  C2  UNL     1      12.469  -4.703   4.870  1.00  0.00     0.237 A
HETATM    5  C3  UNL     1      13.210  -5.200   5.929  1.00  0.00     0.309 A
HETATM    6  O2  UNL     1      12.611  -5.566   6.951  1.00  0.00    -0.262 OA
HETATM    7  N6  UNL     1      14.567  -5.295   5.873  1.00  0.00    -0.249 N
ATOM      8  H6  UNL     1      15.090  -5.665   6.667  1.00  0.00     0.191 HD
HETATM    9  N7  UNL     1      15.206  -4.900   4.773  1.00  0.00    -0.129 N
ATOM     10  H7  UNL     1      16.223  -4.966   4.719  1.00  0.00     0.205 HD
ENDROOT
BRANCH   4  11
HETATM   11  N3  UNL     1      11.051  -4.610   4.941  1.00  0.00    -0.126 N
BRANCH  11  12
HETATM   12  O1  UNL     1      10.373  -5.588   5.305  1.00  0.00    -0.265 OA
ATOM     13  H1  UNL     1       9.607  -5.853   4.810  1.00  0.00     0.247 HD
ENDBRANCH  11  12
BRANCH  11  14
HETATM   14  N4  UNL     1      10.412  -3.426   4.605  1.00  0.00    -0.221 N
ATOM     15  H4  UNL     1       9.763  -3.010   5.273  1.00  0.00     0.210 HD
BRANCH  14  16
HETATM   16  N5  UNL     1      10.622  -2.786   3.393  1.00  0.00    -0.329 N
ATOM     17  H52 UNL     1       9.802  -2.497   2.860  1.00  0.00     0.178 HD
ATOM     18  H51 UNL     1      11.556  -2.602   3.027  1.00  0.00     0.178 HD
ENDBRANCH  14  16
ENDBRANCH  11  14
ENDBRANCH   4  11
BRANCH   1  19
HETATM   19  N1  UNL     1      15.171  -4.036   2.668  1.00  0.00    -0.233 N
ATOM     20  H12 UNL     1      15.420  -3.051   2.581  1.00  0.00     0.174 HD
ATOM     21  H11 UNL     1      15.433  -4.708   1.947  1.00  0.00     0.174 HD
ENDBRANCH   1  19
TORSDOF 5
ENDMDL