MODEL 1
REMARK VINA RESULT: -5.042892679      0.000      0.000
REMARK  1 active torsions:
REMARK  status: ('A' for Active; 'I' for Inactive)
REMARK    1  A    between atoms: C1_2  and  C2_4
REMARK       I    between atoms: N4_11  and  C5_13
REMARK       I    between atoms: C5_13  and  N5_14
REMARK       I    between atoms: C5_13  and  N6_18
ROOT
HETATM    1  C2  UNL     1      12.335  -3.673   4.235  1.00  0.00     0.187 A
HETATM    2  N2  UNL     1      12.239  -4.445   5.332  1.00  0.00    -0.333 N
ATOM      3  H2  UNL     1      11.326  -4.561   5.772  1.00  0.00     0.168 HD
HETATM    4  C3  UNL     1      13.308  -5.072   5.873  1.00  0.00     0.199 A
HETATM    5  N3  UNL     1      14.512  -4.916   5.287  1.00  0.00    -0.188 N
ATOM      6  H3  UNL     1      15.329  -5.382   5.681  1.00  0.00     0.185 HD
HETATM    7  C4  UNL     1      14.647  -4.154   4.190  1.00  0.00     0.683 A
HETATM    8  N4  UNL     1      15.824  -4.049   3.684  1.00  0.00    -0.173 N
ATOM      9  H4  UNL     1      16.583  -4.549   4.147  1.00  0.00     0.181 HD
HETATM   10  C5  UNL     1      16.150  -3.283   2.523  1.00  0.00     0.494 C
HETATM   11  N5  UNL     1      15.509  -3.673   1.326  1.00  0.00    -0.032 N
ATOM     12  H51 UNL     1      15.742  -3.126   0.497  1.00  0.00     0.278 HD
ATOM     13  H52 UNL     1      14.499  -3.683   1.462  1.00  0.00     0.278 HD
ATOM     14  H53 UNL     1      15.680  -4.662   1.148  1.00  0.00     0.278 HD
HETATM   15  N6  UNL     1      15.910  -1.868   2.748  1.00  0.00    -0.032 N
ATOM     16  H61 UNL     1      16.143  -1.321   1.919  1.00  0.00     0.278 HD
ATOM     17  H62 UNL     1      16.404  -1.529   3.574  1.00  0.00     0.278 HD
ATOM     18  H63 UNL     1      14.954  -1.694   3.058  1.00  0.00     0.278 HD
HETATM   19  N7  UNL     1      13.558  -3.551   3.690  1.00  0.00    -0.171 N
ATOM     20  H7  UNL     1      13.662  -2.971   2.857  1.00  0.00     0.186 HD
ENDROOT
BRANCH   1  21
HETATM   21  C1  UNL     1      11.158  -3.006   3.674  1.00  0.00     0.299 C
HETATM   22  N1  UNL     1      11.228  -1.974   2.734  1.00  0.00    -0.054 NA
HETATM   23  O1  UNL     1      10.021  -3.383   4.058  1.00  0.00    -0.268 OA
ENDBRANCH   1  21
TORSDOF 1
ENDMDL