MODEL 5
REMARK VINA RESULT: -4.095082674      1.986      4.941
REMARK  4 active torsions:
REMARK  status: ('A' for Active; 'I' for Inactive)
REMARK    1  A    between atoms: C4_7  and  N3_8
REMARK    2  A    between atoms: N3_8  and  N4_10
REMARK    3  A    between atoms: N4_10  and  N5_11
REMARK    4  A    between atoms: N4_10  and  N6_14
REMARK       I    between atoms: N6_14  and  C5_16
ROOT
HETATM    1  N4  UNL     1      15.873  -3.432   3.077  1.00  0.00    -0.030 NA
ENDROOT
BRANCH   1   2
HETATM    2  N3  UNL     1      15.724  -4.555   3.902  1.00  0.00    -0.115 N
ATOM      3  H3  UNL     1      16.535  -5.120   4.152  1.00  0.00     0.203 HD
BRANCH   2   4
HETATM    4  C4  UNL     1      14.418  -4.904   4.391  1.00  0.00     0.689 C
HETATM    5  N1  UNL     1      13.533  -5.795   3.727  1.00  0.00    -0.220 N
HETATM    6  C1  UNL     1      13.565  -6.141   2.338  1.00  0.00     0.168 C
HETATM    7  C2  UNL     1      12.621  -6.256   4.749  1.00  0.00     0.161 C
HETATM    8  C3  UNL     1      12.553  -5.038   5.644  1.00  0.00     0.158 C
HETATM    9  N2  UNL     1      13.874  -4.467   5.481  1.00  0.00    -0.224 N
ATOM     10  H2  UNL     1      14.312  -3.814   6.130  1.00  0.00     0.177 HD
ENDBRANCH   2   4
ENDBRANCH   1   2
BRANCH   1  11
HETATM   11  N5  UNL     1      15.416  -2.268   3.728  1.00  0.00    -0.327 NA
ATOM     12  H52 UNL     1      14.592  -2.544   4.262  1.00  0.00     0.174 HD
ATOM     13  H51 UNL     1      15.124  -1.563   3.050  1.00  0.00     0.174 HD
ENDBRANCH   1  11
BRANCH   1  14
HETATM   14  N6  UNL     1      17.244  -3.244   2.855  1.00  0.00    -0.256 N
HETATM   15  C5  UNL     1      17.784  -1.956   2.813  1.00  0.00     0.199 C
HETATM   16  N7  UNL     1      18.338  -1.455   3.870  1.00  0.00    -0.373 N
HETATM   17  N8  UNL     1      17.754  -1.153   1.646  1.00  0.00    -0.063 NA
ATOM     18  H72 UNL     1      18.360  -2.033   4.710  1.00  0.00     0.158 HD
ATOM     19  H71 UNL     1      18.733  -0.515   3.839  1.00  0.00     0.158 HD
ATOM     20  H6  UNL     1      17.851  -4.054   2.725  1.00  0.00     0.187 HD
ENDBRANCH   1  14
TORSDOF 4
ENDMDL