MODEL 3
REMARK VINA RESULT: -5.740765629      2.730      7.887
REMARK  8 active torsions:
REMARK  status: ('A' for Active; 'I' for Inactive)
REMARK    1  A    between atoms: C2_2  and  C3_4
REMARK    2  A    between atoms: C3_4  and  N1_5
REMARK    3  A    between atoms: C3_4  and  C4_9
REMARK    4  A    between atoms: C4_9  and  S1_10
REMARK    5  A    between atoms: S1_10  and  C5_11
REMARK    6  A    between atoms: C6_14  and  C7_15
REMARK    7  A    between atoms: C8_18  and  C9_19
REMARK       I    between atoms: C9_19  and  N4_21
REMARK       I    between atoms: N4_21  and  C10_23
REMARK    8  A    between atoms: C11_28  and  N7_29
ROOT
HETATM    1  C5  UNL     1     -20.012 -15.627  14.023  1.00  0.00     0.146 A
HETATM    2  N2  UNL     1     -19.899 -14.306  13.955  1.00  0.00    -0.332 N
ATOM      3  H2  UNL     1     -20.219 -13.837  13.107  1.00  0.00     0.168 HD
HETATM    4  C6  UNL     1     -19.373 -13.535  14.967  1.00  0.00     0.119 A
HETATM    5  C8  UNL     1     -18.947 -14.139  16.077  1.00  0.00     0.107 A
HETATM    6  C11 UNL     1     -19.063 -15.531  16.160  1.00  0.00     0.119 A
HETATM    7  N8  UNL     1     -19.585 -16.217  15.144  1.00  0.00    -0.322 N
ATOM      8  H8  UNL     1     -19.661 -17.230  15.224  1.00  0.00     0.169 HD
ENDROOT
BRANCH   1   9
HETATM    9  S1  UNL     1     -20.692 -16.573  12.711  1.00  0.00    -0.091 SA
BRANCH   9  10
HETATM   10  C4  UNL     1     -22.085 -17.587  13.180  1.00  0.00     0.123 C
BRANCH  10  11
HETATM   11  C3  UNL     1     -21.698 -18.928  13.759  1.00  0.00     0.261 C
BRANCH  11  12
HETATM   12  C2  UNL     1     -20.624 -19.540  12.934  1.00  0.00     0.154 C
HETATM   13  C1  UNL     1     -19.245 -19.716  13.442  1.00  0.00     0.093 C
HETATM   14  O1  UNL     1     -20.870 -19.914  11.804  1.00  0.00    -0.296 OA
ENDBRANCH  11  12
BRANCH  11  15
HETATM   15  N1  UNL     1     -21.187 -18.800  15.108  1.00  0.00    -0.068 N
ATOM     16  H13 UNL     1     -20.177 -18.661  15.140  1.00  0.00     0.275 HD
ATOM     17  H12 UNL     1     -21.455 -17.922  15.554  1.00  0.00     0.275 HD
ATOM     18  H11 UNL     1     -21.493 -19.622  15.628  1.00  0.00     0.275 HD
ENDBRANCH  11  15
ENDBRANCH  10  11
ENDBRANCH   9  10
ENDBRANCH   1   9
BRANCH   4  19
HETATM   19  C7  UNL     1     -19.363 -12.089  14.789  1.00  0.00     0.282 C
HETATM   20  N3  UNL     1     -18.099 -11.392  14.707  1.00  0.00    -0.056 NA
HETATM   21  O2  UNL     1     -20.433 -11.457  14.708  1.00  0.00    -0.269 OA
ENDBRANCH   4  19
BRANCH   6  22
HETATM   22  N7  UNL     1     -18.665 -16.110  17.217  1.00  0.00    -0.385 N
ATOM     23  H72 UNL     1     -17.677 -16.309  17.376  1.00  0.00     0.157 HD
ATOM     24  H71 UNL     1     -19.358 -16.379  17.916  1.00  0.00     0.157 HD
ENDBRANCH   6  22
BRANCH   5  25
HETATM   25  C9  UNL     1     -18.228 -13.505  17.168  1.00  0.00     0.264 C
HETATM   26  O3  UNL     1     -17.495 -14.267  17.917  1.00  0.00    -0.267 OA
HETATM   27  N4  UNL     1     -18.221 -12.142  17.509  1.00  0.00    -0.297 N
HETATM   28  C10 UNL     1     -17.473 -11.654  18.608  1.00  0.00     0.188 C
ATOM     29  H4  UNL     1     -18.769 -11.488  16.951  1.00  0.00     0.171 HD
HETATM   30  N5  UNL     1     -17.469 -10.395  18.922  1.00  0.00    -0.373 N
HETATM   31  N6  UNL     1     -16.676 -12.494  19.447  1.00  0.00    -0.064 NA
ATOM     32  H52 UNL     1     -18.038  -9.796  18.323  1.00  0.00     0.158 HD
ATOM     33  H51 UNL     1     -16.930 -10.043  19.714  1.00  0.00     0.158 HD
ENDBRANCH   5  25
TORSDOF 8
ENDMDL