MODEL 3
REMARK VINA RESULT: -6.824883215      1.580      4.138
REMARK  11 active torsions:
REMARK  status: ('A' for Active; 'I' for Inactive)
REMARK    1  A    between atoms: O1_2  and  N1_3
REMARK    2  A    between atoms: N1_3  and  C2_5
REMARK    3  A    between atoms: C3_8  and  N3_9
REMARK    4  A    between atoms: N5_15  and  C5_17
REMARK    5  A    between atoms: C5_17  and  C6_18
REMARK    6  A    between atoms: N6_20  and  C8_21
REMARK    7  A    between atoms: C8_21  and  C9_22
REMARK    8  A    between atoms: C9_22  and  C10_23
REMARK    9  A    between atoms: C13_26  and  C14_27
REMARK   10  A    between atoms: C14_27  and  N8_31
REMARK   11  A    between atoms: N8_31  and  N9_33
ROOT
HETATM    1  C6  UNL     1     -23.766 -18.328  12.015  1.00  0.00     0.045 A
HETATM    2  C7  UNL     1     -23.869 -17.491  10.958  1.00  0.00     0.119 A
HETATM    3  N6  UNL     1     -24.960 -17.912  10.228  1.00  0.00    -0.338 N
HETATM    4  C13 UNL     1     -25.530 -18.971  10.794  1.00  0.00     0.153 A
HETATM    5  N10 UNL     1     -24.747 -19.196  11.915  1.00  0.00    -0.340 N
ATOM      6  H10 UNL     1     -24.913 -19.948  12.584  1.00  0.00     0.167 HD
ENDROOT
BRANCH   1   7
HETATM    7  C5  UNL     1     -22.771 -18.343  13.132  1.00  0.00     0.196 C
BRANCH   7   8
HETATM    8  N5  UNL     1     -21.830 -17.290  13.042  1.00  0.00    -0.219 N
HETATM    9  C4  UNL     1     -20.902 -17.071  13.893  1.00  0.00     0.707 A
HETATM   10  N4  UNL     1     -20.752 -17.855  14.972  1.00  0.00    -0.022 N
HETATM   11  N11 UNL     1     -20.047 -16.024  13.705  1.00  0.00    -0.020 N
HETATM   12  C3  UNL     1     -19.759 -17.573  15.830  1.00  0.00     0.705 A
ATOM     13  H4  UNL     1     -21.377 -18.644  15.135  1.00  0.00     0.203 HD
HETATM   14  N2  UNL     1     -18.919 -16.540  15.643  1.00  0.00    -0.020 N
HETATM   15  C2  UNL     1     -19.053 -15.744  14.567  1.00  0.00     0.731 A
ATOM     16  H2  UNL     1     -18.177 -16.360  16.320  1.00  0.00     0.203 HD
ATOM     17  H11 UNL     1     -20.166 -15.432  12.883  1.00  0.00     0.203 HD
ATOM     18  H5  UNL     1     -21.897 -16.662  12.242  1.00  0.00     0.178 HD
BRANCH  12  19
HETATM   19  N3  UNL     1     -19.640 -18.357  16.874  1.00  0.00    -0.234 N
ATOM     20  H32 UNL     1     -19.989 -17.996  17.762  1.00  0.00     0.174 HD
ATOM     21  H31 UNL     1     -19.218 -19.282  16.789  1.00  0.00     0.174 HD
ENDBRANCH  12  19
BRANCH  15  22
HETATM   22  N1  UNL     1     -18.229 -14.770  14.427  1.00  0.00    -0.096 N
ATOM     23  H1  UNL     1     -17.234 -14.987  14.364  1.00  0.00     0.213 HD
BRANCH  22  24
HETATM   24  O1  UNL     1     -18.609 -13.458  14.358  1.00  0.00    -0.271 OA
HETATM   25  C1  UNL     1     -19.350 -12.852  15.414  1.00  0.00     0.238 C
ENDBRANCH  22  24
ENDBRANCH  15  22
ENDBRANCH   7   8
ENDBRANCH   1   7
BRANCH   3  26
HETATM   26  C8  UNL     1     -25.369 -17.189   9.065  1.00  0.00     0.130 C
BRANCH  26  27
HETATM   27  C9  UNL     1     -24.506 -16.006   8.734  1.00  0.00     0.025 C
BRANCH  27  28
HETATM   28  C10 UNL     1     -24.906 -14.765   9.458  1.00  0.00    -0.013 A
HETATM   29  C11 UNL     1     -24.145 -13.497   9.073  1.00  0.00     0.005 A
HETATM   30  C12 UNL     1     -25.585 -13.648   8.709  1.00  0.00     0.005 A
ENDBRANCH  27  28
ENDBRANCH  26  27
ENDBRANCH   3  26
BRANCH   4  31
HETATM   31  C14 UNL     1     -26.638 -19.827  10.459  1.00  0.00     0.158 C
HETATM   32  N7  UNL     1     -27.818 -19.514  10.337  1.00  0.00    -0.381 N
ATOM     33  H72 UNL     1     -28.026 -18.529  10.494  1.00  0.00     0.157 HD
ATOM     34  H71 UNL     1     -28.604 -20.120  10.100  1.00  0.00     0.157 HD
BRANCH  31  35
HETATM   35  N8  UNL     1     -26.341 -21.235  10.236  1.00  0.00    -0.289 N
ATOM     36  H8  UNL     1     -25.562 -21.484   9.626  1.00  0.00     0.188 HD
BRANCH  35  37
HETATM   37  N9  UNL     1     -27.083 -22.251  10.825  1.00  0.00    -0.344 N
ATOM     38  H92 UNL     1     -27.357 -22.138  11.802  1.00  0.00     0.176 HD
ATOM     39  H91 UNL     1     -27.356 -23.091  10.316  1.00  0.00     0.176 HD
ENDBRANCH  35  37
ENDBRANCH  31  35
ENDBRANCH   4  31
TORSDOF 11
ENDMDL