MODEL 3
REMARK VINA RESULT: -7.394336750      4.829     10.082
REMARK  9 active torsions:
REMARK  status: ('A' for Active; 'I' for Inactive)
REMARK    1  A    between atoms: C3_3  and  C4_4
REMARK       I    between atoms: C4_4  and  N1_6
REMARK    2  A    between atoms: N1_6  and  N2_8
REMARK    3  A    between atoms: N3_12  and  O2_13
REMARK    4  A    between atoms: N4_15  and  C6_16
REMARK    5  A    between atoms: C6_16  and  C7_17
REMARK    6  A    between atoms: C7_17  and  C8_18
REMARK    7  A    between atoms: C8_18  and  N5_19
REMARK    8  A    between atoms: N5_19  and  C9_21
REMARK    9  A    between atoms: C11_23  and  C12_24
ROOT
HETATM    1  C8  UNL     1     -22.607 -18.297  13.322  1.00  0.00     0.064 C
ENDROOT
BRANCH   1   2
HETATM    2  C7  UNL     1     -21.545 -19.236  13.846  1.00  0.00     0.066 C
BRANCH   2   3
HETATM    3  C6  UNL     1     -20.161 -18.869  13.380  1.00  0.00     0.156 C
BRANCH   3   4
HETATM    4  N4  UNL     1     -19.881 -17.502  13.786  1.00  0.00    -0.270 N
HETATM    5  C2  UNL     1     -19.495 -17.032  14.995  1.00  0.00     0.044 A
HETATM    6  C1  UNL     1     -19.281 -17.912  16.159  1.00  0.00     0.071 C
HETATM    7  C3  UNL     1     -19.332 -15.676  14.973  1.00  0.00     0.077 A
HETATM    8  C5  UNL     1     -19.648 -15.324  13.649  1.00  0.00     0.162 A
HETATM    9  N3  UNL     1     -19.962 -16.450  13.008  1.00  0.00    -0.172 N
BRANCH   7  10
HETATM   10  C4  UNL     1     -18.956 -14.707  15.967  1.00  0.00     0.273 C
HETATM   11  O1  UNL     1     -18.650 -15.128  17.139  1.00  0.00    -0.266 OA
HETATM   12  N1  UNL     1     -18.883 -13.310  15.788  1.00  0.00    -0.272 N
ATOM     13  H1  UNL     1     -19.107 -12.897  14.883  1.00  0.00     0.189 HD
BRANCH  12  14
HETATM   14  N2  UNL     1     -18.497 -12.486  16.870  1.00  0.00    -0.342 N
ATOM     15  H22 UNL     1     -18.366 -12.903  17.792  1.00  0.00     0.176 HD
ATOM     16  H21 UNL     1     -18.355 -11.487  16.718  1.00  0.00     0.176 HD
ENDBRANCH  12  14
ENDBRANCH   7  10
BRANCH   9  17
HETATM   17  O2  UNL     1     -20.329 -16.490  11.668  1.00  0.00    -0.268 OA
ATOM     18  H2  UNL     1     -21.110 -16.069  11.327  1.00  0.00     0.247 HD
ENDBRANCH   9  17
ENDBRANCH   3   4
ENDBRANCH   2   3
ENDBRANCH   1   2
BRANCH   1  19
HETATM   19  N5  UNL     1     -23.855 -18.899  13.070  1.00  0.00    -0.355 N
ATOM     20  H5  UNL     1     -24.291 -19.306  13.898  1.00  0.00     0.166 HD
BRANCH  19  21
HETATM   21  C9  UNL     1     -24.535 -19.032  12.022  1.00  0.00     0.122 A
HETATM   22  C10 UNL     1     -24.590 -18.039  11.065  1.00  0.00     0.082 A
HETATM   23  C11 UNL     1     -25.335 -18.174   9.909  1.00  0.00     0.093 A
HETATM   24  N8  UNL     1     -26.026 -19.295   9.703  1.00  0.00    -0.189 N
HETATM   25  C13 UNL     1     -25.980 -20.269  10.627  1.00  0.00     0.678 A
ATOM     26  H8  UNL     1     -26.581 -19.412   8.856  1.00  0.00     0.184 HD
HETATM   27  N9  UNL     1     -26.660 -21.352  10.410  1.00  0.00    -0.234 N
HETATM   28  N10 UNL     1     -25.245 -20.143  11.776  1.00  0.00    -0.177 N
ATOM     29  H92 UNL     1     -27.208 -21.446   9.554  1.00  0.00     0.174 HD
ATOM     30  H91 UNL     1     -26.626 -22.091  11.111  1.00  0.00     0.174 HD
ATOM     31  H10 UNL     1     -25.238 -20.905  12.454  1.00  0.00     0.185 HD
BRANCH  23  32
HETATM   32  C12 UNL     1     -25.391 -17.124   8.898  1.00  0.00     0.137 C
HETATM   33  N6  UNL     1     -26.477 -16.517   8.564  1.00  0.00    -0.386 N
ATOM     34  H62 UNL     1     -27.325 -16.810   9.050  1.00  0.00     0.157 HD
ATOM     35  H61 UNL     1     -26.517 -15.783   7.857  1.00  0.00     0.157 HD
HETATM   36  N7  UNL     1     -24.211 -16.716   8.221  1.00  0.00    -0.081 NA
ENDBRANCH  23  32
ENDBRANCH  19  21
ENDBRANCH   1  19
TORSDOF 9
ENDMDL