MODEL 1
REMARK VINA RESULT: -6.323928481      0.000      0.000
REMARK  9 active torsions:
REMARK  status: ('A' for Active; 'I' for Inactive)
REMARK    1  A    between atoms: N1_2  and  C2_3
REMARK    2  A    between atoms: N1_2  and  C4_7
REMARK    3  A    between atoms: C2_3  and  C3_4
REMARK    4  A    between atoms: C3_4  and  O1_5
REMARK    5  A    between atoms: N3_11  and  C6_13
REMARK    6  A    between atoms: C6_13  and  C7_14
REMARK    7  A    between atoms: C7_14  and  N4_15
REMARK    8  A    between atoms: C10_23  and  C11_24
REMARK    9  A    between atoms: C12_25  and  N8_26
ROOT
HETATM    1  C4  UNL     1     -24.439 -16.977   9.958  1.00  0.00     0.686 A
HETATM    2  N2  UNL     1     -23.843 -17.378  11.140  1.00  0.00    -0.174 N
ATOM      3  H2  UNL     1     -23.141 -16.760  11.546  1.00  0.00     0.186 HD
HETATM    4  C5  UNL     1     -24.112 -18.501  11.784  1.00  0.00     0.147 A
HETATM    5  N3  UNL     1     -23.548 -18.860  12.883  1.00  0.00    -0.372 N
ATOM      6  H3  UNL     1     -23.808 -19.742  13.324  1.00  0.00     0.161 HD
HETATM    7  C9  UNL     1     -25.064 -19.328  11.224  1.00  0.00     0.124 A
HETATM    8  N7  UNL     1     -25.568 -20.529  11.617  1.00  0.00    -0.329 N
ATOM      9  H7  UNL     1     -25.294 -21.041  12.455  1.00  0.00     0.168 HD
HETATM   10  C10 UNL     1     -26.493 -20.935  10.712  1.00  0.00     0.165 A
HETATM   11  N9  UNL     1     -26.553 -19.977   9.766  1.00  0.00    -0.319 N
ATOM     12  H9  UNL     1     -27.163 -20.000   8.950  1.00  0.00     0.169 HD
HETATM   13  C13 UNL     1     -25.696 -18.993  10.053  1.00  0.00     0.153 A
HETATM   14  N10 UNL     1     -25.353 -17.803   9.451  1.00  0.00    -0.174 N
ATOM     15  H10 UNL     1     -25.817 -17.544   8.580  1.00  0.00     0.186 HD
ENDROOT
BRANCH   5  16
HETATM   16  C6  UNL     1     -22.547 -18.016  13.497  1.00  0.00     0.141 C
BRANCH  16  17
HETATM   17  C7  UNL     1     -21.444 -18.843  14.087  1.00  0.00     0.141 C
BRANCH  17  18
HETATM   18  N4  UNL     1     -20.830 -18.122  15.185  1.00  0.00    -0.365 N
HETATM   19  C8  UNL     1     -19.555 -18.016  15.283  1.00  0.00     0.197 C
HETATM   20  N5  UNL     1     -18.958 -17.311  16.356  1.00  0.00    -0.067 NA
HETATM   21  N6  UNL     1     -18.738 -18.619  14.295  1.00  0.00    -0.067 NA
ATOM     22  H4  UNL     1     -21.424 -17.689  15.894  1.00  0.00     0.161 HD
ENDBRANCH  17  18
ENDBRANCH  16  17
ENDBRANCH   5  16
BRANCH   1  23
HETATM   23  N1  UNL     1     -24.044 -15.768   9.394  1.00  0.00    -0.199 N
HETATM   24  C1  UNL     1     -22.547 -15.536   9.415  1.00  0.00     0.174 C
BRANCH  23  25
HETATM   25  C2  UNL     1     -24.729 -14.697   8.807  1.00  0.00     0.107 C
BRANCH  25  26
HETATM   26  C3  UNL     1     -24.730 -13.331   9.338  1.00  0.00     0.209 C
BRANCH  26  27
HETATM   27  O1  UNL     1     -23.699 -12.623   8.644  1.00  0.00    -0.396 OA
ATOM     28  H1  UNL     1     -23.153 -12.219   9.309  1.00  0.00     0.209 HD
ENDBRANCH  26  27
ENDBRANCH  25  26
ENDBRANCH  23  25
ENDBRANCH   1  23
BRANCH  10  29
HETATM   29  C11 UNL     1     -27.226 -22.166  10.816  1.00  0.00    -0.007 C
HETATM   30  C12 UNL     1     -27.845 -23.205  10.886  1.00  0.00     0.012 C
BRANCH  30  31
HETATM   31  N8  UNL     1     -28.544 -24.417  10.948  1.00  0.00    -0.359 N
ATOM     32  H82 UNL     1     -27.941 -23.963  10.263  1.00  0.00     0.166 HD
ATOM     33  H81 UNL     1     -29.060 -25.294  11.012  1.00  0.00     0.166 HD
ENDBRANCH  30  31
ENDBRANCH  10  29
TORSDOF 9
ENDMDL