MODEL 1
REMARK VINA RESULT: -7.430635064      0.000      0.000
REMARK  7 active torsions:
REMARK  status: ('A' for Active; 'I' for Inactive)
REMARK    1  A    between atoms: C1_4  and  N2_5
REMARK    2  A    between atoms: C1_4  and  C3_16
REMARK       I    between atoms: N2_5  and  C2_7
REMARK       I    between atoms: C2_7  and  N3_8
REMARK       I    between atoms: C2_7  and  N4_12
REMARK    3  A    between atoms: C5_20  and  N6_21
REMARK    4  A    between atoms: N6_21  and  C6_23
REMARK    5  A    between atoms: C6_23  and  C7_24
REMARK    6  A    between atoms: C11_32  and  N9_33
REMARK    7  A    between atoms: N9_33  and  C12_35
ROOT
HETATM    1  C3  UNL     1     -20.864 -16.739  11.649  1.00  0.00     0.151 A
HETATM    2  N5  UNL     1     -20.602 -16.009  12.723  1.00  0.00    -0.336 N
ATOM      3  H5  UNL     1     -20.771 -15.004  12.682  1.00  0.00     0.168 HD
HETATM    4  C4  UNL     1     -20.123 -16.533  13.866  1.00  0.00     0.091 A
HETATM    5  C5  UNL     1     -19.855 -15.765  14.975  1.00  0.00     0.059 A
HETATM    6  C8  UNL     1     -19.368 -16.406  16.093  1.00  0.00     0.048 A
HETATM    7  C9  UNL     1     -19.150 -17.768  16.125  1.00  0.00     0.091 A
HETATM    8  N8  UNL     1     -19.417 -18.501  15.036  1.00  0.00    -0.361 N
ATOM      9  H8  UNL     1     -19.259 -19.509  15.046  1.00  0.00     0.165 HD
HETATM   10  C10 UNL     1     -19.892 -17.906  13.932  1.00  0.00     0.106 A
HETATM   11  C11 UNL     1     -20.164 -18.665  12.816  1.00  0.00     0.138 A
HETATM   12  N10 UNL     1     -20.649 -18.057  11.691  1.00  0.00    -0.324 N
ATOM     13  H10 UNL     1     -20.850 -18.622  10.865  1.00  0.00     0.169 HD
ENDROOT
BRANCH   1  14
HETATM   14  C1  UNL     1     -21.384 -16.167  10.406  1.00  0.00     0.142 C
HETATM   15  N1  UNL     1     -20.556 -15.786   9.510  1.00  0.00    -0.383 N
ATOM     16  H12 UNL     1     -20.918 -15.387   8.645  1.00  0.00     0.157 HD
ATOM     17  H11 UNL     1     -19.555 -15.890   9.681  1.00  0.00     0.157 HD
BRANCH  14  18
HETATM   18  N2  UNL     1     -22.773 -16.023  10.169  1.00  0.00    -0.324 N
HETATM   19  C2  UNL     1     -23.265 -15.242   9.058  1.00  0.00     0.481 C
HETATM   20  N3  UNL     1     -24.714 -15.270   9.061  1.00  0.00    -0.033 N
HETATM   21  N4  UNL     1     -22.762 -13.893   9.044  1.00  0.00    -0.033 N
ATOM     22  H33 UNL     1     -25.083 -16.220   9.061  1.00  0.00     0.278 HD
ATOM     23  H32 UNL     1     -25.106 -14.965   9.952  1.00  0.00     0.278 HD
ATOM     24  H31 UNL     1     -25.061 -14.719   8.277  1.00  0.00     0.278 HD
ATOM     25  H43 UNL     1     -22.955 -13.425   9.929  1.00  0.00     0.278 HD
ATOM     26  H42 UNL     1     -21.743 -13.886   9.068  1.00  0.00     0.278 HD
ATOM     27  H41 UNL     1     -23.109 -13.342   8.259  1.00  0.00     0.278 HD
ATOM     28  H2  UNL     1     -23.437 -16.478  10.794  1.00  0.00     0.165 HD
ENDBRANCH  14  18
ENDBRANCH   1  14
BRANCH  11  29
HETATM   29  N9  UNL     1     -19.963 -19.928  12.842  1.00  0.00    -0.318 N
ATOM     30  H9  UNL     1     -20.781 -20.520  12.982  1.00  0.00     0.169 HD
BRANCH  29  31
HETATM   31  C12 UNL     1     -18.740 -20.576  12.698  1.00  0.00     0.354 C
HETATM   32  O2  UNL     1     -18.426 -21.578  13.420  1.00  0.00    -0.283 OA
ENDBRANCH  29  31
ENDBRANCH  11  29
BRANCH   5  33
HETATM   33  N6  UNL     1     -20.081 -14.353  14.945  1.00  0.00    -0.380 N
ATOM     34  H6  UNL     1     -20.999 -13.973  14.717  1.00  0.00     0.160 HD
BRANCH  33  35
HETATM   35  C6  UNL     1     -18.976 -13.491  15.244  1.00  0.00     0.219 C
BRANCH  35  36
HETATM   36  C7  UNL     1     -19.249 -12.072  15.062  1.00  0.00     0.248 C
HETATM   37  N7  UNL     1     -18.235 -11.114  15.273  1.00  0.00    -0.061 NA
HETATM   38  O1  UNL     1     -20.384 -11.689  14.716  1.00  0.00    -0.275 OA
ENDBRANCH  35  36
ENDBRANCH  33  35
ENDBRANCH   5  33
TORSDOF 7
ENDMDL