MODEL 2
REMARK VINA RESULT: -6.758839123      1.647      2.005
REMARK  9 active torsions:
REMARK  status: ('A' for Active; 'I' for Inactive)
REMARK    1  A    between atoms: N1_1  and  N2_4
REMARK       I    between atoms: N2_4  and  C1_6
REMARK    2  A    between atoms: C1_6  and  C2_8
REMARK    3  A    between atoms: C2_8  and  O2_9
REMARK    4  A    between atoms: C2_8  and  C3_11
REMARK    5  A    between atoms: C3_11  and  C4_12
REMARK    6  A    between atoms: C3_11  and  N7_24
REMARK    7  A    between atoms: N3_13  and  N4_15
REMARK    8  A    between atoms: N4_15  and  C5_17
REMARK       I    between atoms: N7_24  and  C8_26
REMARK    9  A    between atoms: C8_26  and  C9_28
ROOT
HETATM    1  C3  UNL     1     -21.863 -18.061  12.614  1.00  0.00     0.163 C
ENDROOT
BRANCH   1   2
HETATM    2  C2  UNL     1     -20.794 -19.111  12.778  1.00  0.00     0.239 C
BRANCH   2   3
HETATM    3  C1  UNL     1     -20.264 -19.203  14.136  1.00  0.00     0.266 C
HETATM    4  N2  UNL     1     -20.841 -18.408  15.161  1.00  0.00    -0.274 N
ATOM      5  H2  UNL     1     -21.615 -17.788  14.923  1.00  0.00     0.189 HD
HETATM    6  O1  UNL     1     -19.307 -19.955  14.473  1.00  0.00    -0.269 OA
BRANCH   4   7
HETATM    7  N1  UNL     1     -20.382 -18.441  16.500  1.00  0.00    -0.343 N
ATOM      8  H12 UNL     1     -20.661 -19.235  17.077  1.00  0.00     0.176 HD
ATOM      9  H11 UNL     1     -19.794 -17.709  16.897  1.00  0.00     0.176 HD
ENDBRANCH   4   7
ENDBRANCH   2   3
BRANCH   2  10
HETATM   10  O2  UNL     1     -21.328 -20.332  12.400  1.00  0.00    -0.384 OA
ATOM     11  H2  UNL     1     -21.676 -20.271  11.519  1.00  0.00     0.210 HD
ENDBRANCH   2  10
ENDBRANCH   1   2
BRANCH   1  12
HETATM   12  C4  UNL     1     -21.455 -16.928  11.781  1.00  0.00     0.108 C
HETATM   13  N3  UNL     1     -20.423 -16.196  12.032  1.00  0.00    -0.311 N
ATOM     14  H3  UNL     1     -20.204 -15.424  11.402  1.00  0.00     0.185 HD
BRANCH  13  15
HETATM   15  N4  UNL     1     -19.595 -16.420  13.131  1.00  0.00    -0.272 N
ATOM     16  H4  UNL     1     -19.134 -17.324  13.244  1.00  0.00     0.190 HD
BRANCH  15  17
HETATM   17  C5  UNL     1     -19.389 -15.394  14.098  1.00  0.00     0.190 C
HETATM   18  N5  UNL     1     -20.274 -14.983  14.944  1.00  0.00    -0.360 N
HETATM   19  C6  UNL     1     -19.750 -13.932  15.784  1.00  0.00     0.142 C
ATOM     20  H5  UNL     1     -21.222 -15.354  15.009  1.00  0.00     0.162 HD
HETATM   21  C7  UNL     1     -18.576 -13.422  14.969  1.00  0.00     0.142 C
HETATM   22  N6  UNL     1     -18.178 -14.661  14.284  1.00  0.00    -0.360 N
ATOM     23  H6  UNL     1     -17.239 -14.938  14.001  1.00  0.00     0.162 HD
ENDBRANCH  15  17
ENDBRANCH  13  15
ENDBRANCH   1  12
BRANCH   1  24
HETATM   24  N7  UNL     1     -23.051 -18.747  12.080  1.00  0.00    -0.345 N
HETATM   25  C8  UNL     1     -24.336 -18.518  12.583  1.00  0.00     0.252 C
HETATM   26  O3  UNL     1     -24.517 -17.698  13.534  1.00  0.00    -0.268 OA
ATOM     27  H7  UNL     1     -22.933 -19.412  11.316  1.00  0.00     0.163 HD
BRANCH  25  28
HETATM   28  C9  UNL     1     -25.511 -19.195  12.058  1.00  0.00     0.032 A
HETATM   29  C10 UNL     1     -26.777 -18.955  12.593  1.00  0.00     0.017 A
HETATM   30  C11 UNL     1     -27.894 -19.585  12.109  1.00  0.00     0.001 A
HETATM   31  C12 UNL     1     -27.816 -20.484  11.069  1.00  0.00     0.000 A
HETATM   32  C13 UNL     1     -26.586 -20.747  10.514  1.00  0.00     0.001 A
HETATM   33  C14 UNL     1     -25.469 -20.101  11.018  1.00  0.00     0.017 A
ENDBRANCH  25  28
ENDBRANCH   1  24
TORSDOF 9
ENDMDL