MODEL 4
REMARK VINA RESULT: -6.569667087      3.318      6.501
REMARK  11 active torsions:
REMARK  status: ('A' for Active; 'I' for Inactive)
REMARK    1  A    between atoms: C3_4  and  C4_5
REMARK    2  A    between atoms: C5_8  and  C6_9
REMARK    3  A    between atoms: C6_9  and  C7_10
REMARK    4  A    between atoms: C7_10  and  C8_11
REMARK    5  A    between atoms: C9_14  and  N4_15
REMARK    6  A    between atoms: N4_15  and  C10_17
REMARK    7  A    between atoms: C10_17  and  C11_18
REMARK    8  A    between atoms: C10_17  and  C12_23
REMARK    9  A    between atoms: C11_18  and  N5_19
REMARK   10  A    between atoms: C12_23  and  N6_24
REMARK   11  A    between atoms: C13_30  and  N8_31
ROOT
HETATM    1  C8  UNL     1     -18.959 -14.499  16.313  1.00  0.00     0.077 A
HETATM    2  N3  UNL     1     -18.133 -14.116  17.299  1.00  0.00    -0.190 N
ATOM      3  H3  UNL     1     -17.794 -14.815  17.960  1.00  0.00     0.184 HD
HETATM    4  C9  UNL     1     -17.737 -12.835  17.441  1.00  0.00     0.680 A
HETATM    5  N7  UNL     1     -18.202 -11.941  16.554  1.00  0.00    -0.175 N
ATOM      6  H7  UNL     1     -17.911 -10.968  16.650  1.00  0.00     0.186 HD
HETATM    7  C13 UNL     1     -19.028 -12.261  15.552  1.00  0.00     0.141 A
HETATM    8  C14 UNL     1     -19.435 -13.549  15.396  1.00  0.00     0.117 A
HETATM    9  N9  UNL     1     -20.308 -13.966  14.358  1.00  0.00    -0.096 NA
ENDROOT
BRANCH   4  10
HETATM   10  N4  UNL     1     -16.932 -12.489  18.409  1.00  0.00    -0.218 N
ATOM     11  H4  UNL     1     -16.198 -13.141  18.685  1.00  0.00     0.178 HD
BRANCH  10  12
HETATM   12  C10 UNL     1     -17.028 -11.247  19.101  1.00  0.00     0.150 C
BRANCH  12  13
HETATM   13  C11 UNL     1     -16.827 -11.546  20.592  1.00  0.00     0.256 C
BRANCH  13  14
HETATM   14  N5  UNL     1     -15.592 -10.971  21.078  1.00  0.00    -0.077 N
ATOM     15  H53 UNL     1     -15.763 -10.261  21.790  1.00  0.00     0.274 HD
ATOM     16  H52 UNL     1     -15.065 -11.636  21.645  1.00  0.00     0.274 HD
ATOM     17  H51 UNL     1     -15.029 -10.605  20.310  1.00  0.00     0.274 HD
ENDBRANCH  13  14
ENDBRANCH  12  13
BRANCH  12  18
HETATM   18  C12 UNL     1     -18.397 -10.607  18.989  1.00  0.00     0.256 C
BRANCH  18  19
HETATM   19  N6  UNL     1     -18.889 -10.199  20.293  1.00  0.00    -0.077 N
ATOM     20  H63 UNL     1     -18.531 -10.799  21.036  1.00  0.00     0.274 HD
ATOM     21  H62 UNL     1     -18.474  -9.317  20.593  1.00  0.00     0.274 HD
ATOM     22  H61 UNL     1     -19.909 -10.157  20.304  1.00  0.00     0.274 HD
ENDBRANCH  18  19
ENDBRANCH  12  18
ENDBRANCH  10  12
ENDBRANCH   4  10
BRANCH   1  23
HETATM   23  C7  UNL     1     -19.393 -15.869  16.145  1.00  0.00     0.034 C
BRANCH  23  24
HETATM   24  C6  UNL     1     -19.044 -16.637  15.130  1.00  0.00     0.034 C
BRANCH  24  25
HETATM   25  C5  UNL     1     -20.047 -17.387  14.356  1.00  0.00     0.065 A
HETATM   26  C3  UNL     1     -19.840 -18.496  13.596  1.00  0.00     0.074 A
HETATM   27  C2  UNL     1     -21.094 -18.834  13.064  1.00  0.00     0.128 A
HETATM   28  N1  UNL     1     -21.990 -17.943  13.508  1.00  0.00    -0.306 N
HETATM   29  C1  UNL     1     -23.425 -17.960  13.168  1.00  0.00     0.177 C
HETATM   30  N10 UNL     1     -21.357 -17.096  14.269  1.00  0.00    -0.298 N
ATOM     31  H10 UNL     1     -21.802 -16.309  14.742  1.00  0.00     0.187 HD
BRANCH  26  32
HETATM   32  C4  UNL     1     -18.632 -19.236  13.333  1.00  0.00     0.268 C
HETATM   33  N2  UNL     1     -18.673 -20.644  13.227  1.00  0.00    -0.057 NA
HETATM   34  O1  UNL     1     -17.547 -18.650  13.198  1.00  0.00    -0.271 OA
ENDBRANCH  26  32
ENDBRANCH  24  25
ENDBRANCH  23  24
ENDBRANCH   1  23
BRANCH   7  35
HETATM   35  N8  UNL     1     -19.463 -11.361  14.705  1.00  0.00    -0.383 N
ATOM     36  H82 UNL     1     -18.858 -11.091  13.929  1.00  0.00     0.157 HD
ATOM     37  H81 UNL     1     -20.383 -10.932  14.805  1.00  0.00     0.157 HD
ENDBRANCH   7  35
TORSDOF 11
ENDMDL