MODEL 5
REMARK VINA RESULT: -7.397203489      3.063      9.890
REMARK  10 active torsions:
REMARK  status: ('A' for Active; 'I' for Inactive)
REMARK    1  A    between atoms: C2_2  and  C4_10
REMARK    2  A    between atoms: N1_3  and  N2_5
REMARK    3  A    between atoms: C5_12  and  N5_13
REMARK    4  A    between atoms: N5_13  and  C6_15
REMARK    5  A    between atoms: C6_15  and  C7_16
REMARK    6  A    between atoms: C7_16  and  N6_17
REMARK       I    between atoms: N6_17  and  C8_19
REMARK    7  A    between atoms: C8_19  and  C9_21
REMARK    8  A    between atoms: C9_21  and  N7_22
REMARK    9  A    between atoms: C9_21  and  C10_26
REMARK   10  A    between atoms: C10_26  and  N8_27
ROOT
HETATM    1  N5  UNL     1     -20.596 -18.571  12.598  1.00  0.00    -0.369 N
ATOM      2  H5  UNL     1     -20.073 -18.794  11.752  1.00  0.00     0.161 HD
ENDROOT
BRANCH   1   3
HETATM    3  C5  UNL     1     -20.204 -17.648  13.452  1.00  0.00     0.146 A
HETATM    4  S1  UNL     1     -20.134 -15.952  13.264  1.00  0.00    -0.049 SA
HETATM    5  C4  UNL     1     -19.528 -15.551  14.812  1.00  0.00     0.073 A
HETATM    6  C11 UNL     1     -19.413 -16.784  15.396  1.00  0.00     0.137 A
HETATM    7  N9  UNL     1     -19.758 -17.825  14.697  1.00  0.00    -0.324 N
HETATM    8  N10 UNL     1     -18.915 -16.879  16.762  1.00  0.00    -0.081 NA
ATOM      9  H9  UNL     1     -19.688 -18.762  15.094  1.00  0.00     0.169 HD
BRANCH   5  10
HETATM   10  C2  UNL     1     -19.224 -14.230  15.339  1.00  0.00     0.042 C
HETATM   11  C1  UNL     1     -19.774 -13.011  14.729  1.00  0.00     0.071 C
HETATM   12  N1  UNL     1     -18.455 -14.141  16.357  1.00  0.00    -0.302 N
ATOM     13  H1  UNL     1     -18.093 -15.010  16.749  1.00  0.00     0.186 HD
BRANCH  12  14
HETATM   14  N2  UNL     1     -18.077 -12.968  16.966  1.00  0.00    -0.276 N
HETATM   15  C3  UNL     1     -17.301 -12.873  17.982  1.00  0.00     0.215 C
HETATM   16  N3  UNL     1     -16.723 -14.009  18.618  1.00  0.00    -0.065 NA
HETATM   17  N4  UNL     1     -16.991 -11.599  18.514  1.00  0.00    -0.065 NA
ATOM     18  H2  UNL     1     -18.445 -12.100  16.577  1.00  0.00     0.189 HD
ENDBRANCH  12  14
ENDBRANCH   5  10
ENDBRANCH   1   3
BRANCH   1  19
HETATM   19  C6  UNL     1     -21.847 -19.253  12.962  1.00  0.00     0.141 C
BRANCH  19  20
HETATM   20  C7  UNL     1     -22.972 -18.311  12.596  1.00  0.00     0.142 C
BRANCH  20  21
HETATM   21  N6  UNL     1     -24.192 -19.097  12.537  1.00  0.00    -0.358 N
HETATM   22  C8  UNL     1     -24.995 -18.934  11.368  1.00  0.00     0.250 C
HETATM   23  O1  UNL     1     -24.685 -18.159  10.430  1.00  0.00    -0.271 OA
ATOM     24  H6  UNL     1     -24.461 -19.730  13.291  1.00  0.00     0.162 HD
BRANCH  22  25
HETATM   25  C9  UNL     1     -26.249 -19.730  11.287  1.00  0.00     0.299 C
BRANCH  25  26
HETATM   26  N7  UNL     1     -26.173 -20.710  10.224  1.00  0.00    -0.065 N
ATOM     27  H73 UNL     1     -25.221 -21.055  10.099  1.00  0.00     0.275 HD
ATOM     28  H72 UNL     1     -26.622 -21.588  10.488  1.00  0.00     0.275 HD
ATOM     29  H71 UNL     1     -26.556 -20.338   9.355  1.00  0.00     0.275 HD
ENDBRANCH  25  26
BRANCH  25  30
HETATM   30  C10 UNL     1     -27.401 -18.771  11.071  1.00  0.00     0.272 C
BRANCH  30  31
HETATM   31  N8  UNL     1     -27.572 -18.448   9.679  1.00  0.00    -0.077 N
ATOM     32  H83 UNL     1     -28.559 -18.376   9.433  1.00  0.00     0.274 HD
ATOM     33  H82 UNL     1     -27.289 -17.488   9.483  1.00  0.00     0.274 HD
ATOM     34  H81 UNL     1     -27.085 -19.110   9.074  1.00  0.00     0.274 HD
ENDBRANCH  30  31
ENDBRANCH  25  30
ENDBRANCH  22  25
ENDBRANCH  20  21
ENDBRANCH  19  20
ENDBRANCH   1  19
TORSDOF 10
ENDMDL