MODEL 5
REMARK VINA RESULT: -7.229830366      5.915     10.127
REMARK  8 active torsions:
REMARK  status: ('A' for Active; 'I' for Inactive)
REMARK    1  A    between atoms: C2_2  and  N1_3
REMARK    2  A    between atoms: C2_2  and  C8_18
REMARK       I    between atoms: N1_3  and  C3_5
REMARK    3  A    between atoms: C3_5  and  C4_7
REMARK       I    between atoms: C8_18  and  N5_20
REMARK    4  A    between atoms: N5_20  and  C9_22
REMARK    5  A    between atoms: C9_22  and  C10_23
REMARK    6  A    between atoms: C9_22  and  C11_25
REMARK    7  A    between atoms: C11_25  and  N6_26
REMARK    8  A    between atoms: C11_25  and  O5_30
ROOT
HETATM    1  C1  UNL     1     -20.337 -14.008  14.695  1.00  0.00     0.042 C
HETATM    2  C2  UNL     1     -19.038 -14.566  15.128  1.00  0.00     0.172 C
ENDROOT
BRANCH   2   3
HETATM    3  N1  UNL     1     -18.693 -14.047  16.459  1.00  0.00    -0.344 N
HETATM    4  C3  UNL     1     -18.281 -12.722  16.655  1.00  0.00     0.261 C
HETATM    5  O1  UNL     1     -18.238 -12.018  15.568  1.00  0.00    -0.267 OA
ATOM      6  H1  UNL     1     -18.756 -14.671  17.264  1.00  0.00     0.163 HD
BRANCH   4   7
HETATM    7  C4  UNL     1     -17.909 -12.069  17.888  1.00  0.00     0.141 A
HETATM    8  C5  UNL     1     -18.541 -10.849  18.181  1.00  0.00     0.139 A
HETATM    9  N2  UNL     1     -19.486 -10.254  17.287  1.00  0.00    -0.081 NA
HETATM   10  N3  UNL     1     -18.212 -10.244  19.326  1.00  0.00    -0.320 N
HETATM   11  C6  UNL     1     -17.321 -10.717  20.219  1.00  0.00     0.179 A
ATOM     12  H3  UNL     1     -18.670  -9.358  19.541  1.00  0.00     0.169 HD
HETATM   13  S1  UNL     1     -16.998  -9.883  21.578  1.00  0.00    -0.040 SA
HETATM   14  N4  UNL     1     -16.725 -11.896  19.914  1.00  0.00    -0.299 N
HETATM   15  C7  UNL     1     -17.004 -12.555  18.789  1.00  0.00     0.266 A
ATOM     16  H4  UNL     1     -16.045 -12.290  20.564  1.00  0.00     0.171 HD
HETATM   17  O2  UNL     1     -16.400 -13.675  18.558  1.00  0.00    -0.267 OA
ENDBRANCH   4   7
ENDBRANCH   2   3
BRANCH   2  18
HETATM   18  C8  UNL     1     -19.053 -16.045  15.157  1.00  0.00     0.240 C
HETATM   19  O3  UNL     1     -18.882 -16.595  16.297  1.00  0.00    -0.271 OA
HETATM   20  N5  UNL     1     -19.239 -16.873  14.036  1.00  0.00    -0.344 N
ATOM     21  H5  UNL     1     -19.395 -16.462  13.115  1.00  0.00     0.163 HD
BRANCH  20  22
HETATM   22  C9  UNL     1     -19.206 -18.333  14.198  1.00  0.00     0.201 C
BRANCH  22  23
HETATM   23  C10 UNL     1     -18.412 -18.963  13.134  1.00  0.00     0.260 C
HETATM   24  O4  UNL     1     -18.480 -20.178  12.919  1.00  0.00    -0.304 OA
ENDBRANCH  22  23
BRANCH  22  25
HETATM   25  C11 UNL     1     -20.600 -18.923  14.270  1.00  0.00     0.346 C
BRANCH  25  26
HETATM   26  N6  UNL     1     -21.246 -18.765  12.985  1.00  0.00    -0.051 N
ATOM     27  H63 UNL     1     -20.722 -18.154  12.359  1.00  0.00     0.277 HD
ATOM     28  H62 UNL     1     -21.205 -19.615  12.423  1.00  0.00     0.277 HD
ATOM     29  H61 UNL     1     -22.203 -18.443  13.131  1.00  0.00     0.277 HD
ENDBRANCH  25  26
BRANCH  25  30
HETATM   30  O5  UNL     1     -21.363 -18.450  15.308  1.00  0.00    -0.368 OA
ATOM     31  H5  UNL     1     -20.879 -18.295  16.111  1.00  0.00     0.212 HD
ENDBRANCH  25  30
ENDBRANCH  22  25
ENDBRANCH  20  22
ENDBRANCH   2  18
TORSDOF 8
ENDMDL