MODEL 3
REMARK VINA RESULT: -6.232172733      8.241     11.861
REMARK  8 active torsions:
REMARK  status: ('A' for Active; 'I' for Inactive)
REMARK       I    between atoms: C1_4  and  N3_6
REMARK       I    between atoms: N3_6  and  C2_8
REMARK    1  A    between atoms: C2_8  and  C3_10
REMARK    2  A    between atoms: C4_11  and  C5_12
REMARK       I    between atoms: C5_12  and  N4_14
REMARK    3  A    between atoms: C6_16  and  C7_17
REMARK    4  A    between atoms: C7_17  and  N5_18
REMARK    5  A    between atoms: C8_23  and  C9_24
REMARK    6  A    between atoms: C9_24  and  C10_25
REMARK    7  A    between atoms: C10_25  and  N7_26
REMARK    8  A    between atoms: C12_31  and  N8_32
ROOT
HETATM    1  C3  UNL     1     -17.878  -8.585  21.297  1.00  0.00     0.090 A
HETATM    2  C4  UNL     1     -17.034  -9.119  20.349  1.00  0.00     0.119 A
HETATM    3  N6  UNL     1     -15.945  -8.412  19.901  1.00  0.00    -0.354 N
ATOM      4  H6  UNL     1     -15.343  -8.840  19.196  1.00  0.00     0.166 HD
HETATM    5  C8  UNL     1     -15.638  -7.201  20.341  1.00  0.00     0.013 A
HETATM    6  C11 UNL     1     -16.433  -6.618  21.279  1.00  0.00     0.055 A
HETATM    7  C12 UNL     1     -17.559  -7.313  21.760  1.00  0.00     0.045 A
ENDROOT
BRANCH   1   8
HETATM    8  C2  UNL     1     -19.086  -9.181  21.776  1.00  0.00     0.262 C
HETATM    9  N3  UNL     1     -19.170 -10.376  22.540  1.00  0.00    -0.297 N
HETATM   10  C1  UNL     1     -20.397 -10.900  22.968  1.00  0.00     0.188 C
ATOM     11  H3  UNL     1     -18.310 -10.868  22.784  1.00  0.00     0.171 HD
HETATM   12  N1  UNL     1     -20.433 -11.984  23.658  1.00  0.00    -0.373 N
HETATM   13  N2  UNL     1     -21.606 -10.247  22.651  1.00  0.00    -0.064 NA
ATOM     14  H12 UNL     1     -21.326 -12.365  23.969  1.00  0.00     0.158 HD
ATOM     15  H11 UNL     1     -19.559 -12.457  23.887  1.00  0.00     0.158 HD
HETATM   16  O1  UNL     1     -20.199  -8.613  21.504  1.00  0.00    -0.267 OA
ENDBRANCH   1   8
BRANCH   2  17
HETATM   17  C5  UNL     1     -17.257 -10.453  19.842  1.00  0.00     0.273 C
HETATM   18  O2  UNL     1     -16.595 -11.433  20.160  1.00  0.00    -0.266 OA
HETATM   19  N4  UNL     1     -18.313 -10.668  18.905  1.00  0.00    -0.334 N
HETATM   20  C6  UNL     1     -18.080 -11.246  17.753  1.00  0.00     0.090 C
ATOM     21  H4  UNL     1     -19.261 -10.369  19.136  1.00  0.00     0.168 HD
BRANCH  20  22
HETATM   22  C7  UNL     1     -19.265 -11.409  16.872  1.00  0.00     0.245 C
BRANCH  22  23
HETATM   23  N5  UNL     1     -18.773 -11.735  15.553  1.00  0.00    -0.151 N
HETATM   24  O3  UNL     1     -18.563 -12.917  15.239  1.00  0.00    -0.536 OA
HETATM   25  O4  UNL     1     -18.546 -10.719  14.667  1.00  0.00    -0.536 OA
ENDBRANCH  22  23
ENDBRANCH  20  22
ENDBRANCH   2  17
BRANCH   7  26
HETATM   26  N8  UNL     1     -18.278  -6.718  22.607  1.00  0.00    -0.398 N
ATOM     27  H82 UNL     1     -17.911  -6.646  23.555  1.00  0.00     0.156 HD
ATOM     28  H81 UNL     1     -19.176  -6.307  22.352  1.00  0.00     0.156 HD
ENDBRANCH   7  26
BRANCH   5  29
HETATM   29  C9  UNL     1     -14.453  -6.436  19.849  1.00  0.00     0.084 C
BRANCH  29  30
HETATM   30  C10 UNL     1     -14.807  -5.639  18.612  1.00  0.00     0.235 C
BRANCH  30  31
HETATM   31  N7  UNL     1     -14.057  -6.120  17.491  1.00  0.00    -0.079 N
ATOM     32  H73 UNL     1     -13.431  -6.884  17.748  1.00  0.00     0.274 HD
ATOM     33  H72 UNL     1     -14.643  -6.626  16.826  1.00  0.00     0.274 HD
ATOM     34  H71 UNL     1     -13.556  -5.348  17.051  1.00  0.00     0.274 HD
ENDBRANCH  30  31
ENDBRANCH  29  30
ENDBRANCH   5  29
TORSDOF 8
ENDMDL