MODEL 4
REMARK VINA RESULT: -3.112533777      1.423      2.098
REMARK  1 active torsions:
REMARK  status: ('A' for Active; 'I' for Inactive)
REMARK    1  A    between atoms: O1_1  and  C1_3
ROOT
HETATM    1  C1  UNL     1      19.985   7.658  -1.950  1.00  0.00     0.122 C
HETATM    2  C2  UNL     1      19.915   6.221  -2.488  1.00  0.00     0.036 C
HETATM    3  C3  UNL     1      21.177   6.073  -3.289  1.00  0.00    -0.012 C
HETATM    4  C4  UNL     1      21.069   6.957  -4.497  1.00  0.00     0.005 C
HETATM    5  C5  UNL     1      21.236   8.389  -3.968  1.00  0.00     0.007 C
HETATM    6  C6  UNL     1      21.296   8.189  -2.472  1.00  0.00     0.015 C
HETATM    7  C7  UNL     1      22.138   6.901  -2.421  1.00  0.00     0.012 C
ENDROOT
BRANCH   1   8
HETATM    8  O1  UNL     1      18.899   8.396  -2.349  1.00  0.00    -0.395 OA
ATOM      9  H1  UNL     1      19.145   9.057  -2.986  1.00  0.00     0.210 HD
ENDBRANCH   1   8
TORSDOF 1
ENDMDL