MODEL 3
REMARK VINA RESULT: -3.325272701      1.048      1.954
REMARK  1 active torsions:
REMARK  status: ('A' for Active; 'I' for Inactive)
REMARK    1  A    between atoms: C4_4  and  N1_5
ROOT
HETATM    1  C1  UNL     1      21.491   7.592  -5.653  1.00  0.00     0.015 C
HETATM    2  C2  UNL     1      21.081   7.727  -4.283  1.00  0.00    -0.041 C
HETATM    3  C3  UNL     1      19.973   8.652  -3.885  1.00  0.00     0.042 C
HETATM    4  C4  UNL     1      20.087   8.525  -2.353  1.00  0.00     0.188 C
HETATM    5  C5  UNL     1      21.053   7.388  -2.292  1.00  0.00     0.017 C
HETATM    6  C6  UNL     1      22.161   7.924  -3.207  1.00  0.00     0.015 C
HETATM    7  C7  UNL     1      20.705   6.486  -3.485  1.00  0.00     0.015 C
ENDROOT
BRANCH   4   8
HETATM    8  N1  UNL     1      18.830   8.287  -1.736  1.00  0.00    -0.075 N
ATOM      9  H13 UNL     1      18.767   7.331  -1.387  1.00  0.00     0.274 HD
ATOM     10  H12 UNL     1      18.753   8.789  -0.852  1.00  0.00     0.274 HD
ATOM     11  H11 UNL     1      18.048   8.505  -2.354  1.00  0.00     0.274 HD
ENDBRANCH   4   8
TORSDOF 1
ENDMDL