MODEL 3
REMARK VINA RESULT: -3.713631277      2.036      2.780
REMARK  2 active torsions:
REMARK  status: ('A' for Active; 'I' for Inactive)
REMARK    1  A    between atoms: O1_1  and  C1_3
REMARK    2  A    between atoms: C1_3  and  C2_4
ROOT
HETATM    1  C2  UNL     1      19.935   7.116  -2.029  1.00  0.00    -0.018 C
HETATM    2  C3  UNL     1      19.845   5.661  -2.374  1.00  0.00     0.012 C
HETATM    3  C4  UNL     1      18.641   5.057  -1.680  1.00  0.00     0.001 C
HETATM    4  C5  UNL     1      17.488   6.001  -1.644  1.00  0.00     0.005 C
HETATM    5  C6  UNL     1      17.934   7.435  -1.533  1.00  0.00    -0.013 C
HETATM    6  C7  UNL     1      19.229   7.417  -0.708  1.00  0.00     0.016 C
HETATM    7  C8  UNL     1      18.807   7.838  -2.717  1.00  0.00     0.016 C
ENDROOT
BRANCH   1   8
HETATM    8  C1  UNL     1      21.300   7.735  -2.170  1.00  0.00     0.173 C
BRANCH   8   9
HETATM    9  O1  UNL     1      21.342   8.740  -3.108  1.00  0.00    -0.400 OA
ATOM     10  H1  UNL     1      22.208   9.118  -3.212  1.00  0.00     0.209 HD
ENDBRANCH   8   9
ENDBRANCH   1   8
TORSDOF 2
ENDMDL