MODEL 3
REMARK VINA RESULT: -3.682705154      1.851      3.018
REMARK  1 active torsions:
REMARK  status: ('A' for Active; 'I' for Inactive)
REMARK    1  A    between atoms: N1_1  and  C1_5
ROOT
HETATM    1  C1  UNL     1      19.588   7.939  -2.950  1.00  0.00     0.188 C
HETATM    2  C2  UNL     1      20.234   8.718  -4.073  1.00  0.00     0.037 C
HETATM    3  C3  UNL     1      21.651   8.189  -4.163  1.00  0.00    -0.012 C
HETATM    4  C4  UNL     1      21.746   6.966  -5.029  1.00  0.00     0.005 C
HETATM    5  C5  UNL     1      21.707   5.679  -4.268  1.00  0.00     0.001 C
HETATM    6  C6  UNL     1      20.685   5.688  -3.144  1.00  0.00     0.007 C
HETATM    7  C7  UNL     1      20.639   6.993  -2.416  1.00  0.00     0.016 C
HETATM    8  C8  UNL     1      21.918   7.778  -2.727  1.00  0.00     0.011 C
ENDROOT
BRANCH   1   9
HETATM    9  N1  UNL     1      19.202   8.808  -1.854  1.00  0.00    -0.075 N
ATOM     10  H13 UNL     1      18.873   8.272  -1.051  1.00  0.00     0.274 HD
ATOM     11  H12 UNL     1      20.013   9.251  -1.426  1.00  0.00     0.274 HD
ATOM     12  H11 UNL     1      18.512   9.500  -2.149  1.00  0.00     0.274 HD
ENDBRANCH   1   9
TORSDOF 1
ENDMDL