MODEL 5
REMARK VINA RESULT: -3.031800648      2.124      2.968
REMARK  1 active torsions:
REMARK  status: ('A' for Active; 'I' for Inactive)
REMARK    1  A    between atoms: C7_7  and  O1_8
ROOT
HETATM    1  C1  UNL     1      20.159   7.639  -2.771  1.00  0.00     0.018 C
HETATM    2  C2  UNL     1      20.951   6.347  -2.505  1.00  0.00    -0.014 A
HETATM    3  C3  UNL     1      20.205   5.168  -2.649  1.00  0.00     0.017 A
HETATM    4  C4  UNL     1      21.069   5.367  -3.746  1.00  0.00    -0.003 A
HETATM    5  C5  UNL     1      21.361   6.474  -4.664  1.00  0.00     0.008 C
HETATM    6  C6  UNL     1      22.591   7.068  -3.947  1.00  0.00     0.033 C
HETATM    7  C7  UNL     1      22.403   6.645  -2.472  1.00  0.00     0.126 C
ENDROOT
BRANCH   7   8
HETATM    8  O1  UNL     1      23.188   5.537  -2.200  1.00  0.00    -0.395 OA
ATOM      9  H1  UNL     1      23.739   5.275  -2.927  1.00  0.00     0.210 HD
ENDBRANCH   7   8
TORSDOF 1
ENDMDL