MODEL 1
REMARK VINA RESULT: -3.643958736      0.000      0.000
REMARK  1 active torsions:
REMARK  status: ('A' for Active; 'I' for Inactive)
REMARK    1  A    between atoms: C7_7  and  O1_8
ROOT
HETATM    1  C1  UNL     1      18.854   7.883  -1.917  1.00  0.00     0.012 C
HETATM    2  C2  UNL     1      20.036   8.564  -2.536  1.00  0.00     0.012 A
HETATM    3  C3  UNL     1      21.316   7.805  -2.228  1.00  0.00     0.018 A
HETATM    4  C4  UNL     1      21.458   7.556  -3.709  1.00  0.00    -0.021 A
HETATM    5  C5  UNL     1      21.269   6.113  -4.107  1.00  0.00     0.017 C
HETATM    6  C6  UNL     1      22.737   8.193  -4.211  1.00  0.00     0.017 C
HETATM    7  C7  UNL     1      20.205   8.342  -4.025  1.00  0.00     0.129 A
ENDROOT
BRANCH   7   8
HETATM    8  O1  UNL     1      20.405   9.487  -4.773  1.00  0.00    -0.394 OA
ATOM      9  H1  UNL     1      20.700  10.246  -4.284  1.00  0.00     0.210 HD
ENDBRANCH   7   8
TORSDOF 1
ENDMDL