MODEL 5
REMARK VINA RESULT: -3.379755982      1.687      2.492
REMARK  1 active torsions:
REMARK  status: ('A' for Active; 'I' for Inactive)
REMARK    1  A    between atoms: N1_1  and  C1_5
ROOT
HETATM    1  C1  UNL     1      20.906   7.508  -1.978  1.00  0.00     0.188 C
HETATM    2  C2  UNL     1      19.955   8.661  -2.322  1.00  0.00     0.038 C
HETATM    3  C3  UNL     1      18.894   7.572  -2.489  1.00  0.00    -0.007 C
HETATM    4  C4  UNL     1      18.420   6.943  -1.228  1.00  0.00     0.005 C
HETATM    5  C5  UNL     1      18.587   5.471  -1.486  1.00  0.00     0.001 C
HETATM    6  C6  UNL     1      19.802   5.326  -2.353  1.00  0.00     0.007 C
HETATM    7  C7  UNL     1      20.034   6.674  -2.929  1.00  0.00     0.020 C
ENDROOT
BRANCH   1   8
HETATM    8  N1  UNL     1      22.231   7.668  -2.513  1.00  0.00    -0.075 N
ATOM      9  H13 UNL     1      22.833   6.899  -2.220  1.00  0.00     0.274 HD
ATOM     10  H12 UNL     1      22.232   7.512  -3.521  1.00  0.00     0.274 HD
ATOM     11  H11 UNL     1      22.660   8.566  -2.288  1.00  0.00     0.274 HD
ENDBRANCH   1   8
TORSDOF 1
ENDMDL