MODEL 1
REMARK VINA RESULT: -3.786289364      0.000      0.000
REMARK  1 active torsions:
REMARK  status: ('A' for Active; 'I' for Inactive)
REMARK    1  A    between atoms: C7_7  and  N1_8
ROOT
HETATM    1  C1  UNL     1      20.133   8.551  -3.860  1.00  0.00     0.012 C
HETATM    2  C2  UNL     1      20.198   7.856  -2.491  1.00  0.00     0.012 C
HETATM    3  C3  UNL     1      21.252   6.810  -2.495  1.00  0.00     0.006 C
HETATM    4  C4  UNL     1      20.750   5.507  -3.071  1.00  0.00     0.000 C
HETATM    5  C5  UNL     1      19.647   5.053  -2.144  1.00  0.00     0.002 C
HETATM    6  C6  UNL     1      18.518   6.014  -2.049  1.00  0.00     0.033 C
HETATM    7  C7  UNL     1      18.863   7.446  -2.029  1.00  0.00     0.187 C
ENDROOT
BRANCH   7   8
HETATM    8  N1  UNL     1      18.600   7.964  -0.673  1.00  0.00    -0.075 N
ATOM      9  H13 UNL     1      18.033   8.811  -0.695  1.00  0.00     0.274 HD
ATOM     10  H12 UNL     1      17.958   7.363  -0.156  1.00  0.00     0.274 HD
ATOM     11  H11 UNL     1      19.474   8.108  -0.167  1.00  0.00     0.274 HD
ENDBRANCH   7   8
TORSDOF 1
ENDMDL