MODEL 3
REMARK VINA RESULT: -3.334468907      1.717      2.754
REMARK  1 active torsions:
REMARK  status: ('A' for Active; 'I' for Inactive)
REMARK    1  A    between atoms: C6_6  and  O1_8
ROOT
HETATM    1  C1  UNL     1      19.305   7.622  -1.657  1.00  0.00     0.013 C
HETATM    2  C2  UNL     1      20.059   7.405  -2.937  1.00  0.00     0.015 C
HETATM    3  C3  UNL     1      21.219   8.385  -2.951  1.00  0.00     0.007 C
HETATM    4  C4  UNL     1      22.227   7.671  -2.073  1.00  0.00     0.004 C
HETATM    5  C5  UNL     1      22.107   6.206  -2.435  1.00  0.00     0.038 C
HETATM    6  C6  UNL     1      20.745   6.088  -3.028  1.00  0.00     0.057 C
HETATM    7  C7  UNL     1      19.934   4.952  -2.445  1.00  0.00     0.046 C
ENDROOT
BRANCH   6   8
HETATM    8  O1  UNL     1      20.900   5.790  -4.400  1.00  0.00    -0.390 OA
ATOM      9  H1  UNL     1      21.156   4.877  -4.463  1.00  0.00     0.210 HD
ENDBRANCH   6   8
TORSDOF 1
ENDMDL