MODEL 2
REMARK VINA RESULT: -4.109966630      0.101      1.140
REMARK  3 active torsions:
REMARK  status: ('A' for Active; 'I' for Inactive)
REMARK    1  A    between atoms: C2_2  and  C4_4
REMARK    2  A    between atoms: C4_4  and  C7_7
REMARK    3  A    between atoms: C8_8  and  N1_9
ROOT
HETATM    1  C4  UNL     1      21.180   6.956  -3.347  1.00  0.00     0.040 C
HETATM    2  C5  UNL     1      22.408   7.238  -2.508  1.00  0.00     0.034 C
HETATM    3  C6  UNL     1      21.653   6.419  -4.671  1.00  0.00     0.034 C
ENDROOT
BRANCH   1   4
HETATM    4  C2  UNL     1      20.408   8.220  -3.494  1.00  0.00    -0.073 C
HETATM    5  C1  UNL     1      19.648   8.712  -2.530  1.00  0.00     0.015 C
HETATM    6  C3  UNL     1      20.466   9.009  -4.778  1.00  0.00     0.044 C
ENDBRANCH   1   4
BRANCH   1   7
HETATM    7  C7  UNL     1      20.312   5.971  -2.697  1.00  0.00    -0.070 C
HETATM    8  C8  UNL     1      19.578   5.171  -2.162  1.00  0.00     0.004 C
BRANCH   8   9
HETATM    9  N1  UNL     1      18.727   4.263  -1.536  1.00  0.00    -0.359 N
ATOM     10  H12 UNL     1      19.008   5.242  -1.591  1.00  0.00     0.166 HD
ATOM     11  H11 UNL     1      18.109   3.588  -1.086  1.00  0.00     0.166 HD
ENDBRANCH   8   9
ENDBRANCH   1   7
TORSDOF 3
ENDMDL