MODEL 4
REMARK VINA RESULT: -4.117944972      2.265      5.040
REMARK  3 active torsions:
REMARK  status: ('A' for Active; 'I' for Inactive)
REMARK    1  A    between atoms: C1_2  and  C2_4
REMARK    2  A    between atoms: C2_4  and  C3_5
REMARK       I    between atoms: C3_5  and  N2_7
REMARK    3  A    between atoms: N2_7  and  C4_9
ROOT
HETATM    1  C2  UNL     1      21.630   8.248  -3.953  1.00  0.00     0.123 C
HETATM    2  C8  UNL     1      20.452   7.667  -3.143  1.00  0.00     0.034 C
HETATM    3  C9  UNL     1      20.914   6.252  -3.024  1.00  0.00    -0.012 C
HETATM    4  C10 UNL     1      21.521   5.894  -4.389  1.00  0.00     0.011 C
HETATM    5  C11 UNL     1      22.485   7.021  -4.037  1.00  0.00     0.013 C
HETATM    6  C12 UNL     1      22.383   6.470  -2.626  1.00  0.00     0.011 C
ENDROOT
BRANCH   1   7
HETATM    7  C1  UNL     1      22.299   9.322  -3.220  1.00  0.00     0.249 C
HETATM    8  N1  UNL     1      23.612   9.784  -3.416  1.00  0.00    -0.061 NA
HETATM    9  O1  UNL     1      21.630   9.906  -2.308  1.00  0.00    -0.275 OA
ENDBRANCH   1   7
BRANCH   1  10
HETATM   10  C3  UNL     1      21.163   8.732  -5.259  1.00  0.00     0.236 C
HETATM   11  O2  UNL     1      19.956   8.762  -5.525  1.00  0.00    -0.272 OA
HETATM   12  N2  UNL     1      22.117   9.166  -6.215  1.00  0.00    -0.355 N
ATOM     13  H2  UNL     1      23.112   9.140  -5.990  1.00  0.00     0.162 HD
BRANCH  12  14
HETATM   14  C4  UNL     1      21.680   9.646  -7.511  1.00  0.00     0.084 C
HETATM   15  C5  UNL     1      21.983   8.697  -8.644  1.00  0.00     0.025 C
HETATM   16  C6  UNL     1      22.363   9.910  -9.481  1.00  0.00     0.004 C
HETATM   17  C7  UNL     1      22.646  10.634  -8.166  1.00  0.00     0.025 C
ENDBRANCH  12  14
ENDBRANCH   1  10
TORSDOF 3
ENDMDL