MODEL 3
REMARK VINA RESULT: -4.281886599      0.847      1.008
REMARK  5 active torsions:
REMARK  status: ('A' for Active; 'I' for Inactive)
REMARK    1  A    between atoms: C2_2  and  C3_3
REMARK    2  A    between atoms: C3_3  and  N1_4
REMARK    3  A    between atoms: N1_4  and  C4_6
REMARK    4  A    between atoms: C4_6  and  N2_8
REMARK    5  A    between atoms: N2_8  and  C5_10
ROOT
HETATM    1  N2  UNL     1      20.462   9.470  -3.785  1.00  0.00    -0.361 N
ATOM      2  H2  UNL     1      20.556  10.457  -3.545  1.00  0.00     0.162 HD
ENDROOT
BRANCH   1   3
HETATM    3  C4  UNL     1      20.231   8.513  -2.762  1.00  0.00     0.168 C
HETATM    4  S1  UNL     1      21.508   7.666  -2.185  1.00  0.00    -0.041 SA
BRANCH   3   5
HETATM    5  N1  UNL     1      18.917   8.312  -2.265  1.00  0.00    -0.364 N
ATOM      6  H1  UNL     1      18.120   8.766  -2.711  1.00  0.00     0.162 HD
BRANCH   5   7
HETATM    7  C3  UNL     1      18.724   7.459  -1.121  1.00  0.00     0.148 C
BRANCH   7   8
HETATM    8  C2  UNL     1      17.907   6.274  -1.477  1.00  0.00    -0.018 C
HETATM    9  C1  UNL     1      18.482   5.084  -1.496  1.00  0.00     0.008 C
ENDBRANCH   7   8
ENDBRANCH   5   7
ENDBRANCH   3   5
ENDBRANCH   1   3
BRANCH   1  10
HETATM   10  C5  UNL     1      20.565   9.057  -5.153  1.00  0.00     0.116 C
HETATM   11  C6  UNL     1      21.062   7.641  -5.318  1.00  0.00     0.297 C
HETATM   12  N3  UNL     1      22.220   7.562  -6.172  1.00  0.00     0.090 N
HETATM   13  C7  UNL     1      23.324   8.322  -5.634  1.00  0.00     0.273 C
HETATM   14  C11 UNL     1      21.914   8.083  -7.483  1.00  0.00     0.273 C
HETATM   15  C8  UNL     1      22.896   9.748  -5.345  1.00  0.00     0.037 C
HETATM   16  C9  UNL     1      21.518   9.956  -5.914  1.00  0.00     0.013 C
HETATM   17  C10 UNL     1      21.446   9.518  -7.373  1.00  0.00     0.037 C
ENDBRANCH   1  10
TORSDOF 5
ENDMDL