MODEL 5
REMARK VINA RESULT: -4.796290986      2.354      4.576
REMARK  3 active torsions:
REMARK  status: ('A' for Active; 'I' for Inactive)
REMARK    1  A    between atoms: C3_3  and  C4_4
REMARK    2  A    between atoms: C8_8  and  C9_9
REMARK    3  A    between atoms: C11_13  and  C12_14
ROOT
HETATM    1  C1  UNL     1      22.014   8.995  -8.398  1.00  0.00     0.096 C
HETATM    2  C2  UNL     1      21.960   8.263  -7.305  1.00  0.00    -0.187 C
HETATM    3  C3  UNL     1      21.856   7.614  -6.181  1.00  0.00     0.084 C
ENDROOT
BRANCH   3   4
HETATM    4  C4  UNL     1      20.810   8.039  -5.266  1.00  0.00     0.002 C
HETATM    5  C5  UNL     1      20.841   9.561  -5.045  1.00  0.00     0.011 C
HETATM    6  C6  UNL     1      21.477   9.763  -3.717  1.00  0.00     0.001 C
HETATM    7  C7  UNL     1      20.451   9.502  -2.621  1.00  0.00     0.021 C
HETATM    8  C11 UNL     1      22.257   8.437  -3.548  1.00  0.00     0.096 C
HETATM    9  C8  UNL     1      19.952   8.104  -3.025  1.00  0.00     0.092 C
HETATM   10  C10 UNL     1      21.069   7.540  -3.810  1.00  0.00     0.019 C
BRANCH   9  11
HETATM   11  C9  UNL     1      19.434   7.317  -1.916  1.00  0.00     0.177 C
HETATM   12  O1  UNL     1      18.952   7.843  -0.912  1.00  0.00    -0.648 OA
HETATM   13  O2  UNL     1      19.472   5.925  -1.957  1.00  0.00    -0.648 OA
ENDBRANCH   9  11
BRANCH   8  14
HETATM   14  C12 UNL     1      22.845   8.426  -2.238  1.00  0.00     0.177 C
HETATM   15  O3  UNL     1      22.904   7.434  -1.499  1.00  0.00    -0.648 OA
HETATM   16  O4  UNL     1      23.395   9.613  -1.749  1.00  0.00    -0.648 OA
ENDBRANCH   8  14
ENDBRANCH   3   4
TORSDOF 3
ENDMDL