MODEL 5
REMARK VINA RESULT: -4.492758804      2.603      3.374
REMARK  6 active torsions:
REMARK  status: ('A' for Active; 'I' for Inactive)
REMARK    1  A    between atoms: N1_1  and  N2_4
REMARK    2  A    between atoms: C1_6  and  C2_7
REMARK    3  A    between atoms: C2_7  and  N3_8
REMARK    4  A    between atoms: N3_8  and  C3_10
REMARK    5  A    between atoms: C3_10  and  N4_12
REMARK    6  A    between atoms: N4_12  and  C4_14
ROOT
HETATM    1  C3  UNL     1      22.217   4.633  -3.951  1.00  0.00     0.168 C
HETATM    2  S1  UNL     1      23.461   3.583  -3.988  1.00  0.00    -0.041 SA
ENDROOT
BRANCH   1   3
HETATM    3  N3  UNL     1      21.953   5.324  -5.168  1.00  0.00    -0.362 N
ATOM      4  H3  UNL     1      21.332   4.877  -5.842  1.00  0.00     0.162 HD
BRANCH   3   5
HETATM    5  C2  UNL     1      22.497   6.599  -5.507  1.00  0.00     0.168 C
BRANCH   5   6
HETATM    6  C1  UNL     1      21.586   7.461  -6.294  1.00  0.00     0.099 C
HETATM    7  N2  UNL     1      20.783   8.272  -5.731  1.00  0.00    -0.321 N
ATOM      8  H2  UNL     1      19.986   7.681  -5.497  1.00  0.00     0.185 HD
BRANCH   7   9
HETATM    9  N1  UNL     1      20.435   9.391  -5.309  1.00  0.00    -0.346 N
ATOM     10  H12 UNL     1      19.894   9.121  -4.487  1.00  0.00     0.176 HD
ATOM     11  H11 UNL     1      20.397  10.410  -5.335  1.00  0.00     0.176 HD
ENDBRANCH   7   9
ENDBRANCH   5   6
ENDBRANCH   3   5
ENDBRANCH   1   3
BRANCH   1  12
HETATM   12  N4  UNL     1      21.437   4.864  -2.797  1.00  0.00    -0.363 N
ATOM     13  H4  UNL     1      21.766   4.406  -1.947  1.00  0.00     0.162 HD
BRANCH  12  14
HETATM   14  C4  UNL     1      20.267   5.638  -2.654  1.00  0.00     0.083 C
HETATM   15  C5  UNL     1      19.263   5.027  -1.727  1.00  0.00     0.025 C
HETATM   16  C6  UNL     1      18.015   5.924  -1.624  1.00  0.00     0.002 C
HETATM   17  C7  UNL     1      18.509   7.244  -1.065  1.00  0.00     0.000 C
HETATM   18  C8  UNL     1      19.337   7.899  -2.150  1.00  0.00     0.002 C
HETATM   19  C9  UNL     1      20.607   7.063  -2.282  1.00  0.00     0.025 C
ENDBRANCH  12  14
ENDBRANCH   1  12
TORSDOF 6
ENDMDL