MODEL 4
REMARK VINA RESULT: -3.914817431      2.287      5.325
REMARK  5 active torsions:
REMARK  status: ('A' for Active; 'I' for Inactive)
REMARK    1  A    between atoms: C2_2  and  N1_3
REMARK    2  A    between atoms: N1_3  and  C3_5
REMARK    3  A    between atoms: C3_5  and  N2_7
REMARK    4  A    between atoms: C7_11  and  C8_12
REMARK    5  A    between atoms: C8_12  and  N3_13
ROOT
HETATM    1  N2  UNL     1      21.201   7.990  -4.637  1.00  0.00    -0.358 N
HETATM    2  C4  UNL     1      22.303   7.619  -5.454  1.00  0.00     0.130 C
HETATM    3  C5  UNL     1      21.839   8.001  -6.851  1.00  0.00     0.007 C
HETATM    4  C6  UNL     1      22.978   8.035  -7.828  1.00  0.00     0.012 C
HETATM    5  C7  UNL     1      21.187   9.328  -6.598  1.00  0.00     0.034 C
HETATM    6  C10 UNL     1      20.370   8.968  -5.381  1.00  0.00     0.132 C
ENDROOT
BRANCH   1   7
HETATM    7  C3  UNL     1      20.872   7.619  -3.327  1.00  0.00     0.169 C
HETATM    8  S1  UNL     1      19.849   8.632  -2.494  1.00  0.00    -0.041 SA
BRANCH   7   9
HETATM    9  N1  UNL     1      21.330   6.472  -2.684  1.00  0.00    -0.367 N
ATOM     10  H1  UNL     1      22.017   6.601  -1.940  1.00  0.00     0.161 HD
BRANCH   9  11
HETATM   11  C2  UNL     1      20.931   5.146  -2.968  1.00  0.00     0.117 C
HETATM   12  C1  UNL     1      19.623   4.862  -2.193  1.00  0.00     0.026 C
ENDBRANCH   9  11
ENDBRANCH   7   9
ENDBRANCH   1   7
BRANCH   5  13
HETATM   13  C8  UNL     1      22.162  10.421  -6.268  1.00  0.00     0.238 C
BRANCH  13  14
HETATM   14  N3  UNL     1      21.571  11.724  -6.267  1.00  0.00    -0.079 N
HETATM   15  C9  UNL     1      22.445  12.730  -5.687  1.00  0.00     0.267 C
ATOM     16  H32 UNL     1      21.272  11.993  -7.205  1.00  0.00     0.276 HD
ATOM     17  H31 UNL     1      20.662  11.715  -5.803  1.00  0.00     0.276 HD
ENDBRANCH  13  14
ENDBRANCH   5  13
TORSDOF 5
ENDMDL