MODEL 3
REMARK VINA RESULT: -4.581072112      3.684      6.353
REMARK  3 active torsions:
REMARK  status: ('A' for Active; 'I' for Inactive)
REMARK    1  A    between atoms: C1_2  and  C2_4
REMARK    2  A    between atoms: C6_8  and  N1_9
REMARK       I    between atoms: N1_9  and  C7_11
REMARK    3  A    between atoms: C7_11  and  C8_13
ROOT
HETATM    1  C2  UNL     1      19.410   6.675  -1.680  1.00  0.00     0.089 C
HETATM    2  C3  UNL     1      18.891   8.023  -2.026  1.00  0.00     0.015 C
HETATM    3  C4  UNL     1      20.093   8.919  -2.323  1.00  0.00     0.003 C
HETATM    4  C5  UNL     1      20.669   8.385  -3.628  1.00  0.00     0.025 C
HETATM    5  C6  UNL     1      21.302   7.050  -3.295  1.00  0.00     0.085 C
HETATM    6  C11 UNL     1      20.352   6.092  -2.685  1.00  0.00     0.040 C
ENDROOT
BRANCH   5   7
HETATM    7  N1  UNL     1      21.877   6.443  -4.480  1.00  0.00    -0.356 N
HETATM    8  C7  UNL     1      23.107   5.737  -4.414  1.00  0.00     0.222 C
HETATM    9  O3  UNL     1      23.735   5.614  -3.344  1.00  0.00    -0.273 OA
ATOM     10  H1  UNL     1      21.391   6.525  -5.374  1.00  0.00     0.162 HD
BRANCH   8  11
HETATM   11  C8  UNL     1      23.680   5.122  -5.636  1.00  0.00     0.078 A
HETATM   12  C9  UNL     1      22.836   5.033  -6.854  1.00  0.00     0.015 A
HETATM   13  C10 UNL     1      23.105   3.806  -6.068  1.00  0.00     0.015 A
ENDBRANCH   8  11
ENDBRANCH   5   7
BRANCH   1  14
HETATM   14  C1  UNL     1      18.269   5.750  -1.523  1.00  0.00     0.177 C
HETATM   15  O1  UNL     1      18.434   4.522  -1.363  1.00  0.00    -0.648 OA
HETATM   16  O2  UNL     1      16.980   6.237  -1.553  1.00  0.00    -0.648 OA
ENDBRANCH   1  14
TORSDOF 3
ENDMDL