MODEL 2
REMARK VINA RESULT: -4.339806178      1.163      1.455
REMARK  3 active torsions:
REMARK  status: ('A' for Active; 'I' for Inactive)
REMARK    1  A    between atoms: C2_2  and  C3_3
REMARK    2  A    between atoms: C3_3  and  N1_4
REMARK       I    between atoms: N2_7  and  C6_8
REMARK    3  A    between atoms: C8_14  and  C9_15
ROOT
HETATM    1  N1  UNL     1      22.520   6.908  -3.833  1.00  0.00     0.100 N
HETATM    2  C4  UNL     1      23.858   6.471  -3.613  1.00  0.00     0.293 C
HETATM    3  C5  UNL     1      24.199   6.305  -2.149  1.00  0.00     0.156 C
HETATM    4  N2  UNL     1      23.861   7.489  -1.386  1.00  0.00    -0.352 N
HETATM    5  C6  UNL     1      24.592   7.945  -0.282  1.00  0.00     0.184 C
HETATM    6  N3  UNL     1      24.190   7.635   0.916  1.00  0.00    -0.374 N
ATOM      7  H31 UNL     1      24.723   7.966   1.721  1.00  0.00     0.158 HD
ATOM      8  H32 UNL     1      23.356   7.067   1.072  1.00  0.00     0.158 HD
HETATM    9  N4  UNL     1      25.752   8.734  -0.497  1.00  0.00    -0.064 NA
HETATM   10  C7  UNL     1      22.660   8.198  -1.873  1.00  0.00     0.161 C
HETATM   11  C8  UNL     1      21.853   7.140  -2.590  1.00  0.00     0.245 C
ENDROOT
BRANCH  11  12
HETATM   12  C9  UNL     1      20.403   7.441  -2.718  1.00  0.00     0.025 A
HETATM   13  C10 UNL     1      19.901   8.843  -2.664  1.00  0.00     0.012 A
HETATM   14  C11 UNL     1      19.607   7.900  -1.543  1.00  0.00    -0.012 A
HETATM   15  C12 UNL     1      18.153   7.409  -1.430  1.00  0.00     0.010 C
ENDBRANCH  11  12
BRANCH   1  16
HETATM   16  C3  UNL     1      21.862   6.042  -4.749  1.00  0.00     0.299 C
BRANCH  16  17
HETATM   17  C2  UNL     1      21.640   6.629  -6.101  1.00  0.00    -0.007 C
HETATM   18  C1  UNL     1      21.563   7.938  -6.299  1.00  0.00     0.008 C
ENDBRANCH  16  17
ENDBRANCH   1  16
TORSDOF 3
ENDMDL