MODEL 5
REMARK VINA RESULT: -4.161863512      3.829      4.838
REMARK  3 active torsions:
REMARK  status: ('A' for Active; 'I' for Inactive)
REMARK    1  A    between atoms: N1_1  and  S1_4
REMARK    2  A    between atoms: S1_4  and  N2_7
REMARK    3  A    between atoms: N2_7  and  C1_9
ROOT
HETATM    1  C1  UNL     1      22.179   9.240  -4.828  1.00  0.00     0.102 C
HETATM    2  C2  UNL     1      20.908   8.418  -4.938  1.00  0.00     0.010 C
HETATM    3  C3  UNL     1      21.170   6.947  -4.943  1.00  0.00     0.011 C
HETATM    4  C4  UNL     1      21.888   6.554  -3.683  1.00  0.00    -0.013 C
HETATM    5  C5  UNL     1      21.052   6.919  -2.491  1.00  0.00     0.009 C
HETATM    6  C6  UNL     1      20.835   8.434  -2.478  1.00  0.00    -0.013 C
HETATM    7  C7  UNL     1      20.066   8.780  -3.719  1.00  0.00     0.011 C
HETATM    8  C8  UNL     1      22.189   9.070  -2.407  1.00  0.00     0.011 C
HETATM    9  C9  UNL     1      22.986   8.761  -3.663  1.00  0.00     0.010 C
HETATM   10  C10 UNL     1      23.223   7.272  -3.679  1.00  0.00     0.011 C
ENDROOT
BRANCH   1  11
HETATM   11  N2  UNL     1      22.915   9.267  -6.069  1.00  0.00    -0.297 N
ATOM     12  H2  UNL     1      23.743   8.701  -6.258  1.00  0.00     0.174 HD
BRANCH  11  13
HETATM   13  S1  UNL     1      22.223  10.376  -7.191  1.00  0.00     0.313 S
HETATM   14  O1  UNL     1      21.185   9.709  -8.012  1.00  0.00    -0.183 OA
HETATM   15  O2  UNL     1      23.341  10.888  -8.076  1.00  0.00    -0.183 OA
BRANCH  13  16
HETATM   16  N1  UNL     1      21.584  11.746  -6.347  1.00  0.00    -0.312 N
ATOM     17  H12 UNL     1      21.484  12.669  -6.769  1.00  0.00     0.170 HD
ATOM     18  H11 UNL     1      21.326  11.509  -5.389  1.00  0.00     0.170 HD
ENDBRANCH  13  16
ENDBRANCH  11  13
ENDBRANCH   1  11
TORSDOF 3
ENDMDL