MODEL 2
REMARK VINA RESULT: -4.324023684      0.950      1.154
REMARK  4 active torsions:
REMARK  status: ('A' for Active; 'I' for Inactive)
REMARK    1  A    between atoms: N1_2  and  N2_3
REMARK    2  A    between atoms: N1_2  and  S1_6
REMARK    3  A    between atoms: S1_6  and  N3_9
REMARK    4  A    between atoms: N3_9  and  C2_11
ROOT
HETATM    1  N3  UNL     1      20.438   8.216  -3.522  1.00  0.00    -0.301 N
ATOM      2  H3  UNL     1      19.735   8.037  -4.239  1.00  0.00     0.173 HD
ENDROOT
BRANCH   1   3
HETATM    3  S1  UNL     1      21.835   9.132  -3.803  1.00  0.00     0.315 S
HETATM    4  O1  UNL     1      22.269   9.738  -2.476  1.00  0.00    -0.187 OA
HETATM    5  O2  UNL     1      22.942   8.219  -4.231  1.00  0.00    -0.187 OA
BRANCH   3   6
HETATM    6  N1  UNL     1      21.648  10.387  -4.939  1.00  0.00    -0.114 NA
HETATM    7  C1  UNL     1      21.521   9.917  -6.300  1.00  0.00     0.157 C
BRANCH   6   8
HETATM    8  N2  UNL     1      22.648  11.347  -4.887  1.00  0.00    -0.349 NA
ATOM      9  H22 UNL     1      22.328  12.263  -4.570  1.00  0.00     0.172 HD
ATOM     10  H21 UNL     1      23.430  10.981  -4.346  1.00  0.00     0.172 HD
ENDBRANCH   6   8
ENDBRANCH   3   6
ENDBRANCH   1   3
BRANCH   1  11
HETATM   11  C2  UNL     1      20.337   7.711  -2.168  1.00  0.00     0.094 C
HETATM   12  C3  UNL     1      19.027   7.938  -1.537  1.00  0.00     0.026 C
HETATM   13  C4  UNL     1      18.052   6.805  -1.618  1.00  0.00     0.002 C
HETATM   14  C5  UNL     1      18.515   5.543  -0.974  1.00  0.00     0.000 C
HETATM   15  C6  UNL     1      19.125   4.565  -1.958  1.00  0.00     0.000 C
HETATM   16  C7  UNL     1      19.913   5.375  -2.969  1.00  0.00     0.002 C
HETATM   17  C8  UNL     1      20.812   6.286  -2.184  1.00  0.00     0.026 C
ENDBRANCH   1  11
TORSDOF 4
ENDMDL