MODEL 5
REMARK VINA RESULT: -4.121153193      2.796      5.678
REMARK  3 active torsions:
REMARK  status: ('A' for Active; 'I' for Inactive)
REMARK    1  A    between atoms: C3_3  and  N1_4
REMARK    2  A    between atoms: N1_4  and  C5_6
REMARK    3  A    between atoms: C5_6  and  C6_7
REMARK       I    between atoms: N2_12  and  C11_13
ROOT
HETATM    1  C1  UNL     1      18.152   7.409  -1.447  1.00  0.00     0.013 C
HETATM    2  C2  UNL     1      19.275   7.657  -1.802  1.00  0.00    -0.087 C
HETATM    3  C3  UNL     1      20.610   7.989  -2.224  1.00  0.00     0.364 C
ENDROOT
BRANCH   3   4
HETATM    4  N1  UNL     1      21.288   6.998  -3.008  1.00  0.00     0.095 N
HETATM    5  C4  UNL     1      20.906   5.650  -2.618  1.00  0.00     0.310 C
BRANCH   4   6
HETATM    6  C5  UNL     1      21.140   7.174  -4.442  1.00  0.00     0.278 C
BRANCH   6   7
HETATM    7  C6  UNL     1      21.084   8.678  -4.666  1.00  0.00     0.025 A
HETATM    8  C7  UNL     1      20.130   8.997  -5.828  1.00  0.00     0.018 A
HETATM    9  C8  UNL     1      21.607   9.250  -5.915  1.00  0.00    -0.017 A
HETATM   10  C9  UNL     1      22.508   8.436  -6.807  1.00  0.00     0.031 C
HETATM   11  C12 UNL     1      21.978  10.675  -6.109  1.00  0.00     0.135 C
HETATM   12  C10 UNL     1      23.528   9.405  -7.365  1.00  0.00     0.126 C
HETATM   13  N2  UNL     1      22.877  10.714  -7.243  1.00  0.00    -0.355 N
HETATM   14  C11 UNL     1      23.097  11.802  -8.103  1.00  0.00     0.183 C
HETATM   15  N3  UNL     1      23.339  13.010  -7.739  1.00  0.00    -0.374 N
HETATM   16  N4  UNL     1      23.038  11.523  -9.496  1.00  0.00    -0.064 NA
ATOM     17  H32 UNL     1      23.381  13.210  -6.740  1.00  0.00     0.158 HD
ATOM     18  H31 UNL     1      23.499  13.800  -8.364  1.00  0.00     0.158 HD
ENDBRANCH   6   7
ENDBRANCH   4   6
ENDBRANCH   3   4
TORSDOF 3
ENDMDL