MODEL 5
REMARK VINA RESULT: -3.822798544      1.300      3.266
REMARK  0 active torsions:
REMARK  status: ('A' for Active; 'I' for Inactive)
ROOT
HETATM    1  C1  UNL     1      22.927   4.932  -5.110  1.00  0.00     0.010 C
HETATM    2  C2  UNL     1      22.509   6.197  -4.387  1.00  0.00    -0.017 C
HETATM    3  C3  UNL     1      21.788   5.760  -3.124  1.00  0.00     0.006 C
HETATM    4  C4  UNL     1      21.526   7.030  -2.327  1.00  0.00     0.024 C
HETATM    5  C5  UNL     1      20.187   7.565  -2.817  1.00  0.00     0.072 C
HETATM    6  C6  UNL     1      19.382   8.045  -1.644  1.00  0.00     0.031 C
HETATM    7  N1  UNL     1      20.417   8.588  -3.749  1.00  0.00    -0.414 N
ATOM      8  H1  UNL     1      19.954   9.491  -3.650  1.00  0.00     0.153 HD
HETATM    9  C7  UNL     1      21.288   8.352  -4.813  1.00  0.00     0.073 C
HETATM   10  C8  UNL     1      20.787   9.128  -6.038  1.00  0.00     0.032 C
HETATM   11  C9  UNL     1      21.483   6.939  -5.239  1.00  0.00     0.028 C
ENDROOT
TORSDOF 0
ENDMDL