MODEL 3
REMARK VINA RESULT: -3.970110464      1.625      3.066
REMARK  0 active torsions:
REMARK  status: ('A' for Active; 'I' for Inactive)
ROOT
HETATM    1  C1  UNL     1      18.800   7.660  -1.006  1.00  0.00     0.010 C
HETATM    2  C2  UNL     1      19.999   7.579  -1.928  1.00  0.00    -0.018 C
HETATM    3  C3  UNL     1      19.828   8.434  -3.148  1.00  0.00     0.005 C
HETATM    4  C4  UNL     1      21.166   8.426  -3.891  1.00  0.00     0.017 C
HETATM    5  C5  UNL     1      21.346   6.973  -4.349  1.00  0.00     0.062 C
HETATM    6  S1  UNL     1      22.705   6.928  -5.517  1.00  0.00    -0.092 SA
HETATM    7  C6  UNL     1      21.575   6.158  -3.118  1.00  0.00    -0.004 C
HETATM    8  C7  UNL     1      22.057   4.765  -3.393  1.00  0.00     0.011 C
HETATM    9  C8  UNL     1      20.243   6.138  -2.354  1.00  0.00     0.009 C
ENDROOT
TORSDOF 0
ENDMDL