MODEL 2
REMARK VINA RESULT: -4.156361423      1.424      3.778
REMARK  2 active torsions:
REMARK  status: ('A' for Active; 'I' for Inactive)
REMARK    1  A    between atoms: N1_1  and  C1_5
REMARK    2  A    between atoms: C1_5  and  C2_6
ROOT
HETATM    1  C1  UNL     1      19.503   7.722  -1.930  1.00  0.00     0.127 A
HETATM    2  C8  UNL     1      18.765   7.649  -0.601  1.00  0.00     0.041 A
HETATM    3  C9  UNL     1      18.182   7.129  -1.851  1.00  0.00     0.041 A
ENDROOT
BRANCH   1   4
HETATM    4  N1  UNL     1      19.672   9.065  -2.474  1.00  0.00    -0.070 N
ATOM      5  H13 UNL     1      19.302   9.768  -1.835  1.00  0.00     0.275 HD
ATOM      6  H12 UNL     1      20.655   9.340  -2.472  1.00  0.00     0.275 HD
ATOM      7  H11 UNL     1      19.266   9.166  -3.404  1.00  0.00     0.275 HD
ENDBRANCH   1   4
BRANCH   1   8
HETATM    8  C2  UNL     1      20.781   6.913  -1.967  1.00  0.00     0.021 C
HETATM    9  C3  UNL     1      21.755   7.766  -2.792  1.00  0.00     0.007 C
HETATM   10  C4  UNL     1      23.118   7.175  -2.742  1.00  0.00     0.000 C
HETATM   11  C5  UNL     1      23.112   5.711  -3.030  1.00  0.00     0.000 C
HETATM   12  C6  UNL     1      21.802   5.153  -3.443  1.00  0.00     0.000 C
HETATM   13  C7  UNL     1      20.625   5.602  -2.664  1.00  0.00     0.007 C
ENDBRANCH   1   8
TORSDOF 2
ENDMDL