MODEL 2
REMARK VINA RESULT: -4.881978702      1.598      3.170
REMARK  0 active torsions:
REMARK  status: ('A' for Active; 'I' for Inactive)
ROOT
HETATM    1  C1  UNL     1      21.501   7.391  -3.537  1.00  0.00     0.000 C
HETATM    2  C2  UNL     1      22.230   6.138  -3.237  1.00  0.00     0.000 C
HETATM    3  C3  UNL     1      21.379   4.860  -3.060  1.00  0.00     0.002 C
HETATM    4  C4  UNL     1      20.178   5.354  -2.389  1.00  0.00     0.020 C
HETATM    5  C5  UNL     1      19.068   4.623  -1.816  1.00  0.00     0.118 C
HETATM    6  N1  UNL     1      18.301   5.655  -1.080  1.00  0.00    -0.402 N
ATOM      7  H1  UNL     1      17.888   5.457  -0.168  1.00  0.00     0.158 HD
HETATM    8  C6  UNL     1      18.164   6.919  -1.686  1.00  0.00     0.055 C
HETATM    9  C7  UNL     1      19.023   8.047  -1.209  1.00  0.00     0.044 C
HETATM   10  C8  UNL     1      19.783   8.812  -2.284  1.00  0.00     0.005 C
HETATM   11  C9  UNL     1      21.232   8.351  -2.424  1.00  0.00     0.000 C
ENDROOT
TORSDOF 0
ENDMDL