MODEL 5
REMARK VINA RESULT: -3.759993443      1.938      3.825
REMARK  1 active torsions:
REMARK  status: ('A' for Active; 'I' for Inactive)
REMARK    1  A    between atoms: C9_9  and  N1_10
ROOT
HETATM    1  C1  UNL     1      22.664   7.397  -3.752  1.00  0.00     0.012 C
HETATM    2  C2  UNL     1      21.531   7.245  -2.730  1.00  0.00     0.012 C
HETATM    3  C3  UNL     1      20.624   8.430  -2.858  1.00  0.00     0.007 C
HETATM    4  C4  UNL     1      19.257   8.258  -2.353  1.00  0.00     0.009 C
HETATM    5  C5  UNL     1      18.928   7.030  -1.605  1.00  0.00    -0.046 C
HETATM    6  C6  UNL     1      18.895   7.320  -0.100  1.00  0.00     0.015 C
HETATM    7  C7  UNL     1      17.500   6.604  -1.975  1.00  0.00     0.015 C
HETATM    8  C8  UNL     1      19.794   5.852  -1.809  1.00  0.00     0.041 C
HETATM    9  C9  UNL     1      20.759   5.974  -2.966  1.00  0.00     0.188 C
ENDROOT
BRANCH   9  10
HETATM   10  N1  UNL     1      21.648   4.824  -2.872  1.00  0.00    -0.075 N
ATOM     11  H13 UNL     1      22.351   4.943  -2.141  1.00  0.00     0.274 HD
ATOM     12  H12 UNL     1      21.173   4.005  -2.491  1.00  0.00     0.274 HD
ATOM     13  H11 UNL     1      22.071   4.632  -3.780  1.00  0.00     0.274 HD
ENDBRANCH   9  10
TORSDOF 1
ENDMDL