MODEL 5
REMARK VINA RESULT: -3.329986955      1.719      4.080
REMARK  0 active torsions:
REMARK  status: ('A' for Active; 'I' for Inactive)
ROOT
HETATM    1  C1  UNL     1      19.670   7.195  -1.936  1.00  0.00     0.016 C
HETATM    2  C2  UNL     1      20.923   7.473  -2.779  1.00  0.00    -0.032 C
HETATM    3  C3  UNL     1      20.400   8.236  -4.009  1.00  0.00     0.016 C
HETATM    4  C4  UNL     1      21.850   8.375  -2.064  1.00  0.00     0.012 C
HETATM    5  C5  UNL     1      23.088   7.788  -1.518  1.00  0.00     0.030 C
HETATM    6  C6  UNL     1      23.601   6.579  -2.212  1.00  0.00     0.018 C
HETATM    7  C7  UNL     1      24.442   6.935  -3.439  1.00  0.00     0.037 C
HETATM    8  C8  UNL     1      24.554   5.864  -1.244  1.00  0.00     0.037 C
HETATM    9  N1  UNL     1      22.559   5.652  -2.519  1.00  0.00    -0.413 N
ATOM     10  H1  UNL     1      22.588   4.677  -2.222  1.00  0.00     0.154 HD
HETATM   11  C9  UNL     1      21.479   6.190  -3.267  1.00  0.00     0.123 C
ENDROOT
TORSDOF 0
ENDMDL