MODEL 3
REMARK VINA RESULT: -3.929338191      1.473      1.924
REMARK  1 active torsions:
REMARK  status: ('A' for Active; 'I' for Inactive)
REMARK    1  A    between atoms: N1_1  and  C1_5
ROOT
HETATM    1  C1  UNL     1      23.106   5.548  -3.569  1.00  0.00     0.184 C
HETATM    2  C2  UNL     1      22.576   6.220  -4.841  1.00  0.00     0.033 C
HETATM    3  C3  UNL     1      21.436   7.118  -4.368  1.00  0.00     0.011 C
HETATM    4  C4  UNL     1      21.448   7.051  -2.864  1.00  0.00    -0.038 C
HETATM    5  C5  UNL     1      21.084   8.420  -2.281  1.00  0.00     0.010 C
HETATM    6  C6  UNL     1      19.571   8.397  -2.496  1.00  0.00     0.001 C
HETATM    7  C7  UNL     1      19.227   7.042  -1.888  1.00  0.00     0.001 C
HETATM    8  C8  UNL     1      20.395   6.178  -2.285  1.00  0.00     0.010 C
HETATM    9  C9  UNL     1      22.849   6.655  -2.553  1.00  0.00     0.042 C
ENDROOT
BRANCH   1  10
HETATM   10  N1  UNL     1      22.335   4.368  -3.293  1.00  0.00    -0.075 N
ATOM     11  H13 UNL     1      22.898   3.630  -2.870  1.00  0.00     0.274 HD
ATOM     12  H12 UNL     1      21.677   4.509  -2.526  1.00  0.00     0.274 HD
ATOM     13  H11 UNL     1      21.871   4.058  -4.147  1.00  0.00     0.274 HD
ENDBRANCH   1  10
TORSDOF 1
ENDMDL