MODEL 4
REMARK VINA RESULT: -4.078592338      2.764      3.978
REMARK  1 active torsions:
REMARK  status: ('A' for Active; 'I' for Inactive)
REMARK    1  A    between atoms: N1_1  and  C1_5
ROOT
HETATM    1  C1  UNL     1      23.602   5.953  -2.952  1.00  0.00     0.183 C
HETATM    2  C2  UNL     1      23.549   7.424  -2.732  1.00  0.00     0.033 C
HETATM    3  C3  UNL     1      22.269   7.911  -2.116  1.00  0.00     0.011 C
HETATM    4  C4  UNL     1      21.045   7.438  -2.826  1.00  0.00    -0.040 C
HETATM    5  C5  UNL     1      20.406   8.566  -3.631  1.00  0.00     0.009 C
HETATM    6  C6  UNL     1      19.697   8.955  -2.326  1.00  0.00     0.002 C
HETATM    7  C7  UNL     1      19.792   7.465  -1.963  1.00  0.00     0.009 C
HETATM    8  C8  UNL     1      21.215   6.155  -3.571  1.00  0.00     0.011 C
HETATM    9  C9  UNL     1      22.267   5.278  -2.972  1.00  0.00     0.033 C
ENDROOT
BRANCH   1  10
HETATM   10  N1  UNL     1      24.466   5.286  -1.978  1.00  0.00    -0.075 N
ATOM     11  H13 UNL     1      24.070   5.332  -1.039  1.00  0.00     0.274 HD
ATOM     12  H12 UNL     1      24.457   4.274  -2.107  1.00  0.00     0.274 HD
ATOM     13  H11 UNL     1      25.417   5.654  -1.998  1.00  0.00     0.274 HD
ENDBRANCH   1  10
TORSDOF 1
ENDMDL