MODEL 1
REMARK VINA RESULT: -4.101467865      0.000      0.000
REMARK  1 active torsions:
REMARK  status: ('A' for Active; 'I' for Inactive)
REMARK    1  A    between atoms: C2_2  and  C3_3
ROOT
HETATM    1  C3  UNL     1      20.355   8.477  -1.968  1.00  0.00     0.133 C
HETATM    2  C4  UNL     1      19.069   7.808  -1.792  1.00  0.00     0.059 C
HETATM    3  N1  UNL     1      18.053   7.265  -1.661  1.00  0.00    -0.197 NA
ENDROOT
BRANCH   1   4
HETATM    4  C2  UNL     1      20.996   7.901  -3.211  1.00  0.00    -0.025 C
HETATM    5  C1  UNL     1      20.432   8.525  -4.442  1.00  0.00     0.017 C
HETATM    6  C5  UNL     1      22.509   7.877  -3.145  1.00  0.00    -0.005 C
HETATM    7  C6  UNL     1      23.084   7.624  -4.507  1.00  0.00     0.005 C
HETATM    8  C10 UNL     1      22.367   6.545  -2.396  1.00  0.00     0.011 C
HETATM    9  C7  UNL     1      22.549   6.405  -5.161  1.00  0.00     0.001 C
HETATM   10  C8  UNL     1      21.381   5.776  -4.482  1.00  0.00     0.005 C
HETATM   11  C9  UNL     1      21.040   6.410  -3.157  1.00  0.00    -0.005 C
ENDBRANCH   1   4
TORSDOF 1
ENDMDL