MODEL 1
REMARK VINA RESULT: -4.503598874      0.000      0.000
REMARK  1 active torsions:
REMARK  status: ('A' for Active; 'I' for Inactive)
REMARK    1  A    between atoms: C2_2  and  C3_3
ROOT
HETATM    1  C3  UNL     1      19.402   6.944  -1.596  1.00  0.00     0.014 C
HETATM    2  C4  UNL     1      19.493   5.480  -1.859  1.00  0.00     0.052 C
HETATM    3  C5  UNL     1      20.617   5.065  -2.749  1.00  0.00     0.057 C
HETATM    4  N1  UNL     1      21.718   5.943  -2.818  1.00  0.00    -0.394 N
ATOM      5  H1  UNL     1      22.670   5.580  -2.780  1.00  0.00     0.159 HD
HETATM    6  C6  UNL     1      21.487   7.329  -2.940  1.00  0.00     0.022 C
HETATM    7  C7  UNL     1      21.832   7.884  -4.316  1.00  0.00     0.038 C
HETATM    8  C8  UNL     1      22.472   8.018  -1.979  1.00  0.00     0.038 C
HETATM    9  C9  UNL     1      20.125   7.799  -2.593  1.00  0.00     0.039 C
ENDROOT
BRANCH   1  10
HETATM   10  C2  UNL     1      17.972   7.331  -1.463  1.00  0.00    -0.032 C
HETATM   11  C1  UNL     1      16.959   6.491  -1.608  1.00  0.00     0.007 C
ENDBRANCH   1  10
TORSDOF 1
ENDMDL