MODEL 5
REMARK VINA RESULT: -3.363421538      1.608      3.124
REMARK  1 active torsions:
REMARK  status: ('A' for Active; 'I' for Inactive)
REMARK    1  A    between atoms: C2_2  and  C3_3
ROOT
HETATM    1  C3  UNL     1      21.583   7.897  -4.656  1.00  0.00     0.123 C
HETATM    2  C4  UNL     1      22.545   9.027  -4.995  1.00  0.00     0.046 C
HETATM    3  C5  UNL     1      21.419   6.963  -5.809  1.00  0.00     0.041 C
HETATM    4  C6  UNL     1      21.381   5.588  -5.181  1.00  0.00     0.040 C
HETATM    5  C7  UNL     1      21.881   5.760  -3.785  1.00  0.00     0.119 C
HETATM    6  C8  UNL     1      23.143   4.905  -3.619  1.00  0.00     0.046 C
HETATM    7  C9  UNL     1      20.887   5.203  -2.761  1.00  0.00     0.046 C
HETATM    8  N1  UNL     1      22.153   7.149  -3.577  1.00  0.00    -0.059 N
ATOM      9  H11 UNL     1      21.836   7.477  -2.666  1.00  0.00     0.279 HD
ATOM     10  H12 UNL     1      23.149   7.337  -3.456  1.00  0.00     0.279 HD
ENDROOT
BRANCH   1  11
HETATM   11  C2  UNL     1      20.257   8.530  -4.288  1.00  0.00     0.034 C
HETATM   12  C1  UNL     1      20.100   8.734  -2.819  1.00  0.00     0.007 C
ENDBRANCH   1  11
TORSDOF 1
ENDMDL