MODEL 5
REMARK VINA RESULT: -3.645073712      1.906      3.097
REMARK  1 active torsions:
REMARK  status: ('A' for Active; 'I' for Inactive)
REMARK    1  A    between atoms: C6_6  and  N1_7
ROOT
HETATM    1  C1  UNL     1      23.706   6.993  -3.169  1.00  0.00     0.015 C
HETATM    2  C2  UNL     1      22.206   6.964  -3.252  1.00  0.00    -0.042 C
HETATM    3  C3  UNL     1      21.662   5.588  -3.126  1.00  0.00     0.009 C
HETATM    4  C4  UNL     1      20.330   5.477  -2.488  1.00  0.00     0.003 C
HETATM    5  C5  UNL     1      19.493   6.693  -2.490  1.00  0.00     0.038 C
HETATM    6  C6  UNL     1      20.219   7.985  -2.585  1.00  0.00     0.124 C
HETATM    7  C7  UNL     1      20.372   8.329  -4.063  1.00  0.00     0.039 C
HETATM    8  C8  UNL     1      21.689   7.695  -4.493  1.00  0.00     0.011 C
HETATM    9  C9  UNL     1      21.667   7.894  -2.155  1.00  0.00     0.047 C
ENDROOT
BRANCH   6  10
HETATM   10  N1  UNL     1      19.575   9.038  -1.849  1.00  0.00    -0.070 N
ATOM     11  H13 UNL     1      18.879   8.662  -1.205  1.00  0.00     0.275 HD
ATOM     12  H12 UNL     1      20.215   9.456  -1.174  1.00  0.00     0.275 HD
ATOM     13  H11 UNL     1      19.166   9.749  -2.456  1.00  0.00     0.275 HD
ENDBRANCH   6  10
TORSDOF 1
ENDMDL