MODEL 1
REMARK VINA RESULT: -4.750080701      0.000      0.000
REMARK  0 active torsions:
REMARK  status: ('A' for Active; 'I' for Inactive)
ROOT
HETATM    1  C1  UNL     1      22.754   6.730  -3.918  1.00  0.00     0.040 C
HETATM    2  C2  UNL     1      21.309   6.895  -3.532  1.00  0.00     0.182 C
HETATM    3  C3  UNL     1      20.978   8.278  -3.132  1.00  0.00     0.033 C
HETATM    4  C4  UNL     1      19.769   8.467  -2.300  1.00  0.00     0.008 C
HETATM    5  C5  UNL     1      19.240   7.254  -1.635  1.00  0.00     0.016 C
HETATM    6  C6  UNL     1      17.761   7.163  -1.527  1.00  0.00     0.007 C
HETATM    7  C7  UNL     1      17.497   5.687  -1.300  1.00  0.00     0.002 C
HETATM    8  C8  UNL     1      18.826   4.982  -1.606  1.00  0.00     0.033 C
HETATM    9  C9  UNL     1      19.516   5.977  -2.445  1.00  0.00     0.190 C
HETATM   10  N1  UNL     1      20.926   5.884  -2.551  1.00  0.00    -0.067 N
ATOM     11  H11 UNL     1      21.412   5.974  -1.659  1.00  0.00     0.278 HD
ATOM     12  H12 UNL     1      21.260   4.947  -2.776  1.00  0.00     0.278 HD
ENDROOT
TORSDOF 0
ENDMDL