MODEL 4
REMARK VINA RESULT: -4.193716067      0.945      2.490
REMARK  0 active torsions:
REMARK  status: ('A' for Active; 'I' for Inactive)
ROOT
HETATM    1  C1  UNL     1      18.915   7.564  -1.125  1.00  0.00     0.000 C
HETATM    2  C2  UNL     1      18.151   6.399  -1.682  1.00  0.00     0.002 C
HETATM    3  C3  UNL     1      19.028   5.138  -1.856  1.00  0.00     0.033 C
HETATM    4  C4  UNL     1      20.272   5.657  -2.330  1.00  0.00     0.186 C
HETATM    5  C5  UNL     1      21.380   4.889  -2.931  1.00  0.00     0.035 C
HETATM    6  C6  UNL     1      22.229   6.156  -3.251  1.00  0.00     0.035 C
HETATM    7  C7  UNL     1      21.221   7.257  -3.497  1.00  0.00     0.186 C
HETATM    8  C8  UNL     1      21.024   8.234  -2.378  1.00  0.00     0.033 C
HETATM    9  C9  UNL     1      19.537   8.500  -2.089  1.00  0.00     0.002 C
HETATM   10  N1  UNL     1      19.954   6.502  -3.504  1.00  0.00    -0.067 N
ATOM     11  H11 UNL     1      19.087   7.039  -3.476  1.00  0.00     0.278 HD
ATOM     12  H12 UNL     1      19.692   6.029  -4.369  1.00  0.00     0.278 HD
ENDROOT
TORSDOF 0
ENDMDL