MODEL 4
REMARK VINA RESULT: -4.278532916      1.518      2.653
REMARK  0 active torsions:
REMARK  status: ('A' for Active; 'I' for Inactive)
ROOT
HETATM    1  C1  UNL     1      18.569   7.704  -0.671  1.00  0.00     0.023 C
HETATM    2  C2  UNL     1      19.013   7.460  -2.114  1.00  0.00     0.053 C
HETATM    3  C3  UNL     1      20.037   8.580  -2.511  1.00  0.00     0.042 C
HETATM    4  C4  UNL     1      21.454   8.238  -2.298  1.00  0.00    -0.027 C
HETATM    5  C5  UNL     1      22.283   7.394  -3.139  1.00  0.00    -0.007 C
HETATM    6  C6  UNL     1      22.017   6.028  -3.560  1.00  0.00     0.096 C
HETATM    7  C7  UNL     1      23.401   5.513  -4.082  1.00  0.00     0.036 C
HETATM    8  N1  UNL     1      21.546   4.968  -2.807  1.00  0.00    -0.405 N
ATOM      9  H1  UNL     1      22.178   4.239  -2.477  1.00  0.00     0.154 HD
HETATM   10  C8  UNL     1      20.087   4.918  -2.487  1.00  0.00     0.195 C
HETATM   11  C9  UNL     1      19.705   6.261  -2.340  1.00  0.00    -0.159 C
ENDROOT
TORSDOF 0
ENDMDL