MODEL 3
REMARK VINA RESULT: -4.008475437      1.051      1.471
REMARK  1 active torsions:
REMARK  status: ('A' for Active; 'I' for Inactive)
REMARK    1  A    between atoms: N1_1  and  C1_5
ROOT
HETATM    1  C1  UNL     1      21.075   5.901  -3.084  1.00  0.00     0.127 C
HETATM    2  C2  UNL     1      19.974   5.162  -2.395  1.00  0.00     0.039 C
HETATM    3  C3  UNL     1      18.860   5.988  -1.878  1.00  0.00     0.002 C
HETATM    4  C4  UNL     1      19.140   7.387  -1.517  1.00  0.00     0.001 C
HETATM    5  C5  UNL     1      20.468   7.927  -2.006  1.00  0.00     0.007 C
HETATM    6  C6  UNL     1      20.620   7.344  -3.361  1.00  0.00     0.021 C
HETATM    7  C7  UNL     1      21.700   7.848  -4.210  1.00  0.00     0.007 C
HETATM    8  C8  UNL     1      22.111   6.648  -5.042  1.00  0.00     0.003 C
HETATM    9  C9  UNL     1      21.350   5.458  -4.483  1.00  0.00     0.039 C
ENDROOT
BRANCH   1  10
HETATM   10  N1  UNL     1      22.311   5.884  -2.328  1.00  0.00    -0.070 N
ATOM     11  H13 UNL     1      22.186   5.417  -1.430  1.00  0.00     0.275 HD
ATOM     12  H12 UNL     1      22.990   5.249  -2.749  1.00  0.00     0.275 HD
ATOM     13  H11 UNL     1      22.707   6.816  -2.206  1.00  0.00     0.275 HD
ENDBRANCH   1  10
TORSDOF 1
ENDMDL