MODEL 4
REMARK VINA RESULT: -4.490659469      1.281      3.311
REMARK  0 active torsions:
REMARK  status: ('A' for Active; 'I' for Inactive)
ROOT
HETATM    1  C1  UNL     1      17.825   7.017  -1.726  1.00  0.00     0.000 C
HETATM    2  C2  UNL     1      17.867   5.604  -1.319  1.00  0.00     0.000 C
HETATM    3  C3  UNL     1      19.007   4.723  -1.594  1.00  0.00     0.002 C
HETATM    4  C4  UNL     1      19.699   4.729  -2.906  1.00  0.00     0.026 C
HETATM    5  C5  UNL     1      21.150   4.949  -2.959  1.00  0.00     0.167 C
HETATM    6  O1  UNL     1      21.635   6.233  -3.330  1.00  0.00    -0.391 OA
HETATM    7  C6  UNL     1      20.763   7.115  -2.823  1.00  0.00     0.167 C
HETATM    8  C7  UNL     1      20.906   8.537  -2.559  1.00  0.00     0.026 C
HETATM    9  C8  UNL     1      19.482   8.922  -2.100  1.00  0.00     0.002 C
HETATM   10  C9  UNL     1      18.814   7.976  -1.173  1.00  0.00     0.000 C
ENDROOT
TORSDOF 0
ENDMDL