MODEL 5
REMARK VINA RESULT: -3.532777228      1.448      2.772
REMARK  0 active torsions:
REMARK  status: ('A' for Active; 'I' for Inactive)
ROOT
HETATM    1  C1  UNL     1      23.825   7.876  -3.917  1.00  0.00     0.046 C
HETATM    2  C2  UNL     1      22.749   7.429  -2.975  1.00  0.00     0.058 C
HETATM    3  C3  UNL     1      23.460   6.841  -1.745  1.00  0.00     0.046 C
HETATM    4  O1  UNL     1      21.938   8.436  -2.516  1.00  0.00    -0.375 OA
HETATM    5  C4  UNL     1      20.648   8.200  -2.982  1.00  0.00     0.123 C
HETATM    6  C5  UNL     1      20.564   8.638  -4.395  1.00  0.00     0.032 C
HETATM    7  C6  UNL     1      20.896   7.631  -5.423  1.00  0.00     0.003 C
HETATM    8  C7  UNL     1      21.619   6.426  -4.981  1.00  0.00     0.008 C
HETATM    9  C8  UNL     1      21.888   6.328  -3.515  1.00  0.00     0.022 C
HETATM   10  C9  UNL     1      20.560   6.678  -2.822  1.00  0.00     0.039 C
ENDROOT
TORSDOF 0
ENDMDL