MODEL 2
REMARK VINA RESULT: -3.706797293      1.733      3.056
REMARK  1 active torsions:
REMARK  status: ('A' for Active; 'I' for Inactive)
REMARK    1  A    between atoms: C9_9  and  N1_10
ROOT
HETATM    1  C1  UNL     1      21.831   8.017  -6.565  1.00  0.00     0.012 C
HETATM    2  C2  UNL     1      21.089   7.536  -5.307  1.00  0.00     0.013 C
HETATM    3  C3  UNL     1      20.462   8.754  -4.706  1.00  0.00     0.006 C
HETATM    4  C4  UNL     1      20.002   8.614  -3.314  1.00  0.00     0.001 C
HETATM    5  C5  UNL     1      20.396   7.390  -2.591  1.00  0.00     0.011 C
HETATM    6  C6  UNL     1      21.657   6.737  -2.998  1.00  0.00    -0.019 C
HETATM    7  C7  UNL     1      21.444   5.218  -2.871  1.00  0.00     0.017 C
HETATM    8  C8  UNL     1      22.797   7.031  -2.012  1.00  0.00     0.017 C
HETATM    9  C9  UNL     1      22.137   7.022  -4.368  1.00  0.00     0.195 C
ENDROOT
BRANCH   9  10
HETATM   10  N1  UNL     1      23.250   7.983  -4.401  1.00  0.00    -0.074 N
ATOM     11  H13 UNL     1      23.083   8.768  -5.030  1.00  0.00     0.274 HD
ATOM     12  H12 UNL     1      23.339   8.523  -3.540  1.00  0.00     0.274 HD
ATOM     13  H11 UNL     1      24.092   7.455  -4.633  1.00  0.00     0.274 HD
ENDBRANCH   9  10
TORSDOF 1
ENDMDL