MODEL 4
REMARK VINA RESULT: -3.332627453      1.821      2.665
REMARK  0 active torsions:
REMARK  status: ('A' for Active; 'I' for Inactive)
ROOT
HETATM    1  C1  UNL     1      18.680   7.456  -0.798  1.00  0.00     0.015 C
HETATM    2  C2  UNL     1      19.125   7.106  -2.225  1.00  0.00     0.020 C
HETATM    3  C3  UNL     1      19.979   5.894  -2.234  1.00  0.00     0.010 C
HETATM    4  C4  UNL     1      20.825   5.881  -3.485  1.00  0.00     0.015 C
HETATM    5  C5  UNL     1      22.096   6.606  -3.199  1.00  0.00    -0.016 C
HETATM    6  C6  UNL     1      23.057   5.596  -2.561  1.00  0.00     0.020 C
HETATM    7  C7  UNL     1      22.780   7.111  -4.453  1.00  0.00     0.020 C
HETATM    8  C8  UNL     1      21.943   7.744  -2.244  1.00  0.00     0.069 C
HETATM    9  N1  UNL     1      20.976   8.706  -2.572  1.00  0.00    -0.381 N
ATOM     10  H1  UNL     1      21.221   9.696  -2.583  1.00  0.00     0.164 HD
HETATM   11  C9  UNL     1      19.673   8.303  -2.884  1.00  0.00     0.064 C
ENDROOT
TORSDOF 0
ENDMDL