MODEL 4
REMARK VINA RESULT: -3.975381570      0.983      3.145
REMARK  0 active torsions:
REMARK  status: ('A' for Active; 'I' for Inactive)
ROOT
HETATM    1  C1  UNL     1      19.744   9.146  -2.620  1.00  0.00     0.046 C
HETATM    2  C2  UNL     1      20.553   8.325  -3.639  1.00  0.00     0.064 C
HETATM    3  C3  UNL     1      20.126   8.792  -5.041  1.00  0.00     0.046 C
HETATM    4  C4  UNL     1      21.987   8.642  -3.394  1.00  0.00     0.121 C
HETATM    5  C5  UNL     1      22.561   7.739  -2.372  1.00  0.00     0.117 C
HETATM    6  N1  UNL     1      23.470   8.134  -1.557  1.00  0.00    -0.383 N
ATOM      7  H11 UNL     1      23.866   7.512  -0.852  1.00  0.00     0.157 HD
ATOM      8  H12 UNL     1      23.833   9.088  -1.584  1.00  0.00     0.157 HD
HETATM    9  O1  UNL     1      22.069   6.447  -2.336  1.00  0.00    -0.303 OA
HETATM   10  C6  UNL     1      21.062   6.067  -3.291  1.00  0.00     0.165 C
HETATM   11  C7  UNL     1      21.762   5.535  -4.522  1.00  0.00     0.079 C
HETATM   12  C8  UNL     1      20.316   4.873  -2.714  1.00  0.00     0.079 C
HETATM   13  O2  UNL     1      20.161   7.041  -3.528  1.00  0.00    -0.345 OA
ENDROOT
TORSDOF 0
ENDMDL