MODEL 4
REMARK VINA RESULT: -3.307892519      1.953      3.253
REMARK  0 active torsions:
REMARK  status: ('A' for Active; 'I' for Inactive)
ROOT
HETATM    1  C1  UNL     1      22.946   8.225  -6.361  1.00  0.00     0.048 C
HETATM    2  C2  UNL     1      21.797   9.088  -5.893  1.00  0.00     0.100 C
HETATM    3  C3  UNL     1      21.174   9.884  -6.988  1.00  0.00     0.048 C
HETATM    4  N1  UNL     1      22.105   9.853  -4.727  1.00  0.00    -0.078 NA
HETATM    5  O1  UNL     1      22.171   9.146  -3.655  1.00  0.00    -0.264 OA
HETATM    6  C4  UNL     1      21.044   8.411  -3.408  1.00  0.00     0.127 C
HETATM    7  C5  UNL     1      19.898   9.148  -2.828  1.00  0.00     0.060 C
HETATM    8  C6  UNL     1      21.384   7.215  -2.584  1.00  0.00     0.060 C
HETATM    9  S1  UNL     1      20.584   7.931  -5.125  1.00  0.00    -0.101 SA
ENDROOT
TORSDOF 0
ENDMDL