MODEL 4
REMARK VINA RESULT: -2.431000053      2.411      2.805
REMARK  0 active torsions:
REMARK  status: ('A' for Active; 'I' for Inactive)
ROOT
HETATM    1  C1  UNL     1      21.823   7.871  -2.226  1.00  0.00     0.026 C
HETATM    2  C2  UNL     1      22.253   6.424  -2.450  1.00  0.00     0.077 C
HETATM    3  S1  UNL     1      20.670   6.019  -3.506  1.00  0.00    -0.143 SA
HETATM    4  S2  UNL     1      18.942   5.746  -2.042  1.00  0.00    -0.035 SA
HETATM    5  S3  UNL     1      19.011   7.816  -1.463  1.00  0.00    -0.086 SA
HETATM    6  C3  UNL     1      19.512   8.545  -3.068  1.00  0.00     0.102 C
HETATM    7  C4  UNL     1      20.849   7.898  -3.376  1.00  0.00     0.059 C
ENDROOT
TORSDOF 0
ENDMDL