MODEL 4
REMARK VINA RESULT: -3.749094209      1.667      3.399
REMARK  1 active torsions:
REMARK  status: ('A' for Active; 'I' for Inactive)
REMARK    1  A    between atoms: C8_8  and  N1_9
ROOT
HETATM    1  C1  UNL     1      20.098   7.706  -2.814  1.00  0.00     0.018 C
HETATM    2  C2  UNL     1      21.560   7.363  -3.139  1.00  0.00    -0.001 C
HETATM    3  C3  UNL     1      22.340   7.834  -1.899  1.00  0.00     0.018 C
HETATM    4  C4  UNL     1      21.979   8.236  -4.260  1.00  0.00     0.012 C
HETATM    5  C5  UNL     1      21.736   7.692  -5.624  1.00  0.00     0.001 C
HETATM    6  C6  UNL     1      22.432   6.349  -5.694  1.00  0.00     0.004 C
HETATM    7  C7  UNL     1      21.932   5.391  -4.675  1.00  0.00     0.055 C
HETATM    8  C8  UNL     1      21.731   5.914  -3.313  1.00  0.00     0.217 C
HETATM    9  C9  UNL     1      20.546   5.237  -2.731  1.00  0.00     0.099 C
HETATM   10  N2  UNL     1      19.610   4.722  -2.286  1.00  0.00    -0.195 NA
ENDROOT
BRANCH   8  11
HETATM   11  N1  UNL     1      22.855   5.452  -2.481  1.00  0.00    -0.057 N
ATOM     12  H13 UNL     1      23.681   5.231  -3.036  1.00  0.00     0.276 HD
ATOM     13  H12 UNL     1      23.255   6.204  -1.919  1.00  0.00     0.276 HD
ATOM     14  H11 UNL     1      22.552   4.663  -1.911  1.00  0.00     0.276 HD
ENDBRANCH   8  11
TORSDOF 1
ENDMDL