MODEL 3
REMARK VINA RESULT: -3.324421421      2.041      2.533
REMARK  1 active torsions:
REMARK  status: ('A' for Active; 'I' for Inactive)
REMARK    1  A    between atoms: N1_8  and  O1_9
ROOT
HETATM    1  C1  UNL     1      18.423   7.810  -1.161  1.00  0.00     0.029 C
HETATM    2  C2  UNL     1      19.260   7.840  -2.446  1.00  0.00     0.093 C
HETATM    3  C3  UNL     1      19.880   9.182  -2.647  1.00  0.00     0.097 C
HETATM    4  S1  UNL     1      21.208   8.723  -3.830  1.00  0.00    -0.140 SA
HETATM    5  C4  UNL     1      21.265   6.964  -3.300  1.00  0.00     0.079 C
HETATM    6  C5  UNL     1      21.096   6.037  -4.452  1.00  0.00     0.046 C
HETATM    7  C6  UNL     1      22.639   6.817  -2.630  1.00  0.00     0.046 C
HETATM    8  N1  UNL     1      20.283   6.863  -2.285  1.00  0.00    -0.176 NA
ENDROOT
BRANCH   8   9
HETATM    9  O1  UNL     1      19.669   5.647  -2.269  1.00  0.00    -0.311 OA
ATOM     10  H1  UNL     1      19.071   5.650  -1.530  1.00  0.00     0.237 HD
ENDBRANCH   8   9
TORSDOF 1
ENDMDL