MODEL 3
REMARK VINA RESULT: -3.011459485      1.930      2.927
REMARK  0 active torsions:
REMARK  status: ('A' for Active; 'I' for Inactive)
ROOT
HETATM    1  C1  UNL     1      22.550   6.412  -2.306  1.00  0.00     0.022 C
HETATM    2  C2  UNL     1      21.224   6.793  -2.967  1.00  0.00     0.054 C
HETATM    3  C3  UNL     1      20.735   8.033  -2.306  1.00  0.00     0.016 C
HETATM    4  C4  UNL     1      19.236   8.215  -2.389  1.00  0.00     0.012 C
HETATM    5  C5  UNL     1      18.634   7.597  -1.143  1.00  0.00     0.086 C
HETATM    6  S1  UNL     1      18.455   5.811  -1.550  1.00  0.00    -0.097 SA
HETATM    7  S2  UNL     1      20.106   5.400  -2.861  1.00  0.00    -0.093 SA
ENDROOT
TORSDOF 0
ENDMDL