MODEL 2
REMARK VINA RESULT: -4.323235643      1.397      2.881
REMARK  1 active torsions:
REMARK  status: ('A' for Active; 'I' for Inactive)
REMARK    1  A    between atoms: N1_9  and  O1_11
ROOT
HETATM    1  C1  UNL     1      17.164   8.032  -1.762  1.00  0.00     0.016 C
HETATM    2  C2  UNL     1      18.465   7.601  -1.124  1.00  0.00     0.030 C
HETATM    3  C3  UNL     1      19.548   8.547  -1.605  1.00  0.00     0.019 C
HETATM    4  C4  UNL     1      20.286   7.829  -2.695  1.00  0.00    -0.042 C
HETATM    5  C5  UNL     1      21.779   8.117  -2.552  1.00  0.00     0.015 C
HETATM    6  C6  UNL     1      19.877   8.238  -4.071  1.00  0.00     0.015 C
HETATM    7  C7  UNL     1      20.001   6.350  -2.516  1.00  0.00     0.063 C
HETATM    8  C8  UNL     1      18.896   6.266  -1.532  1.00  0.00     0.014 C
HETATM    9  N1  UNL     1      18.396   5.164  -1.104  1.00  0.00    -0.277 N
ATOM     10  H1  UNL     1      17.635   5.210  -0.426  1.00  0.00     0.193 HD
ENDROOT
BRANCH   9  11
HETATM   11  O1  UNL     1      18.831   3.928  -1.512  1.00  0.00    -0.290 OA
ATOM     12  H1  UNL     1      19.369   3.359  -0.974  1.00  0.00     0.244 HD
ENDBRANCH   9  11
TORSDOF 1
ENDMDL