MODEL 1
REMARK VINA RESULT: -4.162129432      0.000      0.000
REMARK  0 active torsions:
REMARK  status: ('A' for Active; 'I' for Inactive)
ROOT
HETATM    1  C1  UNL     1      21.859   9.805  -8.080  1.00  0.00     0.172 C
HETATM    2  N1  UNL     1      21.469   9.840  -6.667  1.00  0.00    -0.318 N
HETATM    3  C2  UNL     1      22.457   9.829  -5.625  1.00  0.00     0.146 C
HETATM    4  C3  UNL     1      22.097   9.008  -4.436  1.00  0.00     0.054 C
HETATM    5  C4  UNL     1      20.659   8.688  -4.289  1.00  0.00     0.048 C
HETATM    6  C5  UNL     1      20.503   7.165  -4.388  1.00  0.00     0.032 C
HETATM    7  C6  UNL     1      20.883   6.772  -2.959  1.00  0.00     0.002 C
HETATM    8  C7  UNL     1      19.993   7.716  -2.169  1.00  0.00     0.002 C
HETATM    9  C8  UNL     1      20.168   9.023  -2.885  1.00  0.00     0.032 C
HETATM   10  N2  UNL     1      19.790   9.357  -5.212  1.00  0.00    -0.312 N
ATOM     11  H2  UNL     1      18.803   9.405  -4.961  1.00  0.00     0.182 HD
HETATM   12  N3  UNL     1      20.123   9.887  -6.292  1.00  0.00    -0.249 N
ATOM     13  H3  UNL     1      19.430  10.342  -6.887  1.00  0.00     0.207 HD
ENDROOT
TORSDOF 0
ENDMDL