MODEL 5
REMARK VINA RESULT: -2.933735123      2.735      3.191
REMARK  0 active torsions:
REMARK  status: ('A' for Active; 'I' for Inactive)
ROOT
HETATM    1  N1  UNL     1      22.596   8.832  -3.414  1.00  0.00    -0.197 NA
HETATM    2  C1  UNL     1      21.723   8.369  -2.826  1.00  0.00     0.066 C
HETATM    3  C2  UNL     1      20.629   7.768  -2.103  1.00  0.00     0.118 C
HETATM    4  C3  UNL     1      19.307   8.384  -2.490  1.00  0.00     0.031 C
HETATM    5  C4  UNL     1      18.341   7.723  -1.495  1.00  0.00     0.076 C
HETATM    6  S1  UNL     1      18.784   5.973  -1.847  1.00  0.00    -0.151 SA
HETATM    7  C5  UNL     1      20.517   6.283  -2.381  1.00  0.00     0.137 C
HETATM    8  S2  UNL     1      20.762   5.868  -4.104  1.00  0.00    -0.080 SA
ENDROOT
TORSDOF 0
ENDMDL