MODEL 2
REMARK VINA RESULT: -3.693478312      1.797      1.872
REMARK  2 active torsions:
REMARK  status: ('A' for Active; 'I' for Inactive)
REMARK    1  A    between atoms: C2_2  and  N1_5
REMARK       I    between atoms: N1_5  and  C5_7
REMARK    2  A    between atoms: C5_7  and  S1_9
ROOT
HETATM    1  S1  UNL     1      20.410   4.977  -2.880  1.00  0.00     0.050 SA
HETATM    2  C6  UNL     1      18.908   4.919  -1.962  1.00  0.00     0.143 C
HETATM    3  N2  UNL     1      17.919   4.878  -1.356  1.00  0.00    -0.184 NA
ENDROOT
BRANCH   1   4
HETATM    4  C5  UNL     1      20.720   6.639  -3.377  1.00  0.00     0.294 C
HETATM    5  N1  UNL     1      21.085   6.916  -4.692  1.00  0.00    -0.343 N
ATOM      6  H1  UNL     1      21.161   6.125  -5.332  1.00  0.00     0.164 HD
HETATM    7  O1  UNL     1      20.612   7.561  -2.550  1.00  0.00    -0.259 OA
BRANCH   5   8
HETATM    8  C2  UNL     1      21.366   8.227  -5.229  1.00  0.00     0.022 C
HETATM    9  C1  UNL     1      22.480   8.936  -4.518  1.00  0.00     0.037 C
HETATM   10  C3  UNL     1      21.833   7.997  -6.666  1.00  0.00     0.037 C
HETATM   11  C4  UNL     1      20.139   9.067  -5.294  1.00  0.00     0.037 C
ENDBRANCH   5   8
ENDBRANCH   1   4
TORSDOF 2
ENDMDL