MODEL 2
REMARK VINA RESULT: -3.948917802      1.444      2.730
REMARK  1 active torsions:
REMARK  status: ('A' for Active; 'I' for Inactive)
REMARK    1  A    between atoms: N1_2  and  C2_4
ROOT
HETATM    1  C2  UNL     1      19.877   8.523  -3.201  1.00  0.00     0.090 C
HETATM    2  C3  UNL     1      20.628   7.239  -3.100  1.00  0.00     0.031 C
HETATM    3  C4  UNL     1      21.818   7.122  -4.019  1.00  0.00    -0.003 C
HETATM    4  C5  UNL     1      21.501   7.311  -5.455  1.00  0.00     0.005 C
HETATM    5  C6  UNL     1      20.828   8.555  -5.850  1.00  0.00     0.002 C
HETATM    6  C7  UNL     1      21.096   9.759  -5.036  1.00  0.00     0.017 C
HETATM    7  C8  UNL     1      20.763   9.680  -3.598  1.00  0.00     0.069 C
HETATM    8  S1  UNL     1      22.356   9.405  -2.718  1.00  0.00    -0.162 SA
HETATM    9  C9  UNL     1      23.021   7.901  -3.534  1.00  0.00     0.079 C
ENDROOT
BRANCH   1  10
HETATM   10  N1  UNL     1      19.172   8.759  -2.006  1.00  0.00    -0.420 N
HETATM   11  C1  UNL     1      18.702   7.683  -1.241  1.00  0.00     0.140 C
ATOM     12  H1  UNL     1      19.002   9.716  -1.696  1.00  0.00     0.153 HD
ENDBRANCH   1  10
TORSDOF 1
ENDMDL