MODEL 1
REMARK VINA RESULT: -4.858893497      0.000      0.000
REMARK  1 active torsions:
REMARK  status: ('A' for Active; 'I' for Inactive)
REMARK    1  A    between atoms: C4_4  and  C5_5
ROOT
HETATM    1  C5  UNL     1      20.770   7.779  -3.117  1.00  0.00     0.151 C
HETATM    2  C6  UNL     1      19.939   9.022  -3.344  1.00  0.00     0.264 C
HETATM    3  N1  UNL     1      20.593   9.835  -4.371  1.00  0.00    -0.071 N
ATOM      4  H11 UNL     1      21.514  10.172  -4.091  1.00  0.00     0.277 HD
ATOM      5  H12 UNL     1      20.156  10.747  -4.500  1.00  0.00     0.277 HD
HETATM    6  C7  UNL     1      20.621   9.037  -5.583  1.00  0.00     0.258 C
HETATM    7  C8  UNL     1      21.485   7.819  -5.256  1.00  0.00     0.195 C
HETATM    8  O1  UNL     1      20.778   7.070  -4.317  1.00  0.00    -0.382 OA
ENDROOT
BRANCH   1   9
HETATM    9  C4  UNL     1      20.136   6.986  -2.004  1.00  0.00     0.016 C
HETATM   10  C3  UNL     1      19.011   7.682  -1.333  1.00  0.00     0.007 C
HETATM   11  C2  UNL     1      17.634   7.271  -1.811  1.00  0.00     0.000 C
HETATM   12  C1  UNL     1      17.421   5.779  -1.667  1.00  0.00     0.000 C
HETATM   13  C10 UNL     1      18.767   5.085  -1.397  1.00  0.00     0.000 C
HETATM   14  C9  UNL     1      19.686   5.641  -2.496  1.00  0.00     0.007 C
ENDBRANCH   1   9
TORSDOF 1
ENDMDL