MODEL 1
REMARK VINA RESULT: -3.639230788      0.000      0.000
REMARK  1 active torsions:
REMARK  status: ('A' for Active; 'I' for Inactive)
REMARK    1  A    between atoms: S2_2  and  C1_3
ROOT
HETATM    1  C1  UNL     1      20.254   7.556  -2.888  1.00  0.00     0.091 C
HETATM    2  C2  UNL     1      21.659   7.584  -2.359  1.00  0.00     0.288 C
HETATM    3  N1  UNL     1      22.390   8.619  -3.086  1.00  0.00     0.089 N
HETATM    4  C3  UNL     1      21.962   9.941  -2.652  1.00  0.00     0.273 C
HETATM    5  C4  UNL     1      20.465  10.048  -2.781  1.00  0.00     0.036 C
HETATM    6  C5  UNL     1      19.949   8.864  -3.587  1.00  0.00     0.005 C
HETATM    7  C6  UNL     1      20.734   8.849  -4.884  1.00  0.00     0.036 C
HETATM    8  C7  UNL     1      22.161   8.471  -4.522  1.00  0.00     0.273 C
ENDROOT
BRANCH   1   9
HETATM    9  S2  UNL     1      19.006   7.313  -1.618  1.00  0.00    -0.078 SA
HETATM   10  S1  UNL     1      18.268   5.335  -1.543  1.00  0.00    -0.013 SA
ENDBRANCH   1   9
TORSDOF 1
ENDMDL