MODEL 4
REMARK VINA RESULT: -4.094633830      3.108      5.639
REMARK  3 active torsions:
REMARK  status: ('A' for Active; 'I' for Inactive)
REMARK    1  A    between atoms: C2_2  and  C3_3
REMARK    2  A    between atoms: C7_7  and  O1_8
REMARK    3  A    between atoms: C7_7  and  C8_10
ROOT
HETATM    1  C8  UNL     1      21.682   8.644  -6.320  1.00  0.00    -0.052 C
HETATM    2  C9  UNL     1      21.769   9.017  -7.474  1.00  0.00     0.016 C
HETATM    3  C10 UNL     1      21.869   9.451  -8.821  1.00  0.00     0.152 C
HETATM    4  N1  UNL     1      21.935   9.800  -9.923  1.00  0.00    -0.182 NA
ENDROOT
BRANCH   1   5
HETATM    5  C7  UNL     1      21.585   8.204  -4.925  1.00  0.00     0.122 C
HETATM    6  C6  UNL     1      22.952   8.277  -4.296  1.00  0.00     0.051 C
HETATM    7  C5  UNL     1      22.962   8.042  -2.835  1.00  0.00     0.004 C
HETATM    8  C4  UNL     1      21.641   8.014  -2.158  1.00  0.00     0.009 C
HETATM    9  C3  UNL     1      20.583   8.891  -2.732  1.00  0.00     0.011 C
HETATM   10  C11 UNL     1      20.724   9.197  -4.186  1.00  0.00     0.059 C
BRANCH   9  11
HETATM   11  C2  UNL     1      19.245   8.261  -2.549  1.00  0.00    -0.032 C
HETATM   12  C1  UNL     1      18.881   7.707  -1.412  1.00  0.00     0.007 C
ENDBRANCH   9  11
BRANCH   5  13
HETATM   13  O1  UNL     1      21.115   6.918  -4.863  1.00  0.00    -0.378 OA
ATOM     14  H1  UNL     1      21.810   6.311  -5.089  1.00  0.00     0.211 HD
ENDBRANCH   5  13
ENDBRANCH   1   5
TORSDOF 3
ENDMDL