MODEL 2
REMARK VINA RESULT: -4.217309245      1.800      2.556
REMARK  2 active torsions:
REMARK  status: ('A' for Active; 'I' for Inactive)
REMARK    1  A    between atoms: O1_1  and  C1_3
REMARK    2  A    between atoms: C6_8  and  N1_9
ROOT
HETATM    1  C1  UNL     1      19.025   5.309  -2.337  1.00  0.00     0.151 C
HETATM    2  C2  UNL     1      17.941   6.245  -1.905  1.00  0.00     0.034 C
HETATM    3  C3  UNL     1      18.492   7.389  -1.082  1.00  0.00     0.003 C
HETATM    4  C4  UNL     1      19.444   8.151  -1.977  1.00  0.00     0.002 C
HETATM    5  C5  UNL     1      20.586   7.284  -2.379  1.00  0.00     0.038 C
HETATM    6  C6  UNL     1      20.184   5.974  -3.003  1.00  0.00     0.251 C
ENDROOT
BRANCH   6   7
HETATM    7  N1  UNL     1      21.355   5.121  -2.947  1.00  0.00     0.095 N
HETATM    8  C7  UNL     1      21.834   4.728  -4.257  1.00  0.00     0.273 C
HETATM    9  C8  UNL     1      23.213   4.180  -3.857  1.00  0.00     0.032 C
HETATM   10  C9  UNL     1      23.723   5.368  -3.037  1.00  0.00     0.032 C
HETATM   11  C10 UNL     1      22.451   5.941  -2.436  1.00  0.00     0.273 C
ENDBRANCH   6   7
BRANCH   1  12
HETATM   12  O1  UNL     1      19.397   4.474  -1.283  1.00  0.00    -0.393 OA
ATOM     13  H1  UNL     1      20.283   4.669  -1.002  1.00  0.00     0.210 HD
ENDBRANCH   1  12
TORSDOF 2
ENDMDL