MODEL 4
REMARK VINA RESULT: -4.574547123      1.102      2.813
REMARK  1 active torsions:
REMARK  status: ('A' for Active; 'I' for Inactive)
REMARK    1  A    between atoms: N1_1  and  C1_5
ROOT
HETATM    1  C1  UNL     1      22.490   7.012  -3.731  1.00  0.00     0.124 C
HETATM    2  C2  UNL     1      22.010   5.831  -4.562  1.00  0.00     0.043 C
HETATM    3  C3  UNL     1      21.954   5.045  -3.269  1.00  0.00    -0.009 C
HETATM    4  C4  UNL     1      20.580   4.941  -2.707  1.00  0.00     0.010 C
HETATM    5  C5  UNL     1      19.776   6.169  -2.699  1.00  0.00    -0.010 C
HETATM    6  C6  UNL     1      18.699   6.123  -1.614  1.00  0.00     0.005 C
HETATM    7  C7  UNL     1      18.314   7.564  -1.434  1.00  0.00     0.001 C
HETATM    8  C8  UNL     1      19.279   8.399  -2.220  1.00  0.00     0.005 C
HETATM    9  C9  UNL     1      20.469   7.434  -2.350  1.00  0.00    -0.008 C
HETATM   10  C10 UNL     1      21.334   7.901  -3.476  1.00  0.00     0.043 C
HETATM   11  C11 UNL     1      22.831   6.056  -2.641  1.00  0.00     0.043 C
ENDROOT
BRANCH   1  12
HETATM   12  N1  UNL     1      23.635   7.696  -4.266  1.00  0.00    -0.070 N
ATOM     13  H13 UNL     1      23.475   7.943  -5.243  1.00  0.00     0.275 HD
ATOM     14  H12 UNL     1      23.712   8.628  -3.860  1.00  0.00     0.275 HD
ATOM     15  H11 UNL     1      24.516   7.193  -4.167  1.00  0.00     0.275 HD
ENDBRANCH   1  12
TORSDOF 1
ENDMDL