MODEL 3
REMARK VINA RESULT: -4.558493141      1.513      4.424
REMARK  1 active torsions:
REMARK  status: ('A' for Active; 'I' for Inactive)
REMARK    1  A    between atoms: C4_4  and  C5_5
ROOT
HETATM    1  C1  UNL     1      18.883   7.610  -1.670  1.00  0.00     0.043 C
HETATM    2  C2  UNL     1      20.226   7.989  -2.302  1.00  0.00     0.220 C
HETATM    3  C3  UNL     1      20.031   9.145  -3.265  1.00  0.00     0.047 C
HETATM    4  C4  UNL     1      20.939   8.837  -4.461  1.00  0.00     0.059 C
HETATM    5  C6  UNL     1      21.480   7.495  -4.186  1.00  0.00     0.232 C
HETATM    6  C7  UNL     1      21.377   6.512  -5.312  1.00  0.00     0.036 C
HETATM    7  C8  UNL     1      22.089   5.254  -4.840  1.00  0.00     0.004 C
HETATM    8  C9  UNL     1      21.688   4.812  -3.487  1.00  0.00     0.030 C
HETATM    9  C10 UNL     1      21.438   5.916  -2.503  1.00  0.00     0.273 C
HETATM   10  N2  UNL     1      20.635   6.917  -3.128  1.00  0.00     0.098 N
ENDROOT
BRANCH   4  11
HETATM   11  C5  UNL     1      20.187   8.976  -5.707  1.00  0.00     0.059 C
HETATM   12  N1  UNL     1      20.514   9.887  -6.536  1.00  0.00    -0.411 N
ATOM     13  H12 UNL     1      21.296  10.505  -6.317  1.00  0.00     0.155 HD
ATOM     14  H11 UNL     1      19.990   9.984  -7.407  1.00  0.00     0.155 HD
ENDBRANCH   4  11
TORSDOF 1
ENDMDL