MODEL 1
REMARK VINA RESULT: -4.504279836      0.000      0.000
REMARK  2 active torsions:
REMARK  status: ('A' for Active; 'I' for Inactive)
REMARK    1  A    between atoms: C10_11  and  C11_12
REMARK    2  A    between atoms: C11_12  and  O1_13
ROOT
HETATM    1  C1  UNL     1      19.524   8.834  -2.569  1.00  0.00     0.032 C
HETATM    2  C2  UNL     1      20.887   8.587  -3.182  1.00  0.00     0.055 C
HETATM    3  C3  UNL     1      21.728   9.745  -2.927  1.00  0.00     0.069 C
HETATM    4  N1  UNL     1      22.384  10.672  -2.710  1.00  0.00    -0.196 NA
HETATM    5  C4  UNL     1      21.495   7.392  -2.436  1.00  0.00     0.008 C
HETATM    6  C5  UNL     1      22.970   7.392  -2.784  1.00  0.00     0.007 C
HETATM    7  C6  UNL     1      23.187   7.524  -4.267  1.00  0.00     0.005 C
HETATM    8  C7  UNL     1      21.862   7.143  -4.941  1.00  0.00    -0.007 C
HETATM    9  C8  UNL     1      21.474   5.814  -4.307  1.00  0.00     0.005 C
HETATM   10  C9  UNL     1      20.799   6.153  -2.984  1.00  0.00     0.007 C
HETATM   11  C10 UNL     1      20.830   8.205  -4.620  1.00  0.00     0.036 C
ENDROOT
BRANCH  11  12
HETATM   12  C11 UNL     1      20.961   9.376  -5.560  1.00  0.00     0.170 C
BRANCH  12  13
HETATM   13  O1  UNL     1      19.811   9.488  -6.342  1.00  0.00    -0.400 OA
ATOM     14  H1  UNL     1      19.949  10.128  -7.030  1.00  0.00     0.209 HD
ENDBRANCH  12  13
ENDBRANCH  11  12
TORSDOF 2
ENDMDL