MODEL 2
REMARK VINA RESULT: -4.450669518      1.275      1.456
REMARK  2 active torsions:
REMARK  status: ('A' for Active; 'I' for Inactive)
REMARK    1  A    between atoms: C7_8  and  C8_9
REMARK    2  A    between atoms: C8_9  and  O2_10
ROOT
HETATM    1  C1  UNL     1      18.092   5.407  -1.653  1.00  0.00     0.010 C
HETATM    2  C2  UNL     1      19.494   5.970  -1.746  1.00  0.00    -0.015 C
HETATM    3  C3  UNL     1      20.284   5.156  -2.739  1.00  0.00     0.009 C
HETATM    4  C4  UNL     1      21.689   5.660  -2.887  1.00  0.00    -0.009 C
HETATM    5  C5  UNL     1      21.996   5.722  -4.385  1.00  0.00     0.031 C
HETATM    6  C6  UNL     1      21.395   6.939  -4.990  1.00  0.00     0.169 C
HETATM    7  O1  UNL     1      20.342   7.482  -4.297  1.00  0.00    -0.378 OA
HETATM    8  C7  UNL     1      20.599   7.828  -3.005  1.00  0.00     0.082 C
HETATM    9  C9  UNL     1      19.398   7.421  -2.161  1.00  0.00     0.044 C
HETATM   10  C10 UNL     1      21.797   7.118  -2.421  1.00  0.00     0.045 C
ENDROOT
BRANCH   8  11
HETATM   11  C8  UNL     1      20.780   9.337  -2.827  1.00  0.00     0.202 C
BRANCH  11  12
HETATM   12  O2  UNL     1      19.587   9.943  -2.468  1.00  0.00    -0.398 OA
ATOM     13  H2  UNL     1      19.365  10.644  -3.070  1.00  0.00     0.209 HD
ENDBRANCH  11  12
ENDBRANCH   8  11
TORSDOF 2
ENDMDL