MODEL 5
REMARK VINA RESULT: -4.541504174      1.922      4.862
REMARK  3 active torsions:
REMARK  status: ('A' for Active; 'I' for Inactive)
REMARK    1  A    between atoms: C3_3  and  C4_4
REMARK    2  A    between atoms: C10_11  and  C11_12
REMARK    3  A    between atoms: C11_12  and  O2_13
ROOT
HETATM    1  C1  UNL     1      23.570  12.950  -4.507  1.00  0.00     0.096 C
HETATM    2  C2  UNL     1      22.728  12.066  -4.957  1.00  0.00    -0.187 C
HETATM    3  C3  UNL     1      21.919  11.117  -5.329  1.00  0.00     0.084 C
ENDROOT
BRANCH   3   4
HETATM    4  C4  UNL     1      21.963   9.865  -4.606  1.00  0.00     0.004 C
HETATM    5  C5  UNL     1      21.018   8.801  -5.104  1.00  0.00     0.038 C
HETATM    6  C6  UNL     1      20.780   7.873  -3.927  1.00  0.00     0.128 C
HETATM    7  O1  UNL     1      21.921   7.628  -3.195  1.00  0.00    -0.385 OA
HETATM    8  C10 UNL     1      19.756   8.587  -3.045  1.00  0.00     0.039 C
HETATM    9  C7  UNL     1      22.438   8.705  -2.540  1.00  0.00     0.173 C
HETATM   10  C8  UNL     1      21.797   9.965  -3.124  1.00  0.00     0.015 C
HETATM   11  C9  UNL     1      20.343   9.913  -2.687  1.00  0.00     0.016 C
BRANCH   8  12
HETATM   12  C11 UNL     1      19.463   7.709  -1.863  1.00  0.00     0.171 C
BRANCH  12  13
HETATM   13  O2  UNL     1      18.328   8.097  -1.188  1.00  0.00    -0.400 OA
ATOM     14  H2  UNL     1      17.608   8.299  -1.774  1.00  0.00     0.209 HD
ENDBRANCH  12  13
ENDBRANCH   8  12
ENDBRANCH   3   4
TORSDOF 3
ENDMDL