MODEL 4
REMARK VINA RESULT: -3.848910618      1.529      2.239
REMARK  2 active torsions:
REMARK  status: ('A' for Active; 'I' for Inactive)
REMARK    1  A    between atoms: C2_2  and  C4_4
REMARK    2  A    between atoms: C8_8  and  N1_9
ROOT
HETATM    1  C4  UNL     1      10.457  16.057  21.742  1.00  0.00     0.019 C
HETATM    2  C5  UNL     1      11.218  17.103  20.961  1.00  0.00     0.007 C
HETATM    3  C6  UNL     1      11.100  16.758  19.510  1.00  0.00     0.002 C
HETATM    4  C7  UNL     1      10.695  15.319  19.441  1.00  0.00     0.033 C
HETATM    5  C8  UNL     1      10.481  14.874  20.882  1.00  0.00     0.188 C
ENDROOT
BRANCH   5   6
HETATM    6  N1  UNL     1       9.370  13.992  20.946  1.00  0.00    -0.075 N
ATOM      7  H13 UNL     1       9.707  13.032  21.026  1.00  0.00     0.274 HD
ATOM      8  H12 UNL     1       8.901  14.106  21.844  1.00  0.00     0.274 HD
ATOM      9  H11 UNL     1       8.681  14.046  20.197  1.00  0.00     0.274 HD
ENDBRANCH   5   6
BRANCH   1  10
HETATM   10  C2  UNL     1       9.121  16.613  22.114  1.00  0.00    -0.017 C
HETATM   11  C1  UNL     1       8.628  16.163  23.460  1.00  0.00     0.010 C
HETATM   12  C3  UNL     1       9.014  18.107  21.947  1.00  0.00     0.010 C
ENDBRANCH   1  10
TORSDOF 2
ENDMDL