MODEL 3
REMARK VINA RESULT: -3.564435530      1.863      2.873
REMARK  1 active torsions:
REMARK  status: ('A' for Active; 'I' for Inactive)
REMARK    1  A    between atoms: N1_1  and  C1_5
ROOT
HETATM    1  C1  UNL     1      10.042  15.235  20.784  1.00  0.00     0.188 C
HETATM    2  C2  UNL     1       9.096  14.757  21.856  1.00  0.00     0.037 C
HETATM    3  C3  UNL     1       8.875  15.843  22.863  1.00  0.00    -0.013 C
HETATM    4  C4  UNL     1      10.139  15.901  23.733  1.00  0.00     0.005 C
HETATM    5  C5  UNL     1      11.296  16.074  22.790  1.00  0.00     0.007 C
HETATM    6  C6  UNL     1      10.859  16.357  21.370  1.00  0.00     0.016 C
HETATM    7  C7  UNL     1       9.908  17.564  21.351  1.00  0.00     0.007 C
HETATM    8  C8  UNL     1       8.754  17.215  22.244  1.00  0.00     0.005 C
ENDROOT
BRANCH   1   9
HETATM    9  N1  UNL     1      10.822  14.196  20.192  1.00  0.00    -0.075 N
ATOM     10  H13 UNL     1      11.775  14.517  20.019  1.00  0.00     0.274 HD
ATOM     11  H12 UNL     1      11.009  13.458  20.872  1.00  0.00     0.274 HD
ATOM     12  H11 UNL     1      10.416  13.804  19.342  1.00  0.00     0.274 HD
ENDBRANCH   1   9
TORSDOF 1
ENDMDL