MODEL 3
REMARK VINA RESULT: -3.919578460      1.479      3.050
REMARK  1 active torsions:
REMARK  status: ('A' for Active; 'I' for Inactive)
REMARK    1  A    between atoms: C8_8  and  N1_9
ROOT
HETATM    1  C1  UNL     1      11.160  15.916  22.811  1.00  0.00     0.017 C
HETATM    2  C2  UNL     1      10.318  15.848  21.527  1.00  0.00    -0.020 C
HETATM    3  C3  UNL     1       8.864  15.963  22.011  1.00  0.00     0.017 C
HETATM    4  C4  UNL     1      10.493  14.476  20.989  1.00  0.00     0.011 C
HETATM    5  C5  UNL     1      10.226  14.328  19.526  1.00  0.00     0.001 C
HETATM    6  C6  UNL     1      11.185  15.301  18.823  1.00  0.00     0.002 C
HETATM    7  C7  UNL     1      10.715  16.672  19.179  1.00  0.00     0.033 C
HETATM    8  C8  UNL     1      10.660  16.966  20.631  1.00  0.00     0.191 C
ENDROOT
BRANCH   8   9
HETATM    9  N1  UNL     1      11.925  17.624  20.994  1.00  0.00    -0.074 N
ATOM     10  H13 UNL     1      12.495  17.800  20.167  1.00  0.00     0.274 HD
ATOM     11  H12 UNL     1      11.764  18.585  21.293  1.00  0.00     0.274 HD
ATOM     12  H11 UNL     1      12.453  17.107  21.697  1.00  0.00     0.274 HD
ENDBRANCH   8   9
TORSDOF 1
ENDMDL