MODEL 5
REMARK VINA RESULT: -4.244771769      2.063      3.181
REMARK  1 active torsions:
REMARK  status: ('A' for Active; 'I' for Inactive)
REMARK    1  A    between atoms: N1_1  and  C1_5
ROOT
HETATM    1  C1  UNL     1       9.713  14.491  20.140  1.00  0.00     0.184 C
HETATM    2  C2  UNL     1       9.376  14.361  21.558  1.00  0.00     0.044 C
HETATM    3  C3  UNL     1       8.935  15.668  22.300  1.00  0.00     0.082 C
HETATM    4  C4  UNL     1       9.757  16.666  21.751  1.00  0.00    -0.183 C
HETATM    5  C5  UNL     1      10.320  17.910  21.425  1.00  0.00     0.080 C
HETATM    6  C6  UNL     1      11.360  17.582  20.302  1.00  0.00     0.011 C
HETATM    7  C7  UNL     1      10.976  16.527  19.354  1.00  0.00     0.003 C
HETATM    8  C8  UNL     1      11.052  15.062  19.693  1.00  0.00     0.033 C
ENDROOT
BRANCH   1   9
HETATM    9  N1  UNL     1       9.646  13.100  19.621  1.00  0.00    -0.075 N
ATOM     10  H13 UNL     1       8.699  12.732  19.529  1.00  0.00     0.274 HD
ATOM     11  H12 UNL     1       9.898  13.007  18.637  1.00  0.00     0.274 HD
ATOM     12  H11 UNL     1      10.241  12.568  20.257  1.00  0.00     0.274 HD
ENDBRANCH   1   9
TORSDOF 1
ENDMDL