MODEL 2
REMARK VINA RESULT: -3.394136451      1.671      3.506
REMARK  1 active torsions:
REMARK  status: ('A' for Active; 'I' for Inactive)
REMARK    1  A    between atoms: C6_6  and  N1_7
ROOT
HETATM    1  C1  UNL     1      11.412  16.171  22.667  1.00  0.00     0.010 C
HETATM    2  C2  UNL     1      10.118  16.112  21.848  1.00  0.00    -0.019 C
HETATM    3  C3  UNL     1      10.245  16.921  20.583  1.00  0.00     0.004 C
HETATM    4  C4  UNL     1      11.355  16.493  19.691  1.00  0.00     0.002 C
HETATM    5  C5  UNL     1      10.752  15.597  18.603  1.00  0.00     0.033 C
HETATM    6  C6  UNL     1      10.442  14.279  19.288  1.00  0.00     0.183 C
HETATM    7  C7  UNL     1       9.303  14.365  20.232  1.00  0.00     0.033 C
HETATM    8  C8  UNL     1       9.653  14.716  21.638  1.00  0.00     0.006 C
ENDROOT
BRANCH   6   9
HETATM    9  N1  UNL     1      11.640  13.749  19.859  1.00  0.00    -0.075 N
ATOM     10  H13 UNL     1      11.484  13.355  20.787  1.00  0.00     0.274 HD
ATOM     11  H12 UNL     1      11.948  12.897  19.390  1.00  0.00     0.274 HD
ATOM     12  H11 UNL     1      12.361  14.471  19.861  1.00  0.00     0.274 HD
ENDBRANCH   6   9
TORSDOF 1
ENDMDL