MODEL 5
REMARK VINA RESULT: -3.669909769      1.124      2.441
REMARK  1 active torsions:
REMARK  status: ('A' for Active; 'I' for Inactive)
REMARK    1  A    between atoms: C2_2  and  N1_3
ROOT
HETATM    1  C1  UNL     1       9.825  17.597  19.912  1.00  0.00     0.046 C
HETATM    2  C2  UNL     1      10.947  16.667  20.382  1.00  0.00     0.120 C
HETATM    3  C3  UNL     1      10.499  15.775  21.451  1.00  0.00     0.038 C
HETATM    4  C4  UNL     1       9.917  14.476  21.138  1.00  0.00     0.002 C
HETATM    5  C5  UNL     1      10.465  13.712  19.984  1.00  0.00     0.000 C
HETATM    6  C6  UNL     1       9.859  14.260  18.717  1.00  0.00     0.000 C
HETATM    7  C7  UNL     1      10.581  15.456  18.212  1.00  0.00     0.002 C
HETATM    8  C8  UNL     1      11.555  16.054  19.174  1.00  0.00     0.038 C
ENDROOT
BRANCH   2   9
HETATM    9  N1  UNL     1      11.979  17.564  20.922  1.00  0.00    -0.071 N
ATOM     10  H13 UNL     1      11.745  18.554  20.853  1.00  0.00     0.275 HD
ATOM     11  H12 UNL     1      12.062  17.534  21.938  1.00  0.00     0.275 HD
ATOM     12  H11 UNL     1      12.834  17.305  20.430  1.00  0.00     0.275 HD
ENDBRANCH   2   9
TORSDOF 1
ENDMDL