MODEL 1
REMARK VINA RESULT: -4.941420010      0.000      0.000
REMARK  1 active torsions:
REMARK  status: ('A' for Active; 'I' for Inactive)
REMARK    1  A    between atoms: C8_8  and  N1_9
ROOT
HETATM    1  C1  UNL     1       9.919  13.915  19.336  1.00  0.00     0.011 C
HETATM    2  C2  UNL     1      10.601  14.971  20.171  1.00  0.00    -0.008 C
HETATM    3  C3  UNL     1      10.993  16.067  19.208  1.00  0.00     0.005 C
HETATM    4  C4  UNL     1      11.033  17.259  20.077  1.00  0.00     0.001 C
HETATM    5  C5  UNL     1      10.780  16.664  21.473  1.00  0.00     0.012 C
HETATM    6  C6  UNL     1       9.893  15.539  21.285  1.00  0.00    -0.013 A
HETATM    7  C7  UNL     1       9.375  14.330  21.905  1.00  0.00     0.039 A
HETATM    8  C8  UNL     1       9.110  15.527  22.473  1.00  0.00     0.108 A
ENDROOT
BRANCH   8   9
HETATM    9  N1  UNL     1       7.852  16.278  22.384  1.00  0.00    -0.337 N
HETATM   10  N2  UNL     1       7.249  16.671  23.368  1.00  0.00    -0.349 N
ATOM     11  H22 UNL     1       7.648  16.460  24.282  1.00  0.00     0.176 HD
ATOM     12  H21 UNL     1       6.375  17.193  23.307  1.00  0.00     0.176 HD
ATOM     13  H1  UNL     1       7.468  16.481  21.461  1.00  0.00     0.180 HD
ENDBRANCH   8   9
TORSDOF 1
ENDMDL