MODEL 1
REMARK VINA RESULT: -3.933537126      0.000      0.000
REMARK  1 active torsions:
REMARK  status: ('A' for Active; 'I' for Inactive)
REMARK    1  A    between atoms: C8_8  and  N1_9
ROOT
HETATM    1  C1  UNL     1       9.310  13.654  17.788  1.00  0.00     0.012 C
HETATM    2  C2  UNL     1       9.645  14.560  18.922  1.00  0.00     0.012 C
HETATM    3  C3  UNL     1      10.157  13.856  20.144  1.00  0.00     0.006 C
HETATM    4  C4  UNL     1       9.659  14.595  21.349  1.00  0.00     0.000 C
HETATM    5  C5  UNL     1      10.526  15.688  21.822  1.00  0.00     0.000 C
HETATM    6  C6  UNL     1      11.321  16.412  20.811  1.00  0.00     0.002 C
HETATM    7  C7  UNL     1      10.628  16.702  19.526  1.00  0.00     0.033 C
HETATM    8  C8  UNL     1      10.703  15.583  18.521  1.00  0.00     0.187 C
ENDROOT
BRANCH   8   9
HETATM    9  N1  UNL     1      12.009  15.009  18.433  1.00  0.00    -0.075 N
ATOM     10  H13 UNL     1      11.968  13.992  18.495  1.00  0.00     0.274 HD
ATOM     11  H12 UNL     1      12.389  15.101  17.491  1.00  0.00     0.274 HD
ATOM     12  H11 UNL     1      12.650  15.393  19.127  1.00  0.00     0.274 HD
ENDBRANCH   8   9
TORSDOF 1
ENDMDL