MODEL 4
REMARK VINA RESULT: -3.788420010      2.159      3.660
REMARK  1 active torsions:
REMARK  status: ('A' for Active; 'I' for Inactive)
REMARK    1  A    between atoms: C6_6  and  N1_8
ROOT
HETATM    1  C1  UNL     1      10.808  13.876  19.959  1.00  0.00     0.010 C
HETATM    2  C2  UNL     1      10.477  14.918  20.992  1.00  0.00    -0.016 C
HETATM    3  C3  UNL     1       9.057  14.755  21.532  1.00  0.00     0.004 C
HETATM    4  C4  UNL     1       8.923  15.654  22.718  1.00  0.00     0.003 C
HETATM    5  C5  UNL     1       9.316  17.061  22.495  1.00  0.00     0.038 C
HETATM    6  C6  UNL     1      10.515  17.271  21.639  1.00  0.00     0.120 C
HETATM    7  C7  UNL     1      11.813  17.261  22.415  1.00  0.00     0.046 C
HETATM    8  C8  UNL     1      10.558  16.325  20.460  1.00  0.00     0.042 C
ENDROOT
BRANCH   6   9
HETATM    9  N1  UNL     1      10.400  18.619  21.061  1.00  0.00    -0.071 N
ATOM     10  H13 UNL     1       9.433  18.914  20.921  1.00  0.00     0.275 HD
ATOM     11  H12 UNL     1      10.668  19.358  21.712  1.00  0.00     0.275 HD
ATOM     12  H11 UNL     1      10.950  18.623  20.202  1.00  0.00     0.275 HD
ENDBRANCH   6   9
TORSDOF 1
ENDMDL