MODEL 3
REMARK VINA RESULT: -3.683761357      2.174      3.873
REMARK  1 active torsions:
REMARK  status: ('A' for Active; 'I' for Inactive)
REMARK    1  A    between atoms: N1_1  and  C1_5
ROOT
HETATM    1  C1  UNL     1      11.087  16.259  20.698  1.00  0.00     0.187 C
HETATM    2  C2  UNL     1      10.247  15.104  20.327  1.00  0.00     0.033 C
HETATM    3  C3  UNL     1       9.517  14.417  21.403  1.00  0.00     0.007 C
HETATM    4  C4  UNL     1       9.300  15.201  22.655  1.00  0.00    -0.014 C
HETATM    5  C5  UNL     1       8.412  16.405  22.452  1.00  0.00     0.005 C
HETATM    6  C6  UNL     1       9.258  17.433  21.778  1.00  0.00     0.007 C
HETATM    7  C7  UNL     1      10.668  16.946  21.984  1.00  0.00     0.016 C
HETATM    8  C8  UNL     1      10.617  15.879  23.053  1.00  0.00     0.011 C
ENDROOT
BRANCH   1   9
HETATM    9  N1  UNL     1      10.951  17.286  19.655  1.00  0.00    -0.075 N
ATOM     10  H13 UNL     1      11.495  18.125  19.858  1.00  0.00     0.274 HD
ATOM     11  H12 UNL     1      11.415  17.025  18.785  1.00  0.00     0.274 HD
ATOM     12  H11 UNL     1       9.959  17.486  19.526  1.00  0.00     0.274 HD
ENDBRANCH   1   9
TORSDOF 1
ENDMDL