MODEL 5
REMARK VINA RESULT: -4.166577213      1.219      1.833
REMARK  0 active torsions:
REMARK  status: ('A' for Active; 'I' for Inactive)
ROOT
HETATM    1  N1  UNL     1       7.144   3.354  -1.240  1.00  0.00    -0.389 N
ATOM      2  H11 UNL     1       7.936   3.682  -0.687  1.00  0.00     0.157 HD
ATOM      3  H12 UNL     1       7.358   2.397  -1.522  1.00  0.00     0.157 HD
HETATM    4  C1  UNL     1       6.098   4.057  -1.502  1.00  0.00     0.073 C
HETATM    5  C2  UNL     1       4.947   3.581  -2.306  1.00  0.00     0.078 C
HETATM    6  C3  UNL     1       3.816   4.361  -1.667  1.00  0.00     0.033 C
HETATM    7  C4  UNL     1       4.444   5.731  -1.519  1.00  0.00     0.086 C
HETATM    8  C5  UNL     1       3.694   6.545  -0.526  1.00  0.00     0.025 C
HETATM    9  C6  UNL     1       4.588   7.212   0.489  1.00  0.00     0.004 C
HETATM   10  C7  UNL     1       5.904   7.596  -0.163  1.00  0.00     0.020 C
HETATM   11  C8  UNL     1       6.668   6.321  -0.405  1.00  0.00     0.124 C
HETATM   12  N2  UNL     1       5.801   5.389  -1.109  1.00  0.00    -0.366 N
ENDROOT
TORSDOF 0
ENDMDL