MODEL 4
REMARK VINA RESULT: -4.546897628      0.942      2.229
REMARK  1 active torsions:
REMARK  status: ('A' for Active; 'I' for Inactive)
REMARK    1  A    between atoms: N1_1  and  C1_5
ROOT
HETATM    1  C1  UNL     1       4.492   6.170  -1.832  1.00  0.00     0.188 C
HETATM    2  C2  UNL     1       4.183   4.823  -2.506  1.00  0.00     0.038 C
HETATM    3  C3  UNL     1       5.625   4.479  -2.143  1.00  0.00    -0.007 C
HETATM    4  C4  UNL     1       5.886   3.064  -1.780  1.00  0.00     0.005 C
HETATM    5  C5  UNL     1       7.415   2.921  -1.715  1.00  0.00     0.000 C
HETATM    6  C6  UNL     1       7.900   3.832  -0.630  1.00  0.00     0.000 C
HETATM    7  C7  UNL     1       7.885   5.279  -0.991  1.00  0.00     0.000 C
HETATM    8  C8  UNL     1       6.638   5.999  -0.465  1.00  0.00     0.007 C
HETATM    9  C9  UNL     1       5.379   5.359  -0.907  1.00  0.00     0.020 C
ENDROOT
BRANCH   1  10
HETATM   10  N1  UNL     1       3.373   6.810  -1.230  1.00  0.00    -0.075 N
ATOM     11  H13 UNL     1       2.971   6.211  -0.509  1.00  0.00     0.274 HD
ATOM     12  H12 UNL     1       3.683   7.595  -0.656  1.00  0.00     0.274 HD
ATOM     13  H11 UNL     1       2.649   7.113  -1.881  1.00  0.00     0.274 HD
ENDBRANCH   1  10
TORSDOF 1
ENDMDL