MODEL 3
REMARK VINA RESULT: -4.188853086      0.907      1.258
REMARK  2 active torsions:
REMARK  status: ('A' for Active; 'I' for Inactive)
REMARK    1  A    between atoms: C1_1  and  C6_6
REMARK    2  A    between atoms: C2_2  and  C3_3
ROOT
HETATM    1  C6  UNL     1       3.951   5.880  -2.434  1.00  0.00     0.065 C
HETATM    2  C7  UNL     1       2.982   5.345  -3.477  1.00  0.00     0.017 C
HETATM    3  C8  UNL     1       2.298   6.653  -3.894  1.00  0.00     0.001 C
HETATM    4  C9  UNL     1       3.356   7.717  -3.765  1.00  0.00     0.001 C
HETATM    5  C10 UNL     1       4.605   7.011  -3.229  1.00  0.00     0.017 C
ENDROOT
BRANCH   1   6
HETATM    6  C1  UNL     1       4.921   4.904  -2.009  1.00  0.00    -0.101 C
HETATM    7  C2  UNL     1       5.736   4.114  -1.658  1.00  0.00    -0.101 C
BRANCH   7   8
HETATM    8  C3  UNL     1       6.763   3.155  -1.218  1.00  0.00     0.065 A
HETATM    9  C4  UNL     1       8.110   3.733  -0.774  1.00  0.00     0.018 A
HETATM   10  C5  UNL     1       7.972   2.933  -2.028  1.00  0.00     0.018 A
ENDBRANCH   7   8
ENDBRANCH   1   6
TORSDOF 2
ENDMDL