MODEL 3
REMARK VINA RESULT: -4.897718788      0.606      3.176
REMARK  0 active torsions:
REMARK  status: ('A' for Active; 'I' for Inactive)
ROOT
HETATM    1  C1  UNL     1       8.182   4.823  -0.453  1.00  0.00     0.000 C
HETATM    2  C2  UNL     1       8.221   3.589  -1.289  1.00  0.00     0.000 C
HETATM    3  C3  UNL     1       6.855   2.914  -1.391  1.00  0.00     0.005 C
HETATM    4  C4  UNL     1       5.928   3.952  -1.916  1.00  0.00    -0.010 C
HETATM    5  C5  UNL     1       4.539   3.537  -2.159  1.00  0.00     0.005 C
HETATM    6  C6  UNL     1       3.661   4.709  -1.778  1.00  0.00     0.001 C
HETATM    7  C7  UNL     1       4.557   5.733  -1.126  1.00  0.00     0.005 C
HETATM    8  C8  UNL     1       5.778   4.980  -0.785  1.00  0.00    -0.010 C
HETATM    9  C9  UNL     1       7.052   5.762  -0.815  1.00  0.00     0.005 C
ENDROOT
TORSDOF 0
ENDMDL