MODEL 1
REMARK VINA RESULT: -4.109010820      0.000      0.000
REMARK  1 active torsions:
REMARK  status: ('A' for Active; 'I' for Inactive)
REMARK    1  A    between atoms: N1_1  and  C1_5
ROOT
HETATM    1  C1  UNL     1       4.500   5.202  -3.200  1.00  0.00     0.188 C
HETATM    2  C2  UNL     1       4.873   6.445  -2.426  1.00  0.00     0.037 C
HETATM    3  C3  UNL     1       5.204   5.962  -1.029  1.00  0.00    -0.012 C
HETATM    4  C4  UNL     1       6.635   5.522  -0.906  1.00  0.00     0.005 C
HETATM    5  C5  UNL     1       6.832   4.048  -1.064  1.00  0.00     0.001 C
HETATM    6  C6  UNL     1       5.989   3.455  -2.180  1.00  0.00     0.007 C
HETATM    7  C7  UNL     1       4.614   4.040  -2.239  1.00  0.00     0.016 C
HETATM    8  C8  UNL     1       4.317   4.738  -0.907  1.00  0.00     0.011 C
ENDROOT
BRANCH   1   9
HETATM    9  N1  UNL     1       3.120   5.247  -3.647  1.00  0.00    -0.075 N
ATOM     10  H13 UNL     1       2.728   4.311  -3.746  1.00  0.00     0.274 HD
ATOM     11  H12 UNL     1       2.502   5.600  -2.917  1.00  0.00     0.274 HD
ATOM     12  H11 UNL     1       3.023   5.785  -4.509  1.00  0.00     0.274 HD
ENDBRANCH   1   9
TORSDOF 1
ENDMDL