MODEL 4
REMARK VINA RESULT: -3.592879198      0.827      2.168
REMARK  0 active torsions:
REMARK  status: ('A' for Active; 'I' for Inactive)
ROOT
HETATM    1  C1  UNL     1       3.992   6.597  -2.606  1.00  0.00     0.005 C
HETATM    2  C2  UNL     1       5.364   6.850  -2.034  1.00  0.00     0.005 C
HETATM    3  C3  UNL     1       5.517   5.888  -0.852  1.00  0.00    -0.010 C
HETATM    4  C4  UNL     1       4.437   6.315   0.151  1.00  0.00     0.005 C
HETATM    5  C5  UNL     1       3.253   5.437  -0.116  1.00  0.00     0.006 C
HETATM    6  C6  UNL     1       3.603   4.523  -1.241  1.00  0.00    -0.006 C
HETATM    7  C7  UNL     1       3.668   5.133  -2.611  1.00  0.00    -0.010 C
HETATM    8  C8  UNL     1       4.989   4.370  -2.784  1.00  0.00     0.010 C
HETATM    9  C9  UNL     1       5.137   4.508  -1.265  1.00  0.00    -0.006 C
ENDROOT
TORSDOF 0
ENDMDL