MODEL 3
REMARK VINA RESULT: -3.595273332      0.957      2.635
REMARK  0 active torsions:
REMARK  status: ('A' for Active; 'I' for Inactive)
ROOT
HETATM    1  C1  UNL     1       3.427   4.947  -0.749  1.00  0.00     0.009 C
HETATM    2  C2  UNL     1       2.780   5.883  -1.743  1.00  0.00    -0.013 C
HETATM    3  C3  UNL     1       3.662   7.140  -1.761  1.00  0.00     0.009 C
HETATM    4  C4  UNL     1       4.944   6.533  -2.350  1.00  0.00    -0.010 C
HETATM    5  C5  UNL     1       5.663   5.811  -1.217  1.00  0.00     0.009 C
HETATM    6  C6  UNL     1       4.806   4.542  -1.144  1.00  0.00    -0.013 C
HETATM    7  C7  UNL     1       4.904   4.119  -2.605  1.00  0.00     0.009 C
HETATM    8  C8  UNL     1       4.480   5.433  -3.275  1.00  0.00    -0.010 C
HETATM    9  C9  UNL     1       2.954   5.410  -3.173  1.00  0.00     0.009 C
ENDROOT
TORSDOF 0
ENDMDL