MODEL 5
REMARK VINA RESULT: -3.994224131      2.049      2.950
REMARK  1 active torsions:
REMARK  status: ('A' for Active; 'I' for Inactive)
REMARK    1  A    between atoms: N1_1  and  C1_5
ROOT
HETATM    1  C1  UNL     1       3.410   5.741  -2.493  1.00  0.00     0.188 C
HETATM    2  C2  UNL     1       4.158   7.060  -2.577  1.00  0.00     0.033 C
HETATM    3  C3  UNL     1       4.757   7.126  -1.171  1.00  0.00     0.007 C
HETATM    4  C4  UNL     1       5.071   5.702  -0.838  1.00  0.00    -0.008 C
HETATM    5  C5  UNL     1       6.564   5.436  -0.924  1.00  0.00     0.005 C
HETATM    6  C6  UNL     1       6.710   3.928  -0.681  1.00  0.00     0.000 C
HETATM    7  C7  UNL     1       6.257   3.260  -1.961  1.00  0.00     0.000 C
HETATM    8  C8  UNL     1       5.114   3.934  -2.624  1.00  0.00     0.007 C
HETATM    9  C9  UNL     1       4.298   4.817  -1.750  1.00  0.00     0.020 C
ENDROOT
BRANCH   1  10
HETATM   10  N1  UNL     1       2.959   5.269  -3.766  1.00  0.00    -0.075 N
ATOM     11  H13 UNL     1       2.550   6.028  -4.311  1.00  0.00     0.274 HD
ATOM     12  H12 UNL     1       3.749   5.038  -4.369  1.00  0.00     0.274 HD
ATOM     13  H11 UNL     1       2.313   4.483  -3.695  1.00  0.00     0.274 HD
ENDBRANCH   1  10
TORSDOF 1
ENDMDL