MODEL 4
REMARK VINA RESULT: -3.769524331      0.580      2.363
REMARK  0 active torsions:
REMARK  status: ('A' for Active; 'I' for Inactive)
ROOT
HETATM    1  C1  UNL     1       4.354   6.290  -3.276  1.00  0.00     0.001 C
HETATM    2  C2  UNL     1       3.342   5.304  -2.843  1.00  0.00     0.004 C
HETATM    3  C3  UNL     1       3.783   4.369  -1.765  1.00  0.00    -0.014 C
HETATM    4  C4  UNL     1       5.209   4.012  -1.979  1.00  0.00     0.005 C
HETATM    5  C5  UNL     1       6.127   4.913  -1.202  1.00  0.00     0.005 C
HETATM    6  C6  UNL     1       5.492   6.246  -1.013  1.00  0.00    -0.014 C
HETATM    7  C7  UNL     1       5.147   6.974  -2.259  1.00  0.00     0.004 C
HETATM    8  C8  UNL     1       4.342   6.120  -0.051  1.00  0.00     0.005 C
HETATM    9  C9  UNL     1       3.480   4.975  -0.429  1.00  0.00     0.005 C
ENDROOT
TORSDOF 0
ENDMDL