MODEL 3
REMARK VINA RESULT: -6.023844616      2.249      3.354
REMARK  6 active torsions:
REMARK  status: ('A' for Active; 'I' for Inactive)
REMARK    1  A    between atoms: C3_3  and  S1_6
REMARK    2  A    between atoms: S1_6  and  N1_9
REMARK    3  A    between atoms: N1_9  and  C6_11
REMARK    4  A    between atoms: C6_11  and  C7_12
REMARK    5  A    between atoms: C7_12  and  C8_13
REMARK       I    between atoms: C8_13  and  N2_15
REMARK    6  A    between atoms: N2_15  and  C9_17
ROOT
HETATM    1  C1  UNL     1      13.832  24.235  20.871  1.00  0.00     0.014 C
HETATM    2  C2  UNL     1      14.436  25.256  20.649  1.00  0.00    -0.090 C
HETATM    3  C3  UNL     1      15.196  26.492  20.368  1.00  0.00     0.137 C
HETATM    4  C4  UNL     1      14.122  27.598  20.196  1.00  0.00     0.048 C
HETATM    5  C5  UNL     1      15.995  26.861  21.547  1.00  0.00     0.048 C
ENDROOT
BRANCH   3   6
HETATM    6  S1  UNL     1      15.988  26.341  18.836  1.00  0.00     0.245 S
HETATM    7  O1  UNL     1      16.714  24.998  18.726  1.00  0.00    -0.204 OA
HETATM    8  O2  UNL     1      17.119  27.359  18.720  1.00  0.00    -0.204 OA
BRANCH   6   9
HETATM    9  N1  UNL     1      15.053  26.488  17.429  1.00  0.00    -0.318 N
ATOM     10  H1  UNL     1      14.418  27.260  17.229  1.00  0.00     0.172 HD
BRANCH   9  11
HETATM   11  C6  UNL     1      15.282  25.389  16.573  1.00  0.00     0.141 C
BRANCH  11  12
HETATM   12  C7  UNL     1      15.838  25.742  15.215  1.00  0.00     0.123 C
BRANCH  12  13
HETATM   13  C8  UNL     1      16.627  26.954  15.150  1.00  0.00     0.219 C
HETATM   14  O3  UNL     1      16.183  28.016  14.658  1.00  0.00    -0.274 OA
HETATM   15  N2  UNL     1      17.957  26.968  15.656  1.00  0.00    -0.361 N
ATOM     16  H2  UNL     1      18.337  26.112  16.061  1.00  0.00     0.162 HD
BRANCH  15  17
HETATM   17  C9  UNL     1      18.789  28.148  15.616  1.00  0.00     0.118 C
HETATM   18  C10 UNL     1      20.092  27.786  14.941  1.00  0.00     0.026 C
ENDBRANCH  15  17
ENDBRANCH  12  13
ENDBRANCH  11  12
ENDBRANCH   9  11
ENDBRANCH   6   9
ENDBRANCH   3   6
TORSDOF 6
ENDMDL