MODEL 5
REMARK VINA RESULT: -5.279980384      2.014      5.997
REMARK  6 active torsions:
REMARK  status: ('A' for Active; 'I' for Inactive)
REMARK    1  A    between atoms: C2_2  and  N1_3
REMARK       I    between atoms: N1_3  and  C3_5
REMARK    2  A    between atoms: C3_5  and  C4_7
REMARK    3  A    between atoms: C4_7  and  N2_8
REMARK    4  A    between atoms: N2_8  and  S1_10
REMARK    5  A    between atoms: S1_10  and  N3_13
REMARK    6  A    between atoms: N3_13  and  C6_15
ROOT
HETATM    1  N2  UNL     1      16.330  25.885  18.503  1.00  0.00    -0.290 N
HETATM    2  C5  UNL     1      15.523  25.052  19.317  1.00  0.00     0.165 C
ENDROOT
BRANCH   1   3
HETATM    3  C4  UNL     1      16.621  27.175  19.017  1.00  0.00     0.238 C
BRANCH   3   4
HETATM    4  C3  UNL     1      15.858  27.518  20.241  1.00  0.00     0.236 C
HETATM    5  N1  UNL     1      16.569  27.705  21.447  1.00  0.00    -0.360 N
ATOM      6  H1  UNL     1      17.584  27.604  21.468  1.00  0.00     0.162 HD
HETATM    7  O1  UNL     1      14.613  27.646  20.233  1.00  0.00    -0.272 OA
BRANCH   5   8
HETATM    8  C2  UNL     1      15.841  28.040  22.651  1.00  0.00     0.118 C
HETATM    9  C1  UNL     1      16.755  28.177  23.838  1.00  0.00     0.026 C
ENDBRANCH   5   8
ENDBRANCH   3   4
ENDBRANCH   1   3
BRANCH   1  10
HETATM   10  S1  UNL     1      16.056  25.792  16.839  1.00  0.00     0.317 S
HETATM   11  O2  UNL     1      15.056  26.876  16.464  1.00  0.00    -0.183 OA
HETATM   12  O3  UNL     1      15.359  24.482  16.539  1.00  0.00    -0.183 OA
BRANCH  10  13
HETATM   13  N3  UNL     1      17.444  25.888  15.868  1.00  0.00    -0.299 N
ATOM     14  H3  UNL     1      18.195  25.199  15.908  1.00  0.00     0.174 HD
BRANCH  13  15
HETATM   15  C6  UNL     1      17.475  27.023  14.984  1.00  0.00     0.086 C
HETATM   16  C7  UNL     1      18.359  28.075  15.637  1.00  0.00     0.032 C
HETATM   17  C8  UNL     1      18.160  26.678  13.655  1.00  0.00     0.032 C
ENDBRANCH  13  15
ENDBRANCH  10  13
ENDBRANCH   1  10
TORSDOF 6
ENDMDL