MODEL 3
REMARK VINA RESULT: -6.802257940      0.742      1.373
REMARK  7 active torsions:
REMARK  status: ('A' for Active; 'I' for Inactive)
REMARK    1  A    between atoms: C2_2  and  C5_5
REMARK       I    between atoms: C5_5  and  N1_7
REMARK    2  A    between atoms: N1_7  and  C6_9
REMARK    3  A    between atoms: C6_9  and  C7_10
REMARK    4  A    between atoms: C7_10  and  C8_11
REMARK    5  A    between atoms: C8_11  and  C9_12
REMARK    6  A    between atoms: C9_12  and  N2_13
REMARK    7  A    between atoms: N2_13  and  S1_15
ROOT
HETATM    1  C6  UNL     1      15.646  25.060  18.082  1.00  0.00     0.122 C
ENDROOT
BRANCH   1   2
HETATM    2  N1  UNL     1      16.488  25.797  17.250  1.00  0.00    -0.360 N
HETATM    3  C5  UNL     1      16.296  26.123  15.907  1.00  0.00     0.225 C
HETATM    4  O1  UNL     1      15.461  25.443  15.290  1.00  0.00    -0.273 OA
ATOM      5  H1  UNL     1      17.349  26.141  17.675  1.00  0.00     0.162 HD
BRANCH   3   6
HETATM    6  C2  UNL     1      17.089  27.186  15.238  1.00  0.00     0.030 C
HETATM    7  C1  UNL     1      17.788  27.978  16.317  1.00  0.00     0.024 C
HETATM    8  C3  UNL     1      18.154  26.540  14.338  1.00  0.00     0.024 C
HETATM    9  C4  UNL     1      16.175  28.005  14.387  1.00  0.00     0.024 C
ENDBRANCH   3   6
ENDBRANCH   1   2
BRANCH   1  10
HETATM   10  C7  UNL     1      15.842  25.329  19.585  1.00  0.00     0.021 C
BRANCH  10  11
HETATM   11  C8  UNL     1      16.292  26.626  19.800  1.00  0.00     0.022 C
BRANCH  11  12
HETATM   12  C9  UNL     1      15.521  27.731  20.561  1.00  0.00     0.132 C
BRANCH  12  13
HETATM   13  N2  UNL     1      16.427  27.844  21.664  1.00  0.00    -0.320 N
ATOM     14  H2  UNL     1      17.353  27.419  21.684  1.00  0.00     0.172 HD
BRANCH  13  15
HETATM   15  S1  UNL     1      15.802  28.742  22.900  1.00  0.00     0.222 S
HETATM   16  C10 UNL     1      14.321  28.863  23.648  1.00  0.00     0.185 C
HETATM   17  O2  UNL     1      16.843  28.048  24.025  1.00  0.00    -0.206 OA
HETATM   18  O3  UNL     1      16.468  30.102  22.785  1.00  0.00    -0.206 OA
ENDBRANCH  13  15
ENDBRANCH  12  13
ENDBRANCH  11  12
ENDBRANCH  10  11
ENDBRANCH   1  10
TORSDOF 7
ENDMDL