MODEL 5
REMARK VINA RESULT: -6.296916838      1.165      1.348
REMARK  7 active torsions:
REMARK  status: ('A' for Active; 'I' for Inactive)
REMARK       I    between atoms: C2_2  and  N1_4
REMARK    1  A    between atoms: N1_4  and  C3_6
REMARK    2  A    between atoms: C3_6  and  C4_7
REMARK    3  A    between atoms: C4_7  and  S1_8
REMARK    4  A    between atoms: S1_8  and  N2_11
REMARK    5  A    between atoms: N2_11  and  C5_13
REMARK    6  A    between atoms: C5_13  and  C6_14
REMARK    7  A    between atoms: C6_14  and  C7_15
ROOT
HETATM    1  S1  UNL     1      15.450  25.958  19.264  1.00  0.00     0.228 S
HETATM    2  O2  UNL     1      15.024  24.780  20.095  1.00  0.00    -0.206 OA
HETATM    3  O3  UNL     1      14.284  26.801  18.846  1.00  0.00    -0.206 OA
ENDROOT
BRANCH   1   4
HETATM    4  C4  UNL     1      16.599  26.972  20.194  1.00  0.00     0.182 C
BRANCH   4   5
HETATM    5  C3  UNL     1      16.031  27.330  21.530  1.00  0.00     0.139 C
BRANCH   5   6
HETATM    6  N1  UNL     1      14.704  27.877  21.471  1.00  0.00    -0.360 N
HETATM    7  C2  UNL     1      14.484  29.266  21.442  1.00  0.00     0.213 C
HETATM    8  C1  UNL     1      13.085  29.829  21.384  1.00  0.00     0.117 C
HETATM    9  O1  UNL     1      15.411  30.108  21.463  1.00  0.00    -0.274 OA
ATOM     10  H1  UNL     1      13.904  27.245  21.450  1.00  0.00     0.162 HD
ENDBRANCH   5   6
ENDBRANCH   4   5
ENDBRANCH   1   4
BRANCH   1  11
HETATM   11  N2  UNL     1      16.269  25.349  17.883  1.00  0.00    -0.319 N
ATOM     12  H2  UNL     1      16.900  24.547  17.887  1.00  0.00     0.172 HD
BRANCH  11  13
HETATM   13  C5  UNL     1      15.938  26.130  16.716  1.00  0.00     0.132 C
BRANCH  13  14
HETATM   14  C6  UNL     1      16.933  25.899  15.616  1.00  0.00     0.028 C
BRANCH  14  15
HETATM   15  C7  UNL     1      17.391  27.151  14.921  1.00  0.00    -0.050 C
HETATM   16  C8  UNL     1      18.162  26.681  13.679  1.00  0.00     0.014 C
HETATM   17  C9  UNL     1      16.180  27.948  14.480  1.00  0.00     0.014 C
HETATM   18  C10 UNL     1      18.333  27.990  15.721  1.00  0.00     0.014 C
ENDBRANCH  14  15
ENDBRANCH  13  14
ENDBRANCH  11  13
ENDBRANCH   1  11
TORSDOF 7
ENDMDL