MODEL 4
REMARK VINA RESULT: -6.446724329      1.150      2.269
REMARK  6 active torsions:
REMARK  status: ('A' for Active; 'I' for Inactive)
REMARK       I    between atoms: C3_3  and  N1_5
REMARK    1  A    between atoms: N1_5  and  C4_6
REMARK    2  A    between atoms: N1_5  and  C6_8
REMARK    3  A    between atoms: C6_8  and  C7_9
REMARK    4  A    between atoms: C7_9  and  N2_10
REMARK       I    between atoms: N2_10  and  C8_12
REMARK       I    between atoms: C8_12  and  N3_14
REMARK    5  A    between atoms: N3_14  and  C9_16
REMARK    6  A    between atoms: C9_16  and  C11_18
ROOT
HETATM    1  C1  UNL     1      13.236  31.080  21.932  1.00  0.00     0.022 C
HETATM    2  C2  UNL     1      14.319  30.826  22.415  1.00  0.00    -0.016 C
HETATM    3  C3  UNL     1      15.601  30.534  22.991  1.00  0.00     0.301 C
HETATM    4  O1  UNL     1      16.206  31.493  23.561  1.00  0.00    -0.258 OA
HETATM    5  N1  UNL     1      16.174  29.209  22.924  1.00  0.00    -0.320 N
ENDROOT
BRANCH   5   6
HETATM    6  C4  UNL     1      17.451  29.017  23.526  1.00  0.00     0.127 C
HETATM    7  C5  UNL     1      17.409  27.916  24.544  1.00  0.00     0.027 C
ENDBRANCH   5   6
BRANCH   5   8
HETATM    8  C6  UNL     1      15.408  28.199  22.309  1.00  0.00     0.087 C
BRANCH   8   9
HETATM    9  C7  UNL     1      16.103  27.042  21.697  1.00  0.00     0.169 C
BRANCH   9  10
HETATM   10  N2  UNL     1      16.745  27.232  20.441  1.00  0.00    -0.338 N
HETATM   11  C8  UNL     1      16.112  26.939  19.186  1.00  0.00     0.316 C
HETATM   12  O2  UNL     1      14.930  26.491  19.147  1.00  0.00    -0.247 OA
HETATM   13  N3  UNL     1      16.812  27.153  17.995  1.00  0.00    -0.339 N
ATOM     14  H3  UNL     1      17.765  27.515  18.024  1.00  0.00     0.164 HD
ATOM     15  H2  UNL     1      17.699  27.593  20.432  1.00  0.00     0.164 HD
BRANCH  13  16
HETATM   16  C9  UNL     1      16.188  26.862  16.711  1.00  0.00     0.085 C
HETATM   17  C10 UNL     1      16.078  25.361  16.558  1.00  0.00     0.032 C
BRANCH  16  18
HETATM   18  C11 UNL     1      17.123  27.373  15.636  1.00  0.00    -0.000 C
HETATM   19  C12 UNL     1      16.354  27.751  14.398  1.00  0.00     0.011 C
HETATM   20  C13 UNL     1      17.845  28.623  16.142  1.00  0.00     0.011 C
ENDBRANCH  16  18
ENDBRANCH  13  16
ENDBRANCH   9  10
ENDBRANCH   8   9
ENDBRANCH   5   8
TORSDOF 6
ENDMDL