MODEL 4
REMARK VINA RESULT: -5.912616320      2.538      4.502
REMARK  6 active torsions:
REMARK  status: ('A' for Active; 'I' for Inactive)
REMARK    1  A    between atoms: C2_2  and  C3_3
REMARK    2  A    between atoms: C3_3  and  N1_4
REMARK       I    between atoms: N1_4  and  C4_6
REMARK       I    between atoms: C4_6  and  N2_8
REMARK    3  A    between atoms: N2_8  and  C5_10
REMARK    4  A    between atoms: C5_10  and  C7_12
REMARK       I    between atoms: C7_12  and  N3_14
REMARK       I    between atoms: N3_14  and  C8_16
REMARK    5  A    between atoms: C8_16  and  C9_18
REMARK    6  A    between atoms: C9_18  and  N4_19
ROOT
HETATM    1  C5  UNL     1      15.268  28.729  22.456  1.00  0.00     0.174 C
HETATM    2  C6  UNL     1      14.000  28.943  23.285  1.00  0.00     0.042 C
ENDROOT
BRANCH   1   3
HETATM    3  N2  UNL     1      15.217  27.386  21.885  1.00  0.00    -0.330 N
HETATM    4  C4  UNL     1      15.809  27.052  20.653  1.00  0.00     0.316 C
HETATM    5  N1  UNL     1      15.729  25.742  20.150  1.00  0.00    -0.343 N
HETATM    6  O1  UNL     1      16.409  27.933  20.008  1.00  0.00    -0.247 OA
ATOM      7  H1  UNL     1      15.227  25.043  20.697  1.00  0.00     0.164 HD
ATOM      8  H2  UNL     1      14.728  26.655  22.403  1.00  0.00     0.165 HD
BRANCH   5   9
HETATM    9  C3  UNL     1      16.322  25.337  18.900  1.00  0.00     0.124 C
BRANCH   9  10
HETATM   10  C2  UNL     1      15.327  25.104  17.793  1.00  0.00     0.015 C
HETATM   11  C1  UNL     1      16.015  25.570  16.502  1.00  0.00     0.006 C
ENDBRANCH   9  10
ENDBRANCH   5   9
ENDBRANCH   1   3
BRANCH   1  12
HETATM   12  C7  UNL     1      16.469  28.918  23.277  1.00  0.00     0.246 C
HETATM   13  O2  UNL     1      16.918  27.867  23.860  1.00  0.00    -0.271 OA
HETATM   14  N3  UNL     1      17.184  30.110  23.501  1.00  0.00    -0.294 N
HETATM   15  C8  UNL     1      16.970  31.373  22.943  1.00  0.00     0.252 C
ATOM     16  H3  UNL     1      17.961  30.042  24.158  1.00  0.00     0.171 HD
HETATM   17  O3  UNL     1      16.045  31.551  22.136  1.00  0.00    -0.271 OA
BRANCH  15  18
HETATM   18  C9  UNL     1      17.829  32.494  23.301  1.00  0.00     0.373 C
BRANCH  18  19
HETATM   19  N4  UNL     1      18.024  32.686  24.705  1.00  0.00     0.088 N
HETATM   20  C10 UNL     1      17.160  33.740  25.173  1.00  0.00     0.310 C
HETATM   21  C11 UNL     1      19.394  32.871  25.094  1.00  0.00     0.310 C
ENDBRANCH  18  19
ENDBRANCH  15  18
ENDBRANCH   1  12
TORSDOF 6
ENDMDL