MODEL 3
REMARK VINA RESULT: -5.640189509      1.303      1.698
REMARK  9 active torsions:
REMARK  status: ('A' for Active; 'I' for Inactive)
REMARK       I    between atoms: C2_2  and  N1_4
REMARK    1  A    between atoms: N1_4  and  C3_6
REMARK    2  A    between atoms: C3_6  and  C4_7
REMARK    3  A    between atoms: C3_6  and  C10_18
REMARK    4  A    between atoms: C4_7  and  O2_8
REMARK    5  A    between atoms: C4_7  and  N2_10
REMARK    6  A    between atoms: N2_10  and  C5_12
REMARK    7  A    between atoms: C5_12  and  C6_13
REMARK    8  A    between atoms: C6_13  and  C7_14
REMARK    9  A    between atoms: C7_14  and  N3_15
ROOT
HETATM    1  C4  UNL     1      16.158  27.961  21.866  1.00  0.00     0.135 C
ENDROOT
BRANCH   1   2
HETATM    2  C3  UNL     1      15.635  28.886  22.887  1.00  0.00     0.166 C
BRANCH   2   3
HETATM    3  N1  UNL     1      16.460  30.116  22.872  1.00  0.00    -0.349 N
HETATM    4  C2  UNL     1      17.713  30.197  23.525  1.00  0.00     0.214 C
HETATM    5  C1  UNL     1      18.548  31.416  23.519  1.00  0.00     0.117 C
HETATM    6  O1  UNL     1      18.130  29.179  24.139  1.00  0.00    -0.274 OA
ATOM      7  H1  UNL     1      16.113  30.935  22.372  1.00  0.00     0.163 HD
ENDBRANCH   2   3
BRANCH   2   8
HETATM    8  C10 UNL     1      14.181  29.239  22.773  1.00  0.00    -0.023 C
HETATM    9  C11 UNL     1      13.851  29.981  21.489  1.00  0.00     0.017 C
HETATM   10  C12 UNL     1      13.226  28.134  23.094  1.00  0.00     0.017 C
HETATM   11  C13 UNL     1      13.899  30.334  23.862  1.00  0.00     0.017 C
ENDBRANCH   2   8
ENDBRANCH   1   2
BRANCH   1  12
HETATM   12  O2  UNL     1      16.801  26.915  22.307  1.00  0.00    -0.348 OA
ATOM     13  H2  UNL     1      17.011  26.247  21.664  1.00  0.00     0.219 HD
ENDBRANCH   1  12
BRANCH   1  14
HETATM   14  N2  UNL     1      16.036  28.098  20.479  1.00  0.00    -0.373 N
ATOM     15  H2  UNL     1      15.633  28.949  20.088  1.00  0.00     0.161 HD
BRANCH  14  16
HETATM   16  C5  UNL     1      16.483  27.029  19.586  1.00  0.00     0.123 C
BRANCH  16  17
HETATM   17  C6  UNL     1      15.332  26.246  19.010  1.00  0.00     0.050 C
BRANCH  17  18
HETATM   18  C7  UNL     1      15.601  24.759  19.008  1.00  0.00     0.273 C
BRANCH  18  19
HETATM   19  N3  UNL     1      14.524  24.023  19.635  1.00  0.00     0.080 N
HETATM   20  C8  UNL     1      14.085  24.624  20.852  1.00  0.00     0.309 C
HETATM   21  C9  UNL     1      14.823  22.624  19.807  1.00  0.00     0.309 C
ENDBRANCH  18  19
ENDBRANCH  17  18
ENDBRANCH  16  17
ENDBRANCH  14  16
ENDBRANCH   1  14
TORSDOF 9
ENDMDL