MODEL 1
REMARK VINA RESULT: -6.257919958      0.000      0.000
REMARK  7 active torsions:
REMARK  status: ('A' for Active; 'I' for Inactive)
REMARK       I    between atoms: C2_2  and  N1_4
REMARK    1  A    between atoms: N1_4  and  C3_6
REMARK    2  A    between atoms: C3_6  and  C5_8
REMARK    3  A    between atoms: C5_8  and  C6_9
REMARK    4  A    between atoms: C6_9  and  C7_11
REMARK    5  A    between atoms: C7_11  and  C8_12
REMARK    6  A    between atoms: C7_11  and  N2_16
REMARK    7  A    between atoms: C8_12  and  C9_13
REMARK       I    between atoms: N2_16  and  C12_18
ROOT
HETATM    1  C6  UNL     1      15.861  27.632  21.551  1.00  0.00     0.151 C
HETATM    2  O2  UNL     1      16.591  27.780  20.594  1.00  0.00    -0.296 OA
ENDROOT
BRANCH   1   3
HETATM    3  C5  UNL     1      14.708  26.708  21.395  1.00  0.00     0.105 C
BRANCH   3   4
HETATM    4  C3  UNL     1      14.993  25.539  20.524  1.00  0.00     0.087 C
HETATM    5  C4  UNL     1      13.828  24.550  20.742  1.00  0.00     0.032 C
BRANCH   4   6
HETATM    6  N1  UNL     1      14.950  25.910  19.120  1.00  0.00    -0.357 N
HETATM    7  C2  UNL     1      15.693  25.245  18.121  1.00  0.00     0.213 C
HETATM    8  C1  UNL     1      15.625  25.651  16.711  1.00  0.00     0.117 C
HETATM    9  O1  UNL     1      16.427  24.282  18.474  1.00  0.00    -0.274 OA
ATOM     10  H1  UNL     1      14.352  26.689  18.843  1.00  0.00     0.162 HD
ENDBRANCH   4   6
ENDBRANCH   3   4
ENDBRANCH   1   3
BRANCH   1  11
HETATM   11  C7  UNL     1      16.111  28.361  22.853  1.00  0.00     0.154 C
BRANCH  11  12
HETATM   12  C8  UNL     1      14.802  28.682  23.451  1.00  0.00     0.037 C
BRANCH  12  13
HETATM   13  C9  UNL     1      14.272  30.060  23.289  1.00  0.00    -0.020 C
HETATM   14  C10 UNL     1      13.154  30.221  22.334  1.00  0.00     0.009 C
HETATM   15  C11 UNL     1      15.368  31.046  22.971  1.00  0.00     0.009 C
ENDBRANCH  12  13
ENDBRANCH  11  12
BRANCH  11  16
HETATM   16  N2  UNL     1      17.000  27.548  23.612  1.00  0.00    -0.350 N
HETATM   17  C12 UNL     1      18.103  28.185  24.287  1.00  0.00     0.214 C
HETATM   18  C13 UNL     1      19.082  27.422  25.100  1.00  0.00     0.117 C
HETATM   19  O3  UNL     1      18.280  29.428  24.209  1.00  0.00    -0.274 OA
ATOM     20  H2  UNL     1      16.860  26.540  23.677  1.00  0.00     0.163 HD
ENDBRANCH  11  16
ENDBRANCH   1  11
TORSDOF 7
ENDMDL