MODEL 5
REMARK VINA RESULT: -5.432510809      1.104      1.295
REMARK  9 active torsions:
REMARK  status: ('A' for Active; 'I' for Inactive)
REMARK       I    between atoms: C2_2  and  N1_4
REMARK    1  A    between atoms: N1_4  and  C3_6
REMARK    2  A    between atoms: C3_6  and  C5_8
REMARK    3  A    between atoms: C3_6  and  C9_18
REMARK    4  A    between atoms: C5_8  and  C6_9
REMARK    5  A    between atoms: C6_9  and  C7_10
REMARK    6  A    between atoms: C7_10  and  C8_11
REMARK    7  A    between atoms: C8_11  and  N2_12
REMARK    8  A    between atoms: N2_12  and  N3_14
REMARK    9  A    between atoms: N3_14  and  N4_15
REMARK       I    between atoms: C9_18  and  N5_20
ROOT
HETATM    1  C3  UNL     1      14.230  30.284  22.442  1.00  0.00     0.110 C
HETATM    2  C4  UNL     1      13.734  30.075  23.825  1.00  0.00     0.049 C
ENDROOT
BRANCH   1   3
HETATM    3  N1  UNL     1      14.353  29.114  21.623  1.00  0.00    -0.344 N
HETATM    4  C2  UNL     1      15.457  28.215  21.685  1.00  0.00     0.214 C
HETATM    5  C1  UNL     1      15.516  27.029  20.783  1.00  0.00     0.117 C
HETATM    6  O1  UNL     1      16.432  28.338  22.469  1.00  0.00    -0.274 OA
ATOM      7  H1  UNL     1      13.607  28.913  20.957  1.00  0.00     0.163 HD
ENDBRANCH   1   3
BRANCH   1   8
HETATM    8  C5  UNL     1      15.382  31.201  22.253  1.00  0.00     0.041 C
BRANCH   8   9
HETATM    9  C6  UNL     1      16.154  31.597  23.454  1.00  0.00     0.004 C
BRANCH   9  10
HETATM   10  C7  UNL     1      17.520  32.109  22.962  1.00  0.00     0.022 C
BRANCH  10  11
HETATM   11  C8  UNL     1      18.624  31.396  23.707  1.00  0.00     0.155 C
BRANCH  11  12
HETATM   12  N2  UNL     1      18.931  30.096  23.144  1.00  0.00    -0.253 N
ATOM     13  H2  UNL     1      19.144  29.982  22.153  1.00  0.00     0.196 HD
BRANCH  12  14
HETATM   14  N3  UNL     1      18.923  29.133  23.914  1.00  0.00    -0.249 NA
BRANCH  14  15
HETATM   15  N4  UNL     1      18.957  28.189  24.696  1.00  0.00    -0.261 N
ATOM     16  H42 UNL     1      18.081  28.710  24.671  1.00  0.00     0.193 HD
ATOM     17  H41 UNL     1      19.024  27.396  25.336  1.00  0.00     0.193 HD
ENDBRANCH  14  15
ENDBRANCH  12  14
ENDBRANCH  11  12
ENDBRANCH  10  11
ENDBRANCH   9  10
ENDBRANCH   8   9
ENDBRANCH   1   8
BRANCH   1  18
HETATM   18  C9  UNL     1      13.066  31.058  21.785  1.00  0.00     0.251 C
HETATM   19  O2  UNL     1      13.259  32.262  21.448  1.00  0.00    -0.270 OA
HETATM   20  N5  UNL     1      11.829  30.495  21.540  1.00  0.00    -0.301 N
HETATM   21  C10 UNL     1      10.695  30.615  22.053  1.00  0.00     0.203 C
ATOM     22  H5  UNL     1      11.844  29.830  20.767  1.00  0.00     0.171 HD
HETATM   23  N6  UNL     1      10.378  31.461  23.136  1.00  0.00    -0.066 NA
HETATM   24  N7  UNL     1       9.639  29.826  21.456  1.00  0.00    -0.066 NA
ENDBRANCH   1  18
TORSDOF 9
ENDMDL