MODEL 3
REMARK VINA RESULT: -3.525357456      0.030      1.392
REMARK  2 active torsions:
REMARK  status: ('A' for Active; 'I' for Inactive)
REMARK    1  A    between atoms: N1_1  and  C1_5
REMARK    2  A    between atoms: C1_5  and  C2_6
ROOT
HETATM    1  C2  UNL     1     -45.693 -29.245 -17.245  1.00  0.00     0.106 A
HETATM    2  N2  UNL     1     -45.739 -30.561 -16.961  1.00  0.00    -0.353 N
ATOM      3  H2  UNL     1     -45.117 -31.076 -16.338  1.00  0.00     0.166 HD
HETATM    4  C3  UNL     1     -46.772 -31.059 -17.666  1.00  0.00     0.106 A
HETATM    5  C4  UNL     1     -47.368 -30.046 -18.391  1.00  0.00     0.106 A
HETATM    6  N3  UNL     1     -46.674 -28.924 -18.110  1.00  0.00    -0.353 N
ATOM      7  H3  UNL     1     -46.860 -27.994 -18.487  1.00  0.00     0.166 HD
ENDROOT
BRANCH   1   8
HETATM    8  C1  UNL     1     -44.704 -28.260 -16.695  1.00  0.00     0.305 C
BRANCH   8   9
HETATM    9  N1  UNL     1     -44.109 -27.523 -17.794  1.00  0.00    -0.073 N
ATOM     10  H13 UNL     1     -43.249 -27.955 -18.130  1.00  0.00     0.274 HD
ATOM     11  H12 UNL     1     -44.653 -27.600 -18.652  1.00  0.00     0.274 HD
ATOM     12  H11 UNL     1     -43.970 -26.554 -17.508  1.00  0.00     0.274 HD
ENDBRANCH   8   9
ENDBRANCH   1   8
TORSDOF 2
ENDMDL