MODEL 2
REMARK VINA RESULT: -2.998023043      3.494      3.748
REMARK  2 active torsions:
REMARK  status: ('A' for Active; 'I' for Inactive)
REMARK    1  A    between atoms: N1_1  and  S1_4
REMARK    2  A    between atoms: S1_4  and  N2_5
ROOT
HETATM    1  S1  UNL     1     -45.933 -29.573 -17.393  1.00  0.00     0.031 SA
ENDROOT
BRANCH   1   2
HETATM    2  N1  UNL     1     -46.243 -29.675 -18.888  1.00  0.00    -0.361 N
ATOM      3  H12 UNL     1     -45.517 -29.913 -19.564  1.00  0.00     0.165 HD
ATOM      4  H11 UNL     1     -47.210 -29.491 -19.151  1.00  0.00     0.165 HD
ENDBRANCH   1   2
BRANCH   1   5
HETATM    5  N2  UNL     1     -44.451 -28.788 -16.991  1.00  0.00    -0.239 NA
HETATM    6  C1  UNL     1     -44.108 -27.525 -17.576  1.00  0.00     0.119 A
HETATM    7  C2  UNL     1     -44.424 -27.659 -16.111  1.00  0.00     0.119 A
ENDBRANCH   1   5
TORSDOF 2
ENDMDL