MODEL 3
REMARK VINA RESULT: -3.912985137      3.191      3.813
REMARK  1 active torsions:
REMARK  status: ('A' for Active; 'I' for Inactive)
REMARK    1  A    between atoms: N2_3  and  C2_5
ROOT
HETATM    1  N1  UNL     1     -45.895 -30.293 -19.407  1.00  0.00    -0.097 NA
HETATM    2  C1  UNL     1     -46.692 -30.578 -18.263  1.00  0.00     0.185 C
HETATM    3  N2  UNL     1     -47.960 -30.589 -18.286  1.00  0.00    -0.383 N
ATOM      4  H2  UNL     1     -48.435 -30.384 -19.165  1.00  0.00     0.160 HD
ENDROOT
BRANCH   3   5
HETATM    5  C2  UNL     1     -48.750 -30.876 -17.133  1.00  0.00     0.082 A
HETATM    6  C3  UNL     1     -48.151 -31.418 -15.895  1.00  0.00     0.027 A
HETATM    7  C4  UNL     1     -48.596 -29.955 -15.975  1.00  0.00     0.027 A
ENDBRANCH   3   5
TORSDOF 1
ENDMDL