MODEL 2
REMARK VINA RESULT: -3.260497369      0.084      1.104
REMARK  2 active torsions:
REMARK  status: ('A' for Active; 'I' for Inactive)
REMARK    1  A    between atoms: N1_1  and  C1_5
REMARK    2  A    between atoms: C1_5  and  C2_6
ROOT
HETATM    1  C2  UNL     1     -46.196 -30.483 -17.415  1.00  0.00    -0.002 A
HETATM    2  C3  UNL     1     -46.414 -30.111 -18.665  1.00  0.00     0.097 A
HETATM    3  N2  UNL     1     -45.928 -28.812 -18.399  1.00  0.00    -0.374 N
ATOM      4  H2  UNL     1     -45.807 -27.964 -18.952  1.00  0.00     0.164 HD
HETATM    5  C4  UNL     1     -45.703 -29.132 -17.185  1.00  0.00     0.097 A
ENDROOT
BRANCH   1   6
HETATM    6  C1  UNL     1     -46.357 -31.691 -16.581  1.00  0.00     0.270 C
BRANCH   6   7
HETATM    7  N1  UNL     1     -47.710 -31.847 -16.076  1.00  0.00    -0.075 N
ATOM      8  H13 UNL     1     -48.356 -31.224 -16.561  1.00  0.00     0.274 HD
ATOM      9  H12 UNL     1     -48.105 -32.744 -16.357  1.00  0.00     0.274 HD
ATOM     10  H11 UNL     1     -47.769 -31.721 -15.066  1.00  0.00     0.274 HD
ENDBRANCH   6   7
ENDBRANCH   1   6
TORSDOF 2
ENDMDL