MODEL 1
REMARK VINA RESULT: -3.748893005      0.000      0.000
REMARK  2 active torsions:
REMARK  status: ('A' for Active; 'I' for Inactive)
REMARK    1  A    between atoms: N1_1  and  C1_5
REMARK    2  A    between atoms: C1_5  and  C2_6
ROOT
HETATM    1  C1  UNL     1     -46.066 -28.980 -17.957  1.00  0.00     0.261 C
ENDROOT
BRANCH   1   2
HETATM    2  N1  UNL     1     -47.303 -28.266 -17.969  1.00  0.00    -0.077 N
ATOM      3  H13 UNL     1     -48.071 -28.882 -18.235  1.00  0.00     0.274 HD
ATOM      4  H12 UNL     1     -47.592 -28.034 -17.019  1.00  0.00     0.274 HD
ATOM      5  H11 UNL     1     -47.291 -27.432 -18.555  1.00  0.00     0.274 HD
ENDBRANCH   1   2
BRANCH   1   6
HETATM    6  C2  UNL     1     -46.201 -30.418 -17.550  1.00  0.00     0.148 C
HETATM    7  C3  UNL     1     -47.566 -30.802 -17.017  1.00  0.00     0.059 C
HETATM    8  C4  UNL     1     -47.075 -32.119 -17.634  1.00  0.00     0.170 C
HETATM    9  O1  UNL     1     -46.441 -31.310 -18.604  1.00  0.00    -0.384 OA
ENDBRANCH   1   6
TORSDOF 2
ENDMDL