MODEL 1
REMARK VINA RESULT: -3.781302984      0.000      0.000
REMARK  1 active torsions:
REMARK  status: ('A' for Active; 'I' for Inactive)
REMARK    1  A    between atoms: N1_1  and  C1_5
ROOT
HETATM    1  C1  UNL     1     -46.443 -29.947 -18.361  1.00  0.00     0.209 C
HETATM    2  C2  UNL     1     -46.086 -30.821 -17.149  1.00  0.00     0.061 C
HETATM    3  C3  UNL     1     -46.931 -32.041 -17.479  1.00  0.00     0.169 C
HETATM    4  O1  UNL     1     -47.944 -31.633 -18.303  1.00  0.00    -0.389 OA
HETATM    5  C4  UNL     1     -47.916 -30.279 -18.448  1.00  0.00     0.200 C
ENDROOT
BRANCH   1   6
HETATM    6  N1  UNL     1     -46.173 -28.569 -18.136  1.00  0.00    -0.073 N
ATOM      7  H13 UNL     1     -46.473 -28.003 -18.930  1.00  0.00     0.274 HD
ATOM      8  H12 UNL     1     -46.790 -28.187 -17.419  1.00  0.00     0.274 HD
ATOM      9  H11 UNL     1     -45.194 -28.396 -17.909  1.00  0.00     0.274 HD
ENDBRANCH   1   6
TORSDOF 1
ENDMDL