MODEL 2
REMARK VINA RESULT: -4.724534835      1.676      1.830
REMARK  1 active torsions:
REMARK  status: ('A' for Active; 'I' for Inactive)
REMARK    1  A    between atoms: C2_2  and  C3_3
ROOT
HETATM    1  C3  UNL     1     -47.296 -30.131 -16.806  1.00  0.00     0.089 A
HETATM    2  C4  UNL     1     -47.166 -28.905 -17.646  1.00  0.00     0.136 A
HETATM    3  N1  UNL     1     -46.774 -29.797 -18.707  1.00  0.00    -0.380 N
ATOM      4  H1  UNL     1     -46.506 -29.633 -19.678  1.00  0.00     0.160 HD
HETATM    5  C5  UNL     1     -46.878 -30.860 -18.017  1.00  0.00     0.098 A
HETATM    6  N2  UNL     1     -46.671 -32.232 -18.300  1.00  0.00    -0.087 NA
ENDROOT
BRANCH   1   7
HETATM    7  C2  UNL     1     -48.650 -30.433 -16.317  1.00  0.00    -0.024 C
HETATM    8  C1  UNL     1     -49.206 -29.707 -15.374  1.00  0.00     0.008 C
ENDBRANCH   1   7
TORSDOF 1
ENDMDL