MODEL 1
REMARK VINA RESULT: -4.280687001      0.000      0.000
REMARK  3 active torsions:
REMARK  status: ('A' for Active; 'I' for Inactive)
REMARK    1  A    between atoms: N1_1  and  C1_5
REMARK    2  A    between atoms: C1_5  and  C2_6
REMARK    3  A    between atoms: N2_8  and  O1_9
ROOT
HETATM    1  C2  UNL     1     -46.959 -30.518 -18.181  1.00  0.00     0.126 A
HETATM    2  C3  UNL     1     -46.075 -29.321 -18.208  1.00  0.00     0.144 A
HETATM    3  N2  UNL     1     -45.941 -30.379 -19.187  1.00  0.00    -0.191 NA
ENDROOT
BRANCH   1   4
HETATM    4  C1  UNL     1     -46.712 -31.570 -17.135  1.00  0.00     0.252 C
BRANCH   4   5
HETATM    5  N1  UNL     1     -47.787 -31.698 -16.196  1.00  0.00    -0.078 N
ATOM      6  H13 UNL     1     -47.552 -31.245 -15.313  1.00  0.00     0.274 HD
ATOM      7  H12 UNL     1     -48.582 -31.121 -16.474  1.00  0.00     0.274 HD
ATOM      8  H11 UNL     1     -48.075 -32.664 -16.044  1.00  0.00     0.274 HD
ENDBRANCH   4   5
ENDBRANCH   1   4
BRANCH   3   9
HETATM    9  O1  UNL     1     -46.303 -30.146 -20.469  1.00  0.00    -0.313 OA
ATOM     10  H1  UNL     1     -45.658 -29.817 -21.083  1.00  0.00     0.237 HD
ENDBRANCH   3   9
TORSDOF 3
ENDMDL