MODEL 1
REMARK VINA RESULT: -4.008147985      0.000      0.000
REMARK  1 active torsions:
REMARK  status: ('A' for Active; 'I' for Inactive)
REMARK    1  A    between atoms: C2_3  and  C3_4
ROOT
HETATM    1  N1  UNL     1     -46.993 -32.616 -18.282  1.00  0.00    -0.197 NA
HETATM    2  C1  UNL     1     -46.578 -31.731 -17.688  1.00  0.00     0.061 C
HETATM    3  C2  UNL     1     -46.052 -30.625 -16.916  1.00  0.00     0.158 C
ENDROOT
BRANCH   3   4
HETATM    4  C3  UNL     1     -46.413 -29.277 -17.481  1.00  0.00     0.224 A
HETATM    5  C4  UNL     1     -45.248 -28.301 -17.505  1.00  0.00     0.266 A
HETATM    6  N2  UNL     1     -45.887 -28.821 -18.718  1.00  0.00    -0.066 N
ATOM      7  H22 UNL     1     -45.527 -29.305 -19.542  1.00  0.00     0.277 HD
ATOM      8  H21 UNL     1     -46.309 -28.371 -19.530  1.00  0.00     0.277 HD
ENDBRANCH   3   4
TORSDOF 1
ENDMDL