MODEL 2
REMARK VINA RESULT: -4.036807785      2.056      2.992
REMARK  1 active torsions:
REMARK  status: ('A' for Active; 'I' for Inactive)
REMARK    1  A    between atoms: C2_2  and  C3_3
ROOT
HETATM    1  C3  UNL     1     -46.379 -30.653 -17.902  1.00  0.00     0.113 A
HETATM    2  C4  UNL     1     -47.678 -30.106 -18.325  1.00  0.00     0.078 A
HETATM    3  N1  UNL     1     -47.386 -28.879 -18.088  1.00  0.00    -0.358 N
ATOM      4  H1  UNL     1     -47.887 -27.996 -18.181  1.00  0.00     0.166 HD
HETATM    5  C5  UNL     1     -46.093 -29.240 -17.648  1.00  0.00     0.087 A
HETATM    6  N2  UNL     1     -45.114 -28.491 -17.207  1.00  0.00    -0.388 N
ATOM      7  H21 UNL     1     -44.915 -27.507 -17.030  1.00  0.00     0.157 HD
ATOM      8  H22 UNL     1     -44.180 -28.752 -16.890  1.00  0.00     0.157 HD
ENDROOT
BRANCH   1   9
HETATM    9  C2  UNL     1     -46.496 -31.466 -16.651  1.00  0.00    -0.020 C
HETATM   10  C1  UNL     1     -47.675 -31.795 -16.171  1.00  0.00     0.008 C
ENDBRANCH   1   9
TORSDOF 1
ENDMDL