MODEL 2
REMARK VINA RESULT: -4.066392665      1.379      1.729
REMARK  2 active torsions:
REMARK  status: ('A' for Active; 'I' for Inactive)
REMARK    1  A    between atoms: C3_3  and  N1_4
REMARK    2  A    between atoms: N1_4  and  C4_7
ROOT
HETATM    1  N1  UNL     1     -18.774  -8.370   9.857  1.00  0.00    -0.043 N
ATOM      2  H11 UNL     1     -18.024  -8.926   9.445  1.00  0.00     0.280 HD
ATOM      3  H12 UNL     1     -18.243  -7.870  10.569  1.00  0.00     0.280 HD
ENDROOT
BRANCH   1   4
HETATM    4  C3  UNL     1     -19.764  -9.220  10.463  1.00  0.00     0.189 A
HETATM    5  C1  UNL     1     -19.563 -10.682  10.503  1.00  0.00     0.035 A
HETATM    6  C2  UNL     1     -20.647 -10.099   9.666  1.00  0.00     0.035 A
ENDBRANCH   1   4
BRANCH   1   7
HETATM    7  C4  UNL     1     -19.317  -7.457   8.892  1.00  0.00     0.345 A
HETATM    8  C5  UNL     1     -20.263  -6.448   9.204  1.00  0.00     0.231 A
HETATM    9  O1  UNL     1     -18.866  -6.073   9.032  1.00  0.00    -0.353 OA
ENDBRANCH   1   7
TORSDOF 2
ENDMDL