MODEL 1
REMARK VINA RESULT: -4.308347388      0.000      0.000
REMARK  2 active torsions:
REMARK  status: ('A' for Active; 'I' for Inactive)
REMARK    1  A    between atoms: C2_2  and  N1_3
REMARK    2  A    between atoms: N1_3  and  C3_5
ROOT
HETATM    1  C3  UNL     1     -19.033  -8.035   9.166  1.00  0.00     0.227 A
HETATM    2  N2  UNL     1     -19.695  -8.149  10.325  1.00  0.00    -0.330 N
ATOM      3  H2  UNL     1     -19.894  -9.027  10.805  1.00  0.00     0.168 HD
HETATM    4  C4  UNL     1     -20.063  -6.916  10.765  1.00  0.00     0.116 A
HETATM    5  C5  UNL     1     -19.586  -6.047   9.808  1.00  0.00     0.162 A
HETATM    6  O1  UNL     1     -18.989  -6.758   8.889  1.00  0.00    -0.290 OA
ENDROOT
BRANCH   1   7
HETATM    7  N1  UNL     1     -18.530  -9.007   8.453  1.00  0.00    -0.333 N
ATOM      8  H1  UNL     1     -17.522  -9.166   8.465  1.00  0.00     0.168 HD
BRANCH   7   9
HETATM    9  C2  UNL     1     -19.357  -9.846   7.662  1.00  0.00     0.081 C
HETATM   10  C1  UNL     1     -20.560  -9.506   7.276  1.00  0.00     0.030 C
ENDBRANCH   7   9
ENDBRANCH   1   7
TORSDOF 2
ENDMDL