MODEL 5
REMARK VINA RESULT: -4.588781536      1.984      3.063
REMARK  1 active torsions:
REMARK  status: ('A' for Active; 'I' for Inactive)
REMARK    1  A    between atoms: N2_3  and  N3_5
ROOT
HETATM    1  N1  UNL     1     -19.118  -5.738   9.202  1.00  0.00    -0.171 NA
HETATM    2  C1  UNL     1     -19.634  -6.758   9.391  1.00  0.00     0.193 C
HETATM    3  N2  UNL     1     -20.247  -7.989   9.616  1.00  0.00    -0.256 N
ATOM      4  H2  UNL     1     -20.574  -8.508   8.801  1.00  0.00     0.193 HD
ENDROOT
BRANCH   3   5
HETATM    5  N3  UNL     1     -20.447  -8.561  10.859  1.00  0.00    -0.222 NA
HETATM    6  C2  UNL     1     -21.530  -7.863  11.507  1.00  0.00     0.114 C
HETATM    7  C3  UNL     1     -22.175  -8.950  12.376  1.00  0.00     0.017 C
HETATM    8  C4  UNL     1     -22.202 -10.085  11.344  1.00  0.00     0.017 C
HETATM    9  C5  UNL     1     -20.760  -9.953  10.835  1.00  0.00     0.114 C
ENDBRANCH   3   5
TORSDOF 1
ENDMDL