MODEL 3
REMARK VINA RESULT: -3.844259685      2.322      3.573
REMARK  3 active torsions:
REMARK  status: ('A' for Active; 'I' for Inactive)
REMARK    1  A    between atoms: C2_2  and  O1_3
REMARK    2  A    between atoms: O1_3  and  C3_4
REMARK    3  A    between atoms: C5_6  and  N1_7
ROOT
HETATM    1  C3  UNL     1     -19.157  -8.772   8.465  1.00  0.00     0.131 C
HETATM    2  C4  UNL     1     -19.576  -9.625   9.664  1.00  0.00     0.065 C
HETATM    3  C5  UNL     1     -20.501 -10.345   8.672  1.00  0.00     0.188 C
HETATM    4  C6  UNL     1     -19.423 -10.027   7.628  1.00  0.00     0.065 C
ENDROOT
BRANCH   3   5
HETATM    5  N1  UNL     1     -20.616 -11.754   8.886  1.00  0.00    -0.075 N
ATOM      6  H13 UNL     1     -21.228 -11.944   9.680  1.00  0.00     0.274 HD
ATOM      7  H12 UNL     1     -21.161 -12.183   8.138  1.00  0.00     0.274 HD
ATOM      8  H11 UNL     1     -19.726 -12.239   8.999  1.00  0.00     0.274 HD
ENDBRANCH   3   5
BRANCH   1   9
HETATM    9  O1  UNL     1     -20.147  -7.807   8.196  1.00  0.00    -0.358 OA
BRANCH   9  10
HETATM   10  C2  UNL     1     -20.244  -6.611   8.887  1.00  0.00     0.125 C
HETATM   11  C1  UNL     1     -21.054  -6.491   9.904  1.00  0.00     0.037 C
ENDBRANCH   9  10
ENDBRANCH   1   9
TORSDOF 3
ENDMDL