MODEL 2
REMARK VINA RESULT: -4.852359303      1.002      1.522
REMARK  2 active torsions:
REMARK  status: ('A' for Active; 'I' for Inactive)
REMARK    1  A    between atoms: O1_3  and  N1_4
REMARK    2  A    between atoms: N1_4  and  C3_5
ROOT
HETATM    1  C1  UNL     1     -19.873 -10.552   8.254  1.00  0.00     0.046 C
HETATM    2  C2  UNL     1     -19.638  -9.377   8.065  1.00  0.00     0.068 C
HETATM    3  O1  UNL     1     -19.389  -8.056   7.842  1.00  0.00    -0.193 OA
ENDROOT
BRANCH   3   4
HETATM    4  N1  UNL     1     -18.661  -7.281   8.681  1.00  0.00    -0.079 NA
BRANCH   4   5
HETATM    5  C3  UNL     1     -19.554  -6.515   9.498  1.00  0.00     0.108 C
HETATM    6  C4  UNL     1     -21.008  -6.508   9.037  1.00  0.00     0.024 C
HETATM    7  C5  UNL     1     -21.369  -6.450  10.529  1.00  0.00     0.003 C
HETATM    8  C6  UNL     1     -20.067  -7.235  10.744  1.00  0.00     0.024 C
ENDBRANCH   4   5
ENDBRANCH   3   4
TORSDOF 2
ENDMDL