MODEL 1
REMARK VINA RESULT: -4.038922336      0.000      0.000
REMARK  3 active torsions:
REMARK  status: ('A' for Active; 'I' for Inactive)
REMARK    1  A    between atoms: N1_1  and  O1_4
REMARK    2  A    between atoms: O1_4  and  N2_5
REMARK    3  A    between atoms: C1_7  and  C2_8
ROOT
HETATM    1  N2  UNL     1     -19.390  -7.126   9.476  1.00  0.00    -0.257 N
ATOM      2  H2  UNL     1     -20.139  -6.449   9.334  1.00  0.00     0.195 HD
HETATM    3  C1  UNL     1     -19.351  -7.799  10.585  1.00  0.00     0.094 C
ENDROOT
BRANCH   1   4
HETATM    4  O1  UNL     1     -18.469  -7.295   8.506  1.00  0.00    -0.165 OA
BRANCH   4   5
HETATM    5  N1  UNL     1     -17.709  -8.420   8.381  1.00  0.00    -0.286 N
ATOM      6  H12 UNL     1     -17.619  -8.822   7.448  1.00  0.00     0.186 HD
ATOM      7  H11 UNL     1     -17.235  -8.867   9.166  1.00  0.00     0.186 HD
ENDBRANCH   4   5
ENDBRANCH   1   4
BRANCH   3   8
HETATM    8  C2  UNL     1     -20.371  -7.599  11.640  1.00  0.00     0.026 A
HETATM    9  C3  UNL     1     -21.575  -8.490  11.601  1.00  0.00     0.010 A
HETATM   10  C4  UNL     1     -21.688  -7.037  11.198  1.00  0.00     0.010 A
ENDBRANCH   3   8
TORSDOF 3
ENDMDL