MODEL 3
REMARK VINA RESULT: -3.600632183      1.901      2.548
REMARK  1 active torsions:
REMARK  status: ('A' for Active; 'I' for Inactive)
REMARK    1  A    between atoms: C2_2  and  N1_3
ROOT
HETATM    1  N1  UNL     1     -20.167  -9.230  10.205  1.00  0.00    -0.366 N
HETATM    2  C3  UNL     1     -19.169  -8.199  10.330  1.00  0.00     0.151 C
HETATM    3  C4  UNL     1     -18.907  -7.941   8.837  1.00  0.00     0.254 C
HETATM    4  N2  UNL     1     -18.699  -9.320   8.421  1.00  0.00    -0.058 N
ATOM      5  H21 UNL     1     -17.810  -9.735   8.700  1.00  0.00     0.279 HD
ATOM      6  H22 UNL     1     -18.551  -9.462   7.422  1.00  0.00     0.279 HD
HETATM    7  C5  UNL     1     -19.907  -9.958   8.985  1.00  0.00     0.356 C
ENDROOT
BRANCH   1   8
HETATM    8  C2  UNL     1     -21.214  -9.487  11.107  1.00  0.00     0.077 C
HETATM    9  C1  UNL     1     -21.766  -8.481  11.803  1.00  0.00     0.029 C
ENDBRANCH   1   8
TORSDOF 1
ENDMDL