MODEL 4
REMARK VINA RESULT: -4.131122023      1.815      2.293
REMARK  2 active torsions:
REMARK  status: ('A' for Active; 'I' for Inactive)
REMARK    1  A    between atoms: C2_2  and  C3_3
REMARK    2  A    between atoms: C5_6  and  N1_7
ROOT
HETATM    1  C3  UNL     1     -18.817  -8.279   8.707  1.00  0.00     0.176 C
HETATM    2  O1  UNL     1     -19.563  -7.185   8.333  1.00  0.00    -0.378 OA
HETATM    3  C4  UNL     1     -19.584  -6.769   9.660  1.00  0.00     0.204 C
HETATM    4  C5  UNL     1     -19.229  -8.137  10.160  1.00  0.00     0.239 C
ENDROOT
BRANCH   4   5
HETATM    5  N1  UNL     1     -18.110  -8.231  11.042  1.00  0.00    -0.070 N
ATOM      6  H13 UNL     1     -17.229  -8.188  10.530  1.00  0.00     0.274 HD
ATOM      7  H12 UNL     1     -18.009  -7.385  11.605  1.00  0.00     0.274 HD
ATOM      8  H11 UNL     1     -18.156  -9.064  11.630  1.00  0.00     0.274 HD
ENDBRANCH   4   5
BRANCH   1   9
HETATM    9  C2  UNL     1     -19.250  -9.554   8.072  1.00  0.00    -0.003 C
HETATM   10  C1  UNL     1     -20.075 -10.331   8.766  1.00  0.00     0.009 C
ENDBRANCH   1   9
TORSDOF 2
ENDMDL