MODEL 2
REMARK VINA RESULT: -3.949041463      1.333      2.846
REMARK  1 active torsions:
REMARK  status: ('A' for Active; 'I' for Inactive)
REMARK    1  A    between atoms: C1_4  and  C2_5
ROOT
HETATM    1  C2  UNL     1     -19.027  -7.971   9.023  1.00  0.00     0.223 C
HETATM    2  C3  UNL     1     -20.128  -6.955   9.203  1.00  0.00     0.040 C
HETATM    3  C4  UNL     1     -20.547  -7.231  10.653  1.00  0.00     0.030 C
HETATM    4  C5  UNL     1     -19.130  -7.360  11.235  1.00  0.00     0.233 C
HETATM    5  N2  UNL     1     -18.623  -8.402  10.344  1.00  0.00    -0.066 N
ATOM      6  H21 UNL     1     -17.623  -8.580  10.437  1.00  0.00     0.278 HD
ATOM      7  H22 UNL     1     -18.929  -9.344  10.588  1.00  0.00     0.278 HD
ENDROOT
BRANCH   1   8
HETATM    8  C1  UNL     1     -19.543  -9.168   8.300  1.00  0.00     0.085 C
HETATM    9  N1  UNL     1     -20.522  -9.151   7.498  1.00  0.00    -0.409 N
ATOM     10  H12 UNL     1     -20.978  -8.251   7.349  1.00  0.00     0.155 HD
ATOM     11  H11 UNL     1     -20.875  -9.970   7.004  1.00  0.00     0.155 HD
ENDBRANCH   1   8
TORSDOF 1
ENDMDL