MODEL 2
REMARK VINA RESULT: -3.942244259      1.165      1.165
REMARK  1 active torsions:
REMARK  status: ('A' for Active; 'I' for Inactive)
REMARK    1  A    between atoms: C2_2  and  C3_3
ROOT
HETATM    1  C3  UNL     1     -19.279  -8.218   9.153  1.00  0.00     0.344 C
HETATM    2  N1  UNL     1     -18.646  -8.389  10.454  1.00  0.00    -0.043 N
ATOM      3  H11 UNL     1     -17.626  -8.390  10.465  1.00  0.00     0.280 HD
ATOM      4  H12 UNL     1     -18.723  -9.313  10.878  1.00  0.00     0.280 HD
HETATM    5  C4  UNL     1     -19.305  -7.287  11.169  1.00  0.00     0.262 C
HETATM    6  C5  UNL     1     -19.520  -6.274  10.054  1.00  0.00     0.198 C
HETATM    7  O1  UNL     1     -19.017  -6.885   8.891  1.00  0.00    -0.355 OA
ENDROOT
BRANCH   1   8
HETATM    8  C2  UNL     1     -18.763  -9.135   8.132  1.00  0.00     0.023 C
HETATM    9  C1  UNL     1     -19.480 -10.011   7.456  1.00  0.00     0.011 C
ENDBRANCH   1   8
TORSDOF 1
ENDMDL