MODEL 3
REMARK VINA RESULT: -3.619608571      1.140      1.140
REMARK  1 active torsions:
REMARK  status: ('A' for Active; 'I' for Inactive)
REMARK    1  A    between atoms: N2_3  and  C2_5
ROOT
HETATM    1  N1  UNL     1      28.906  48.707  51.321  1.00  0.00    -0.172 NA
HETATM    2  C1  UNL     1      28.233  47.989  50.689  1.00  0.00     0.177 C
HETATM    3  N2  UNL     1      27.430  47.125  49.937  1.00  0.00    -0.324 N
ATOM      4  H2  UNL     1      27.783  46.769  49.049  1.00  0.00     0.172 HD
ENDROOT
BRANCH   3   5
HETATM    5  C2  UNL     1      26.103  46.718  50.386  1.00  0.00     0.092 A
HETATM    6  C3  UNL     1      25.510  47.390  51.587  1.00  0.00     0.028 A
HETATM    7  C4  UNL     1      24.935  47.602  50.178  1.00  0.00     0.028 A
ENDBRANCH   3   5
TORSDOF 1
ENDMDL