MODEL 4
REMARK VINA RESULT: -2.790732565      1.414      1.935
REMARK  0 active torsions:
REMARK  status: ('A' for Active; 'I' for Inactive)
ROOT
HETATM    1  C1  UNL     1      26.313  48.145  50.913  1.00  0.00     0.261 C
HETATM    2  C2  UNL     1      27.481  47.245  51.247  1.00  0.00     0.261 C
HETATM    3  N1  UNL     1      28.326  48.148  52.020  1.00  0.00    -0.050 N
ATOM      4  H11 UNL     1      29.246  47.789  52.277  1.00  0.00     0.279 HD
ATOM      5  H12 UNL     1      28.036  48.318  52.982  1.00  0.00     0.279 HD
HETATM    6  C3  UNL     1      28.316  49.302  51.137  1.00  0.00     0.462 C
HETATM    7  N2  UNL     1      26.886  49.471  50.891  1.00  0.00    -0.050 N
ATOM      8  H21 UNL     1      26.436  50.118  51.540  1.00  0.00     0.279 HD
ATOM      9  H22 UNL     1      26.680  49.988  50.036  1.00  0.00     0.279 HD
ENDROOT
TORSDOF 0
ENDMDL