MODEL 4
REMARK VINA RESULT: -3.743709346      1.489      2.172
REMARK  1 active torsions:
REMARK  status: ('A' for Active; 'I' for Inactive)
REMARK    1  A    between atoms: N1_1  and  C1_4
ROOT
HETATM    1  C1  UNL     1      27.564  48.443  51.074  1.00  0.00     0.114 A
HETATM    2  C2  UNL     1      27.357  47.341  50.269  1.00  0.00     0.135 A
HETATM    3  N2  UNL     1      27.984  46.162  50.481  1.00  0.00    -0.371 N
ATOM      4  H2  UNL     1      27.802  45.372  49.862  1.00  0.00     0.164 HD
HETATM    5  C3  UNL     1      28.848  46.024  51.503  1.00  0.00     0.104 A
HETATM    6  C4  UNL     1      29.058  47.126  52.309  1.00  0.00     0.106 A
HETATM    7  N3  UNL     1      28.426  48.297  52.089  1.00  0.00    -0.350 N
ATOM      8  H3  UNL     1      28.607  49.087  52.708  1.00  0.00     0.166 HD
ENDROOT
BRANCH   1   9
HETATM    9  N1  UNL     1      26.959  49.576  50.869  1.00  0.00    -0.384 N
ATOM     10  H12 UNL     1      27.185  50.152  50.057  1.00  0.00     0.157 HD
ATOM     11  H11 UNL     1      26.243  49.933  51.502  1.00  0.00     0.157 HD
ENDBRANCH   1   9
TORSDOF 1
ENDMDL