MODEL 5
REMARK VINA RESULT: -3.585643632      2.363      2.969
REMARK  1 active torsions:
REMARK  status: ('A' for Active; 'I' for Inactive)
REMARK    1  A    between atoms: N2_4  and  C1_6
ROOT
HETATM    1  C1  UNL     1      26.857  47.608  50.876  1.00  0.00     0.099 A
HETATM    2  N3  UNL     1      27.487  46.873  50.067  1.00  0.00    -0.358 N
ATOM      3  H3  UNL     1      27.425  46.770  49.054  1.00  0.00     0.166 HD
HETATM    4  C2  UNL     1      28.297  46.247  51.013  1.00  0.00     0.070 A
HETATM    5  C3  UNL     1      27.586  47.088  52.008  1.00  0.00     0.122 A
ENDROOT
BRANCH   1   6
HETATM    6  N2  UNL     1      25.796  48.591  50.643  1.00  0.00    -0.295 N
HETATM    7  N1  UNL     1      24.665  48.149  50.264  1.00  0.00    -0.344 N
ATOM      8  H12 UNL     1      24.520  47.147  50.132  1.00  0.00     0.176 HD
ATOM      9  H11 UNL     1      23.926  48.833  50.102  1.00  0.00     0.176 HD
ATOM     10  H2  UNL     1      25.956  49.589  50.780  1.00  0.00     0.187 HD
ENDBRANCH   1   6
TORSDOF 1
ENDMDL