MODEL 3
REMARK VINA RESULT: -3.484645479      2.024      2.233
REMARK  2 active torsions:
REMARK  status: ('A' for Active; 'I' for Inactive)
REMARK    1  A    between atoms: N1_1  and  C1_5
REMARK    2  A    between atoms: C1_5  and  C2_6
ROOT
HETATM    1  C2  UNL     1      27.256  48.229  50.932  1.00  0.00     0.350 C
HETATM    2  N2  UNL     1      25.841  48.567  50.745  1.00  0.00    -0.026 N
ATOM      3  H21 UNL     1      25.432  48.857  49.857  1.00  0.00     0.282 HD
ATOM      4  H22 UNL     1      25.397  49.406  51.118  1.00  0.00     0.282 HD
HETATM    5  C3  UNL     1      25.694  47.223  51.327  1.00  0.00     0.405 C
HETATM    6  O1  UNL     1      26.856  47.537  52.075  1.00  0.00    -0.330 OA
ENDROOT
BRANCH   1   7
HETATM    7  C1  UNL     1      28.160  49.399  51.164  1.00  0.00     0.290 C
BRANCH   7   8
HETATM    8  N1  UNL     1      27.405  50.597  50.770  1.00  0.00    -0.075 N
ATOM      9  H13 UNL     1      26.398  50.441  50.724  1.00  0.00     0.274 HD
ATOM     10  H12 UNL     1      27.390  51.319  51.490  1.00  0.00     0.274 HD
ATOM     11  H11 UNL     1      27.805  50.915  49.888  1.00  0.00     0.274 HD
ENDBRANCH   7   8
ENDBRANCH   1   7
TORSDOF 2
ENDMDL