MODEL 5
REMARK VINA RESULT: -3.168395334      1.495      2.660
REMARK  1 active torsions:
REMARK  status: ('A' for Active; 'I' for Inactive)
REMARK    1  A    between atoms: N1_1  and  N2_4
ROOT
HETATM    1  N2  UNL     1      28.317  47.762  51.494  1.00  0.00    -0.293 N
HETATM    2  C1  UNL     1      28.143  49.147  51.266  1.00  0.00     0.195 C
HETATM    3  N3  UNL     1      26.966  49.408  50.855  1.00  0.00    -0.383 N
ATOM      4  H3  UNL     1      26.615  50.338  50.626  1.00  0.00     0.160 HD
HETATM    5  C2  UNL     1      26.205  48.189  50.765  1.00  0.00     0.142 C
HETATM    6  C3  UNL     1      27.282  47.135  50.700  1.00  0.00     0.168 C
ENDROOT
BRANCH   1   7
HETATM    7  N1  UNL     1      29.269  47.161  52.298  1.00  0.00    -0.342 N
ATOM      8  H12 UNL     1      29.655  47.493  53.183  1.00  0.00     0.177 HD
ATOM      9  H11 UNL     1      29.744  46.274  52.132  1.00  0.00     0.177 HD
ENDBRANCH   1   7
TORSDOF 1
ENDMDL