MODEL 3
REMARK VINA RESULT: -3.742590254      1.403      1.946
REMARK  2 active torsions:
REMARK  status: ('A' for Active; 'I' for Inactive)
REMARK    1  A    between atoms: N1_1  and  C1_5
REMARK    2  A    between atoms: C1_5  and  C2_6
ROOT
HETATM    1  C2  UNL     1      28.047  48.667  50.815  1.00  0.00     0.125 C
HETATM    2  C3  UNL     1      26.658  48.142  50.750  1.00  0.00     0.147 C
HETATM    3  N2  UNL     1      26.481  47.410  51.989  1.00  0.00    -0.384 N
ATOM      4  H2  UNL     1      25.583  47.111  52.369  1.00  0.00     0.160 HD
HETATM    5  C4  UNL     1      27.627  47.193  52.538  1.00  0.00     0.171 C
HETATM    6  N3  UNL     1      28.683  47.739  51.753  1.00  0.00    -0.379 N
ATOM      7  H3  UNL     1      29.678  47.527  51.829  1.00  0.00     0.160 HD
ENDROOT
BRANCH   1   8
HETATM    8  C1  UNL     1      28.169  50.054  51.366  1.00  0.00     0.256 C
BRANCH   8   9
HETATM    9  N1  UNL     1      27.321  50.982  50.687  1.00  0.00    -0.077 N
ATOM     10  H13 UNL     1      26.847  50.540  49.899  1.00  0.00     0.274 HD
ATOM     11  H12 UNL     1      26.507  51.219  51.254  1.00  0.00     0.274 HD
ATOM     12  H11 UNL     1      27.822  51.819  50.394  1.00  0.00     0.274 HD
ENDBRANCH   8   9
ENDBRANCH   1   8
TORSDOF 2
ENDMDL