MODEL 3
REMARK VINA RESULT: -3.884307856      1.842      3.035
REMARK  2 active torsions:
REMARK  status: ('A' for Active; 'I' for Inactive)
REMARK    1  A    between atoms: N1_1  and  C1_5
REMARK    2  A    between atoms: C1_5  and  C2_6
ROOT
HETATM    1  C2  UNL     1      27.418  48.248  50.827  1.00  0.00     0.001 A
HETATM    2  C3  UNL     1      27.983  47.038  50.508  1.00  0.00     0.117 A
HETATM    3  N2  UNL     1      26.966  46.215  50.240  1.00  0.00    -0.312 N
ATOM      4  H2  UNL     1      27.078  45.238  49.970  1.00  0.00     0.186 HD
HETATM    5  N3  UNL     1      25.805  46.815  50.366  1.00  0.00    -0.312 N
ATOM      6  H3  UNL     1      24.886  46.400  50.215  1.00  0.00     0.186 HD
HETATM    7  C4  UNL     1      26.058  48.072  50.728  1.00  0.00     0.117 A
ENDROOT
BRANCH   1   8
HETATM    8  C1  UNL     1      28.148  49.503  51.207  1.00  0.00     0.271 C
BRANCH   8   9
HETATM    9  N1  UNL     1      27.395  50.639  50.777  1.00  0.00    -0.075 N
ATOM     10  H13 UNL     1      26.708  50.399  50.062  1.00  0.00     0.274 HD
ATOM     11  H12 UNL     1      26.749  50.967  51.495  1.00  0.00     0.274 HD
ATOM     12  H11 UNL     1      28.034  51.372  50.468  1.00  0.00     0.274 HD
ENDBRANCH   8   9
ENDBRANCH   1   8
TORSDOF 2
ENDMDL