MODEL 3
REMARK VINA RESULT: -3.621483883      1.270      1.726
REMARK  1 active torsions:
REMARK  status: ('A' for Active; 'I' for Inactive)
REMARK    1  A    between atoms: N1_1  and  C1_4
ROOT
HETATM    1  C1  UNL     1      27.738  48.599  50.629  1.00  0.00     0.691 A
HETATM    2  N2  UNL     1      26.421  48.754  50.849  1.00  0.00    -0.186 N
ATOM      3  H2  UNL     1      25.969  49.571  51.260  1.00  0.00     0.185 HD
HETATM    4  C2  UNL     1      25.810  47.638  50.430  1.00  0.00     0.215 A
HETATM    5  N3  UNL     1      26.750  46.819  49.963  1.00  0.00    -0.281 N
ATOM      6  H3  UNL     1      26.587  45.889  49.575  1.00  0.00     0.188 HD
HETATM    7  N4  UNL     1      27.913  47.395  50.081  1.00  0.00    -0.132 N
ATOM      8  H4  UNL     1      28.808  46.993  49.801  1.00  0.00     0.205 HD
ENDROOT
BRANCH   1   9
HETATM    9  N1  UNL     1      28.651  49.492  50.916  1.00  0.00    -0.233 N
ATOM     10  H12 UNL     1      28.833  50.377  50.443  1.00  0.00     0.174 HD
ATOM     11  H11 UNL     1      29.322  49.411  51.681  1.00  0.00     0.174 HD
ENDBRANCH   1   9
TORSDOF 1
ENDMDL