MODEL 2
REMARK VINA RESULT: -3.450540280      1.759      3.069
REMARK  1 active torsions:
REMARK  status: ('A' for Active; 'I' for Inactive)
REMARK    1  A    between atoms: C4_5  and  N2_6
ROOT
HETATM    1  C1  UNL     1      28.706  46.393  53.833  1.00  0.00     0.037 C
HETATM    2  C2  UNL     1      28.459  47.181  52.952  1.00  0.00    -0.001 C
HETATM    3  N1  UNL     1      28.197  48.094  51.928  1.00  0.00    -0.308 N
HETATM    4  C3  UNL     1      28.385  49.362  51.249  1.00  0.00     0.190 A
HETATM    5  C4  UNL     1      27.439  48.422  50.663  1.00  0.00     0.310 A
ENDROOT
BRANCH   5   6
HETATM    6  N2  UNL     1      26.015  48.544  50.898  1.00  0.00    -0.056 N
ATOM      7  H23 UNL     1      25.799  48.484  51.893  1.00  0.00     0.276 HD
ATOM      8  H22 UNL     1      25.691  49.495  50.719  1.00  0.00     0.276 HD
ATOM      9  H21 UNL     1      25.478  47.863  50.361  1.00  0.00     0.276 HD
ENDBRANCH   5   6
TORSDOF 1
ENDMDL