MODEL 3
REMARK VINA RESULT: -8.071381773      2.638      7.506
REMARK  6 active torsions:
REMARK  status: ('A' for Active; 'I' for Inactive)
REMARK    1  A    between atoms: C3_3  and  C4_4
REMARK    2  A    between atoms: C4_4  and  N1_5
REMARK    3  A    between atoms: C7_10  and  N3_11
REMARK    4  A    between atoms: N3_11  and  C8_13
REMARK    5  A    between atoms: C8_13  and  C9_14
REMARK    6  A    between atoms: C9_14  and  N4_15
ROOT
HETATM    1  C1  UNL     1     -42.837 -30.636 -10.132  1.00  0.00     0.112 C
HETATM    2  C2  UNL     1     -42.841 -30.006  -8.816  1.00  0.00    -0.109 C
HETATM    3  C3  UNL     1     -42.858 -29.503  -7.709  1.00  0.00    -0.087 C
ENDROOT
BRANCH   3   4
HETATM    4  C4  UNL     1     -42.895 -28.925  -6.370  1.00  0.00     0.225 C
BRANCH   4   5
HETATM    5  N1  UNL     1     -44.221 -29.083  -5.831  1.00  0.00    -0.316 N
HETATM    6  C5  UNL     1     -44.565 -29.759  -4.734  1.00  0.00     0.186 A
HETATM    7  N2  UNL     1     -45.906 -29.671  -4.531  1.00  0.00    -0.346 N
HETATM    8  C6  UNL     1     -46.450 -28.934  -5.498  1.00  0.00     0.123 A
ATOM      9  H2  UNL     1     -46.416 -30.102  -3.759  1.00  0.00     0.167 HD
HETATM   10  C7  UNL     1     -47.736 -28.535  -5.800  1.00  0.00     0.151 A
HETATM   11  C15 UNL     1     -45.378 -28.569  -6.313  1.00  0.00     0.155 A
HETATM   12  N6  UNL     1     -47.907 -27.789  -6.902  1.00  0.00    -0.174 N
HETATM   13  C14 UNL     1     -46.838 -27.445  -7.686  1.00  0.00     0.679 A
ATOM     14  H6  UNL     1     -48.843 -27.475  -7.159  1.00  0.00     0.186 HD
HETATM   15  N7  UNL     1     -47.073 -26.729  -8.723  1.00  0.00    -0.234 N
HETATM   16  N8  UNL     1     -45.585 -27.829  -7.396  1.00  0.00    -0.174 N
ATOM     17  H72 UNL     1     -48.025 -26.436  -8.943  1.00  0.00     0.174 HD
ATOM     18  H71 UNL     1     -46.277 -26.472  -9.307  1.00  0.00     0.174 HD
ATOM     19  H8  UNL     1     -44.807 -27.557  -7.996  1.00  0.00     0.186 HD
BRANCH  10  20
HETATM   20  N3  UNL     1     -48.712 -28.855  -5.050  1.00  0.00    -0.352 N
ATOM     21  H3  UNL     1     -49.017 -28.109  -4.424  1.00  0.00     0.166 HD
BRANCH  20  22
HETATM   22  C8  UNL     1     -49.442 -30.037  -4.924  1.00  0.00     0.092 C
BRANCH  22  23
HETATM   23  C9  UNL     1     -50.370 -30.347  -6.034  1.00  0.00     0.317 C
BRANCH  23  24
HETATM   24  N4  UNL     1     -51.391 -31.314  -5.790  1.00  0.00     0.096 N
HETATM   25  C10 UNL     1     -50.936 -32.306  -4.820  1.00  0.00     0.300 C
HETATM   26  C11 UNL     1     -52.006 -33.253  -4.418  1.00  0.00     0.262 C
HETATM   27  N5  UNL     1     -52.959 -32.447  -3.633  1.00  0.00    -0.072 N
HETATM   28  C12 UNL     1     -53.558 -31.539  -4.550  1.00  0.00     0.262 C
ATOM     29  H52 UNL     1     -53.635 -33.008  -3.116  1.00  0.00     0.277 HD
ATOM     30  H51 UNL     1     -52.534 -31.988  -2.827  1.00  0.00     0.277 HD
HETATM   31  C13 UNL     1     -52.693 -30.823  -5.506  1.00  0.00     0.300 C
ENDBRANCH  23  24
ENDBRANCH  22  23
ENDBRANCH  20  22
ENDBRANCH  10  20
ENDBRANCH   4   5
ENDBRANCH   3   4
TORSDOF 6
ENDMDL