MODEL 5
REMARK VINA RESULT: -7.283203757      1.533      1.878
REMARK  7 active torsions:
REMARK  status: ('A' for Active; 'I' for Inactive)
REMARK    1  A    between atoms: C2_2  and  N1_3
REMARK    2  A    between atoms: N1_3  and  C3_5
REMARK    3  A    between atoms: C4_8  and  N3_9
REMARK    4  A    between atoms: C8_13  and  N4_14
REMARK    5  A    between atoms: C10_21  and  N6_22
REMARK    6  A    between atoms: N6_22  and  C11_24
REMARK    7  A    between atoms: C11_24  and  C13_26
ROOT
HETATM    1  C3  UNL     1     -48.319 -31.022  -9.446  1.00  0.00     0.707 A
HETATM    2  N2  UNL     1     -47.164 -30.374  -9.248  1.00  0.00    -0.021 N
ATOM      3  H2  UNL     1     -46.365 -30.553  -9.857  1.00  0.00     0.203 HD
HETATM    4  C4  UNL     1     -47.060 -29.471  -8.225  1.00  0.00     0.709 A
HETATM    5  N5  UNL     1     -48.152 -29.295  -7.475  1.00  0.00    -0.021 N
ATOM      6  H5  UNL     1     -48.102 -28.627  -6.706  1.00  0.00     0.203 HD
HETATM    7  C10 UNL     1     -49.311 -29.944  -7.672  1.00  0.00     0.707 A
HETATM    8  N7  UNL     1     -49.402 -30.830  -8.680  1.00  0.00    -0.022 N
ATOM      9  H7  UNL     1     -50.268 -31.340  -8.855  1.00  0.00     0.203 HD
ENDROOT
BRANCH   4  10
HETATM   10  N3  UNL     1     -45.841 -28.772  -8.000  1.00  0.00    -0.215 N
HETATM   11  C5  UNL     1     -45.634 -28.214  -6.676  1.00  0.00     0.141 C
HETATM   12  C6  UNL     1     -44.354 -28.874  -6.152  1.00  0.00     0.022 C
HETATM   13  C7  UNL     1     -43.245 -28.329  -7.043  1.00  0.00     0.036 C
HETATM   14  C8  UNL     1     -43.427 -28.772  -8.453  1.00  0.00     0.202 C
HETATM   15  C9  UNL     1     -44.817 -28.586  -8.983  1.00  0.00     0.173 C
BRANCH  14  16
HETATM   16  N4  UNL     1     -42.491 -27.987  -9.271  1.00  0.00    -0.073 N
ATOM     17  H43 UNL     1     -41.540 -27.985  -8.903  1.00  0.00     0.274 HD
ATOM     18  H42 UNL     1     -42.280 -28.423 -10.170  1.00  0.00     0.274 HD
ATOM     19  H41 UNL     1     -42.889 -27.053  -9.362  1.00  0.00     0.274 HD
ENDBRANCH  14  16
ENDBRANCH   4  10
BRANCH   1  20
HETATM   20  N1  UNL     1     -48.399 -31.866 -10.409  1.00  0.00    -0.225 N
ATOM     21  H1  UNL     1     -47.541 -32.267 -10.786  1.00  0.00     0.177 HD
BRANCH  20  22
HETATM   22  C2  UNL     1     -49.666 -32.267 -10.977  1.00  0.00     0.133 C
HETATM   23  C1  UNL     1     -49.868 -33.758 -10.705  1.00  0.00     0.027 C
ENDBRANCH  20  22
ENDBRANCH   1  20
BRANCH   7  24
HETATM   24  N6  UNL     1     -50.300 -29.709  -6.903  1.00  0.00    -0.220 N
ATOM     25  H6  UNL     1     -50.148 -29.244  -6.008  1.00  0.00     0.178 HD
BRANCH  24  26
HETATM   26  C11 UNL     1     -51.639 -30.100  -7.293  1.00  0.00     0.105 C
HETATM   27  C12 UNL     1     -52.344 -28.889  -7.805  1.00  0.00     0.033 C
BRANCH  26  28
HETATM   28  C13 UNL     1     -52.308 -30.694  -6.072  1.00  0.00     0.111 C
HETATM   29  S1  UNL     1     -51.256 -30.681  -4.619  1.00  0.00    -0.096 SA
ENDBRANCH  26  28
ENDBRANCH  24  26
ENDBRANCH   7  24
TORSDOF 7
ENDMDL