MODEL 5
REMARK VINA RESULT: -7.944198874      0.933      1.494
REMARK  7 active torsions:
REMARK  status: ('A' for Active; 'I' for Inactive)
REMARK    1  A    between atoms: C2_2  and  C3_3
REMARK    2  A    between atoms: C3_3  and  C4_4
REMARK    3  A    between atoms: N1_7  and  N2_9
REMARK    4  A    between atoms: N2_9  and  C7_11
REMARK    5  A    between atoms: C8_14  and  N4_15
REMARK    6  A    between atoms: C9_20  and  N6_21
REMARK    7  A    between atoms: N6_21  and  N7_23
ROOT
HETATM    1  C7  UNL     1     -49.088 -29.328  -7.566  1.00  0.00     0.726 A
HETATM    2  N3  UNL     1     -49.067 -30.340  -8.450  1.00  0.00    -0.020 N
ATOM      3  H3  UNL     1     -49.901 -30.921  -8.539  1.00  0.00     0.203 HD
HETATM    4  C8  UNL     1     -48.005 -30.628  -9.223  1.00  0.00     0.705 A
HETATM    5  N5  UNL     1     -46.910 -29.857  -9.097  1.00  0.00    -0.020 N
ATOM      6  H5  UNL     1     -46.084 -30.043  -9.665  1.00  0.00     0.203 HD
HETATM    7  C9  UNL     1     -46.908 -28.839  -8.218  1.00  0.00     0.725 A
HETATM    8  N8  UNL     1     -47.992 -28.567  -7.449  1.00  0.00    -0.018 N
ATOM      9  H8  UNL     1     -47.973 -27.790  -6.788  1.00  0.00     0.203 HD
ENDROOT
BRANCH   1  10
HETATM   10  N2  UNL     1     -50.159 -29.101  -6.842  1.00  0.00    -0.131 N
ATOM     11  H2  UNL     1     -50.613 -28.189  -6.888  1.00  0.00     0.205 HD
BRANCH  10  12
HETATM   12  N1  UNL     1     -50.685 -30.092  -6.010  1.00  0.00    -0.295 N
HETATM   13  C2  UNL     1     -50.508 -30.111  -4.738  1.00  0.00     0.001 C
HETATM   14  C1  UNL     1     -49.709 -29.033  -4.115  1.00  0.00     0.065 C
ATOM     15  H1  UNL     1     -51.237 -30.838  -6.433  1.00  0.00     0.186 HD
BRANCH  13  16
HETATM   16  C3  UNL     1     -51.119 -31.218  -3.965  1.00  0.00     0.057 C
BRANCH  16  17
HETATM   17  C4  UNL     1     -52.039 -32.058  -4.831  1.00  0.00    -0.017 C
HETATM   18  C5  UNL     1     -51.833 -33.506  -4.426  1.00  0.00     0.010 C
HETATM   19  C6  UNL     1     -53.490 -31.736  -4.605  1.00  0.00     0.010 C
ENDBRANCH  16  17
ENDBRANCH  13  16
ENDBRANCH  10  12
ENDBRANCH   1  10
BRANCH   4  20
HETATM   20  N4  UNL     1     -48.023 -31.619 -10.068  1.00  0.00    -0.234 N
ATOM     21  H42 UNL     1     -47.769 -32.560  -9.769  1.00  0.00     0.174 HD
ATOM     22  H41 UNL     1     -48.291 -31.486 -11.043  1.00  0.00     0.174 HD
ENDBRANCH   4  20
BRANCH   7  23
HETATM   23  N6  UNL     1     -45.839 -28.092  -8.101  1.00  0.00    -0.133 N
ATOM     24  H6  UNL     1     -45.876 -27.098  -8.327  1.00  0.00     0.205 HD
BRANCH  23  25
HETATM   25  N7  UNL     1     -44.650 -28.673  -7.663  1.00  0.00    -0.310 N
HETATM   26  C10 UNL     1     -43.498 -28.590  -8.535  1.00  0.00     0.169 C
HETATM   27  C11 UNL     1     -42.575 -29.773  -8.391  1.00  0.00     0.189 C
HETATM   28  O1  UNL     1     -42.416 -30.207  -7.100  1.00  0.00    -0.388 OA
HETATM   29  C12 UNL     1     -42.987 -29.411  -6.140  1.00  0.00     0.189 C
HETATM   30  C13 UNL     1     -44.480 -29.353  -6.401  1.00  0.00     0.169 C
ENDBRANCH  23  25
ENDBRANCH   7  23
TORSDOF 7
ENDMDL