MODEL 3
REMARK VINA RESULT: -7.474205353      1.758      5.968
REMARK  6 active torsions:
REMARK  status: ('A' for Active; 'I' for Inactive)
REMARK    1  A    between atoms: C4_4  and  C5_5
REMARK    2  A    between atoms: C5_5  and  N1_6
REMARK    3  A    between atoms: C5_5  and  O1_10
REMARK    4  A    between atoms: C5_5  and  C6_12
REMARK    5  A    between atoms: C6_12  and  N2_13
REMARK    6  A    between atoms: N5_23  and  C13_25
ROOT
HETATM    1  C5  UNL     1     -47.614 -28.910  -5.803  1.00  0.00     0.292 C
ENDROOT
BRANCH   1   2
HETATM    2  C4  UNL     1     -48.605 -30.005  -5.793  1.00  0.00     0.092 A
HETATM    3  C3  UNL     1     -49.456 -30.186  -4.746  1.00  0.00     0.056 A
HETATM    4  C2  UNL     1     -50.391 -31.233  -4.778  1.00  0.00     0.024 A
HETATM    5  C1  UNL     1     -51.300 -31.397  -3.624  1.00  0.00     0.068 C
HETATM    6  N6  UNL     1     -50.400 -32.017  -5.853  1.00  0.00    -0.196 N
HETATM    7  C12 UNL     1     -49.554 -31.862  -6.926  1.00  0.00     0.679 A
ATOM      8  H6  UNL     1     -51.076 -32.781  -5.883  1.00  0.00     0.184 HD
HETATM    9  N4  UNL     1     -48.680 -30.851  -6.852  1.00  0.00    -0.191 N
HETATM   10  N5  UNL     1     -49.674 -32.694  -7.874  1.00  0.00    -0.222 N
ATOM     11  H4  UNL     1     -48.038 -30.708  -7.632  1.00  0.00     0.184 HD
ATOM     12  H5  UNL     1     -50.396 -33.407  -7.771  1.00  0.00     0.178 HD
BRANCH  10  13
HETATM   13  C13 UNL     1     -48.909 -32.732  -9.058  1.00  0.00     0.091 C
HETATM   14  C14 UNL     1     -48.980 -34.140  -9.676  1.00  0.00     0.032 C
HETATM   15  C15 UNL     1     -49.163 -31.692 -10.095  1.00  0.00     0.032 C
ENDBRANCH  10  13
ENDBRANCH   1   2
BRANCH   1  16
HETATM   16  N1  UNL     1     -46.627 -29.320  -4.752  1.00  0.00    -0.039 N
ATOM     17  H13 UNL     1     -46.597 -28.705  -3.939  1.00  0.00     0.278 HD
ATOM     18  H12 UNL     1     -46.884 -30.163  -4.238  1.00  0.00     0.278 HD
ATOM     19  H11 UNL     1     -45.747 -29.389  -5.264  1.00  0.00     0.278 HD
ENDBRANCH   1  16
BRANCH   1  20
HETATM   20  O1  UNL     1     -48.146 -27.735  -5.288  1.00  0.00    -0.359 OA
ATOM     21  H1  UNL     1     -49.059 -27.842  -5.046  1.00  0.00     0.213 HD
ENDBRANCH   1  20
BRANCH   1  22
HETATM   22  C6  UNL     1     -46.820 -28.789  -7.042  1.00  0.00     0.347 C
BRANCH  22  23
HETATM   23  N2  UNL     1     -45.457 -29.230  -7.015  1.00  0.00     0.097 N
HETATM   24  C7  UNL     1     -45.348 -30.349  -7.995  1.00  0.00     0.302 C
HETATM   25  C8  UNL     1     -43.944 -30.508  -8.496  1.00  0.00     0.302 C
HETATM   26  N3  UNL     1     -43.553 -29.386  -9.326  1.00  0.00     0.087 N
HETATM   27  C9  UNL     1     -42.186 -28.992  -9.165  1.00  0.00     0.310 C
HETATM   28  C10 UNL     1     -44.422 -28.288  -8.968  1.00  0.00     0.302 C
HETATM   29  C11 UNL     1     -44.511 -28.256  -7.436  1.00  0.00     0.302 C
ENDBRANCH  22  23
ENDBRANCH   1  22
TORSDOF 6
ENDMDL