MODEL 2
REMARK VINA RESULT: -8.067057537      1.031      1.541
REMARK  6 active torsions:
REMARK  status: ('A' for Active; 'I' for Inactive)
REMARK    1  A    between atoms: N1_2  and  C3_4
REMARK    2  A    between atoms: C3_4  and  C4_5
REMARK    3  A    between atoms: C4_5  and  N2_6
REMARK    4  A    between atoms: N2_6  and  C5_8
REMARK    5  A    between atoms: N4_12  and  C7_14
REMARK    6  A    between atoms: C9_18  and  N6_19
ROOT
HETATM    1  C5  UNL     1     -49.809 -30.193  -7.131  1.00  0.00     0.685 A
HETATM    2  N3  UNL     1     -48.458 -30.071  -7.338  1.00  0.00    -0.174 N
ATOM      3  H3  UNL     1     -47.900 -29.603  -6.622  1.00  0.00     0.186 HD
HETATM    4  C6  UNL     1     -47.835 -30.531  -8.421  1.00  0.00     0.153 A
HETATM    5  N4  UNL     1     -46.561 -30.411  -8.606  1.00  0.00    -0.330 N
ATOM      6  H4  UNL     1     -46.163 -30.792  -9.464  1.00  0.00     0.168 HD
HETATM    7  C12 UNL     1     -48.558 -31.166  -9.404  1.00  0.00     0.123 A
HETATM    8  N7  UNL     1     -48.265 -31.740 -10.600  1.00  0.00    -0.346 N
ATOM      9  H7  UNL     1     -47.340 -31.806 -11.026  1.00  0.00     0.167 HD
HETATM   10  C13 UNL     1     -49.422 -32.210 -11.125  1.00  0.00     0.182 A
HETATM   11  N8  UNL     1     -50.395 -31.922 -10.256  1.00  0.00    -0.336 N
ATOM     12  H8  UNL     1     -51.378 -32.159 -10.390  1.00  0.00     0.168 HD
HETATM   13  C14 UNL     1     -49.909 -31.284  -9.191  1.00  0.00     0.152 A
HETATM   14  N9  UNL     1     -50.522 -30.808  -8.078  1.00  0.00    -0.174 N
ATOM     15  H9  UNL     1     -51.529 -30.920  -7.964  1.00  0.00     0.186 HD
ENDROOT
BRANCH   5  16
HETATM   16  C7  UNL     1     -45.683 -29.781  -7.683  1.00  0.00     0.078 C
HETATM   17  N5  UNL     1     -45.483 -28.514  -7.654  1.00  0.00    -0.378 N
HETATM   18  C8  UNL     1     -44.623 -27.801  -6.764  1.00  0.00     0.153 C
ATOM     19  H5  UNL     1     -45.993 -27.956  -8.339  1.00  0.00     0.160 HD
HETATM   20  C9  UNL     1     -44.124 -28.580  -5.595  1.00  0.00     0.201 C
HETATM   21  C10 UNL     1     -45.016 -29.797  -5.373  1.00  0.00     0.042 C
HETATM   22  C11 UNL     1     -44.928 -30.601  -6.670  1.00  0.00     0.078 C
BRANCH  20  23
HETATM   23  N6  UNL     1     -42.779 -29.035  -5.870  1.00  0.00    -0.073 N
ATOM     24  H63 UNL     1     -42.627 -29.221  -6.862  1.00  0.00     0.274 HD
ATOM     25  H62 UNL     1     -42.088 -28.293  -5.756  1.00  0.00     0.274 HD
ATOM     26  H61 UNL     1     -42.577 -29.847  -5.287  1.00  0.00     0.274 HD
ENDBRANCH  20  23
ENDBRANCH   5  16
BRANCH   1  27
HETATM   27  N2  UNL     1     -50.271 -29.731  -6.097  1.00  0.00    -0.203 N
ATOM     28  H2  UNL     1     -49.905 -28.784  -6.006  1.00  0.00     0.183 HD
BRANCH  27  29
HETATM   29  C4  UNL     1     -51.075 -29.955  -5.010  1.00  0.00     0.108 C
BRANCH  29  30
HETATM   30  C3  UNL     1     -50.833 -31.174  -4.181  1.00  0.00     0.316 C
BRANCH  30  31
HETATM   31  N1  UNL     1     -52.064 -31.942  -4.046  1.00  0.00     0.084 N
HETATM   32  C1  UNL     1     -51.900 -33.314  -4.451  1.00  0.00     0.309 C
HETATM   33  C2  UNL     1     -53.004 -31.337  -5.006  1.00  0.00     0.309 C
ENDBRANCH  30  31
ENDBRANCH  29  30
ENDBRANCH  27  29
ENDBRANCH   1  27
TORSDOF 6
ENDMDL