MODEL 1
REMARK VINA RESULT: -8.418541764      0.000      0.000
REMARK  6 active torsions:
REMARK  status: ('A' for Active; 'I' for Inactive)
REMARK    1  A    between atoms: C2_2  and  N1_4
REMARK    2  A    between atoms: N1_4  and  C4_5
REMARK    3  A    between atoms: C6_7  and  N2_8
REMARK    4  A    between atoms: N3_11  and  C9_12
REMARK    5  A    between atoms: C9_12  and  C10_13
REMARK    6  A    between atoms: C10_13  and  O1_14
ROOT
HETATM    1  C4  UNL     1     -46.260 -29.754  -7.203  1.00  0.00     0.128 A
HETATM    2  C5  UNL     1     -47.507 -29.944  -6.586  1.00  0.00     0.094 A
HETATM    3  C6  UNL     1     -48.558 -30.562  -7.204  1.00  0.00     0.107 A
HETATM    4  N4  UNL     1     -48.386 -31.001  -8.447  1.00  0.00    -0.330 N
ATOM      5  H4  UNL     1     -49.164 -31.463  -8.916  1.00  0.00     0.168 HD
HETATM    6  C13 UNL     1     -47.237 -30.860  -9.100  1.00  0.00     0.142 A
HETATM    7  N5  UNL     1     -47.105 -31.354 -10.450  1.00  0.00    -0.081 NA
HETATM    8  C14 UNL     1     -46.168 -30.248  -8.515  1.00  0.00     0.126 A
HETATM    9  C15 UNL     1     -44.918 -30.104  -9.234  1.00  0.00     0.106 C
HETATM   10  N6  UNL     1     -43.906 -30.003  -9.799  1.00  0.00    -0.191 NA
ENDROOT
BRANCH   1  11
HETATM   11  N1  UNL     1     -45.313 -29.228  -6.710  1.00  0.00    -0.442 NA
BRANCH  11  12
HETATM   12  C2  UNL     1     -44.302 -28.703  -6.013  1.00  0.00     0.155 C
HETATM   13  C1  UNL     1     -44.266 -29.117  -4.522  1.00  0.00     0.047 C
HETATM   14  C3  UNL     1     -42.893 -29.005  -6.540  1.00  0.00     0.047 C
ENDBRANCH  11  12
ENDBRANCH   1  11
BRANCH   3  15
HETATM   15  N2  UNL     1     -49.789 -30.716  -6.510  1.00  0.00    -0.364 N
HETATM   16  C7  UNL     1     -51.064 -30.853  -7.166  1.00  0.00     0.143 C
HETATM   17  C8  UNL     1     -52.219 -30.484  -6.270  1.00  0.00     0.136 C
HETATM   18  N3  UNL     1     -52.135 -31.060  -4.967  1.00  0.00    -0.407 N
HETATM   19  C11 UNL     1     -50.894 -31.639  -4.614  1.00  0.00     0.136 C
HETATM   20  C12 UNL     1     -49.762 -30.734  -5.065  1.00  0.00     0.143 C
BRANCH  18  21
HETATM   21  C9  UNL     1     -53.314 -31.680  -4.482  1.00  0.00     0.143 C
BRANCH  21  22
HETATM   22  C10 UNL     1     -53.121 -32.846  -3.570  1.00  0.00     0.183 C
BRANCH  22  23
HETATM   23  O1  UNL     1     -53.410 -32.594  -2.237  1.00  0.00    -0.399 OA
ATOM     24  H1  UNL     1     -53.049 -33.224  -1.626  1.00  0.00     0.209 HD
ENDBRANCH  22  23
ENDBRANCH  21  22
ENDBRANCH  18  21
ENDBRANCH   3  15
TORSDOF 6
ENDMDL