MODEL 1
REMARK VINA RESULT: -7.636109676      0.000      0.000
REMARK  7 active torsions:
REMARK  status: ('A' for Active; 'I' for Inactive)
REMARK    1  A    between atoms: C2_2  and  C3_3
REMARK    2  A    between atoms: C3_3  and  N1_4
REMARK    3  A    between atoms: N1_4  and  C4_6
REMARK    4  A    between atoms: C5_9  and  N3_10
REMARK    5  A    between atoms: C10_21  and  N7_22
REMARK    6  A    between atoms: N7_22  and  C11_24
REMARK    7  A    between atoms: C13_28  and  N9_29
ROOT
HETATM    1  C4  UNL     1     -48.859 -29.815  -7.771  1.00  0.00     0.135 A
HETATM    2  N2  UNL     1     -49.310 -30.973  -8.274  1.00  0.00    -0.174 N
ATOM      3  H2  UNL     1     -50.231 -31.306  -7.989  1.00  0.00     0.186 HD
HETATM    4  C5  UNL     1     -48.594 -31.715  -9.142  1.00  0.00     0.706 A
HETATM    5  N5  UNL     1     -47.381 -31.262  -9.510  1.00  0.00    -0.173 N
ATOM      6  H5  UNL     1     -46.838 -31.821 -10.167  1.00  0.00     0.186 HD
HETATM    7  C9  UNL     1     -46.850 -30.130  -9.067  1.00  0.00     0.154 A
HETATM    8  N6  UNL     1     -45.634 -29.721  -9.465  1.00  0.00    -0.175 N
ATOM      9  H6  UNL     1     -45.104 -30.292 -10.122  1.00  0.00     0.186 HD
HETATM   10  C10 UNL     1     -45.111 -28.589  -9.018  1.00  0.00     0.681 A
HETATM   11  N8  UNL     1     -45.833 -27.843  -8.142  1.00  0.00    -0.176 N
ATOM     12  H8  UNL     1     -45.434 -26.971  -7.795  1.00  0.00     0.186 HD
HETATM   13  C13 UNL     1     -47.050 -28.208  -7.717  1.00  0.00     0.132 A
HETATM   14  C14 UNL     1     -47.615 -29.382  -8.169  1.00  0.00     0.097 A
ENDROOT
BRANCH   4  15
HETATM   15  N3  UNL     1     -49.114 -32.942  -9.652  1.00  0.00    -0.098 N
HETATM   16  C6  UNL     1     -49.943 -33.050 -10.727  1.00  0.00     0.136 A
HETATM   17  C7  UNL     1     -50.242 -34.377 -10.934  1.00  0.00     0.038 A
HETATM   18  C8  UNL     1     -49.574 -35.075  -9.952  1.00  0.00     0.110 A
HETATM   19  N4  UNL     1     -48.924 -34.171  -9.226  1.00  0.00    -0.291 N
ATOM     20  H4  UNL     1     -48.341 -34.406  -8.423  1.00  0.00     0.187 HD
ENDBRANCH   4  15
BRANCH   1  21
HETATM   21  N1  UNL     1     -49.517 -29.090  -6.945  1.00  0.00    -0.371 N
ATOM     22  H1  UNL     1     -49.198 -28.131  -6.807  1.00  0.00     0.161 HD
BRANCH  21  23
HETATM   23  C3  UNL     1     -50.665 -29.515  -6.197  1.00  0.00     0.147 C
BRANCH  23  24
HETATM   24  C2  UNL     1     -50.239 -29.702  -4.782  1.00  0.00    -0.018 C
HETATM   25  C1  UNL     1     -50.554 -30.778  -4.079  1.00  0.00     0.008 C
ENDBRANCH  23  24
ENDBRANCH  21  23
ENDBRANCH   1  21
BRANCH  13  26
HETATM   26  N9  UNL     1     -47.736 -27.506  -6.890  1.00  0.00    -0.384 N
ATOM     27  H92 UNL     1     -48.278 -26.731  -7.273  1.00  0.00     0.157 HD
ATOM     28  H91 UNL     1     -47.755 -27.697  -5.888  1.00  0.00     0.157 HD
ENDBRANCH  13  26
BRANCH  10  29
HETATM   29  N7  UNL     1     -43.948 -28.231  -9.419  1.00  0.00    -0.226 N
ATOM     30  H7  UNL     1     -43.809 -27.983 -10.398  1.00  0.00     0.177 HD
BRANCH  29  31
HETATM   31  C11 UNL     1     -42.828 -28.175  -8.505  1.00  0.00     0.133 C
HETATM   32  C12 UNL     1     -42.487 -29.576  -8.027  1.00  0.00     0.027 C
ENDBRANCH  29  31
ENDBRANCH  10  29
TORSDOF 7
ENDMDL