MODEL 4
REMARK VINA RESULT: -8.102677175      1.547      2.166
REMARK  7 active torsions:
REMARK  status: ('A' for Active; 'I' for Inactive)
REMARK    1  A    between atoms: C4_4  and  N1_5
REMARK    2  A    between atoms: N1_5  and  C5_7
REMARK    3  A    between atoms: C5_7  and  C6_8
REMARK    4  A    between atoms: C6_8  and  N2_9
REMARK    5  A    between atoms: C9_14  and  N4_15
REMARK    6  A    between atoms: N4_15  and  C10_17
REMARK    7  A    between atoms: C12_21  and  N6_22
ROOT
HETATM    1  C1  UNL     1     -45.847 -29.739  -4.150  1.00  0.00     0.069 C
HETATM    2  C2  UNL     1     -46.803 -29.555  -5.260  1.00  0.00     0.026 A
HETATM    3  C3  UNL     1     -46.385 -29.435  -6.592  1.00  0.00     0.073 A
HETATM    4  C4  UNL     1     -47.280 -29.264  -7.624  1.00  0.00     0.119 A
HETATM    5  N3  UNL     1     -48.595 -29.215  -7.296  1.00  0.00    -0.177 N
ATOM      6  H3  UNL     1     -49.285 -29.089  -8.036  1.00  0.00     0.186 HD
HETATM    7  C9  UNL     1     -49.016 -29.329  -6.025  1.00  0.00     0.684 A
HETATM    8  N9  UNL     1     -48.134 -29.496  -5.027  1.00  0.00    -0.196 N
ATOM      9  H9  UNL     1     -48.476 -29.581  -4.070  1.00  0.00     0.184 HD
ENDROOT
BRANCH   7  10
HETATM   10  N4  UNL     1     -50.267 -29.278  -5.732  1.00  0.00    -0.187 N
ATOM     11  H4  UNL     1     -50.774 -28.423  -5.962  1.00  0.00     0.184 HD
BRANCH  10  12
HETATM   12  C10 UNL     1     -50.988 -30.322  -5.114  1.00  0.00     0.106 A
HETATM   13  C11 UNL     1     -50.756 -30.656  -3.807  1.00  0.00     0.139 A
HETATM   14  N5  UNL     1     -51.444 -31.662  -3.195  1.00  0.00    -0.200 N
HETATM   15  C12 UNL     1     -52.368 -32.341  -3.885  1.00  0.00     0.677 A
ATOM     16  H5  UNL     1     -51.256 -31.895  -2.220  1.00  0.00     0.183 HD
HETATM   17  N7  UNL     1     -52.588 -32.005  -5.163  1.00  0.00    -0.177 N
HETATM   18  C13 UNL     1     -51.943 -31.023  -5.825  1.00  0.00     0.160 A
ATOM     19  H7  UNL     1     -53.297 -32.532  -5.674  1.00  0.00     0.185 HD
HETATM   20  N8  UNL     1     -52.237 -30.732  -7.184  1.00  0.00    -0.080 NA
BRANCH  15  21
HETATM   21  N6  UNL     1     -53.036 -33.310  -3.306  1.00  0.00    -0.234 N
ATOM     22  H62 UNL     1     -52.561 -34.052  -2.794  1.00  0.00     0.174 HD
ATOM     23  H61 UNL     1     -54.055 -33.332  -3.364  1.00  0.00     0.174 HD
ENDBRANCH  15  21
ENDBRANCH  10  12
ENDBRANCH   7  10
BRANCH   4  24
HETATM   24  N1  UNL     1     -46.879 -29.158  -8.846  1.00  0.00    -0.371 N
ATOM     25  H1  UNL     1     -47.470 -28.677  -9.525  1.00  0.00     0.161 HD
BRANCH  24  26
HETATM   26  C5  UNL     1     -45.621 -29.702  -9.273  1.00  0.00     0.165 C
BRANCH  26  27
HETATM   27  C6  UNL     1     -44.583 -28.649  -9.542  1.00  0.00     0.076 C
BRANCH  27  28
HETATM   28  N2  UNL     1     -43.255 -29.055  -9.579  1.00  0.00    -0.400 N
HETATM   29  C7  UNL     1     -42.259 -28.244  -9.002  1.00  0.00     0.148 C
HETATM   30  C8  UNL     1     -42.945 -30.422  -9.760  1.00  0.00     0.148 C
ENDBRANCH  27  28
ENDBRANCH  26  27
ENDBRANCH  24  26
ENDBRANCH   4  24
TORSDOF 7
ENDMDL