MODEL 4
REMARK VINA RESULT: -8.022079486      2.059      6.521
REMARK  7 active torsions:
REMARK  status: ('A' for Active; 'I' for Inactive)
REMARK    1  A    between atoms: C3_3  and  N1_4
REMARK    2  A    between atoms: C6_9  and  N3_10
REMARK    3  A    between atoms: N3_10  and  C7_12
REMARK    4  A    between atoms: C7_12  and  C8_13
REMARK    5  A    between atoms: C8_13  and  N4_14
REMARK    6  A    between atoms: C11_17  and  N5_18
REMARK    7  A    between atoms: C14_26  and  N7_27
ROOT
HETATM    1  C1  UNL     1     -52.276 -33.767  -4.241  1.00  0.00     0.014 C
HETATM    2  C2  UNL     1     -51.963 -32.626  -4.012  1.00  0.00    -0.096 C
HETATM    3  C3  UNL     1     -51.571 -31.239  -3.751  1.00  0.00     0.243 C
ENDROOT
BRANCH   3   4
HETATM    4  N1  UNL     1     -50.571 -30.771  -4.687  1.00  0.00    -0.264 N
HETATM    5  N2  UNL     1     -49.270 -30.820  -4.512  1.00  0.00    -0.306 N
HETATM    6  C4  UNL     1     -48.628 -30.302  -5.574  1.00  0.00     0.126 A
ATOM      7  H2  UNL     1     -48.810 -31.200  -3.684  1.00  0.00     0.186 HD
HETATM    8  C5  UNL     1     -49.581 -29.896  -6.482  1.00  0.00     0.071 A
HETATM    9  C6  UNL     1     -49.507 -29.302  -7.734  1.00  0.00     0.132 A
HETATM   10  C15 UNL     1     -50.796 -30.209  -5.886  1.00  0.00     0.154 A
HETATM   11  N6  UNL     1     -50.654 -29.025  -8.380  1.00  0.00    -0.176 N
HETATM   12  C14 UNL     1     -51.846 -29.330  -7.800  1.00  0.00     0.679 A
ATOM     13  H6  UNL     1     -50.630 -28.587  -9.301  1.00  0.00     0.186 HD
HETATM   14  N8  UNL     1     -51.908 -29.905  -6.586  1.00  0.00    -0.174 N
ATOM     15  H8  UNL     1     -52.820 -30.119  -6.184  1.00  0.00     0.186 HD
BRANCH   9  16
HETATM   16  N3  UNL     1     -48.339 -29.057  -8.190  1.00  0.00    -0.373 N
ATOM     17  H3  UNL     1     -47.777 -29.847  -8.505  1.00  0.00     0.161 HD
BRANCH  16  18
HETATM   18  C7  UNL     1     -47.760 -27.735  -8.290  1.00  0.00     0.151 C
BRANCH  18  19
HETATM   19  C8  UNL     1     -46.828 -27.553  -7.130  1.00  0.00     0.292 C
BRANCH  19  20
HETATM   20  N4  UNL     1     -45.817 -28.584  -7.039  1.00  0.00     0.090 N
HETATM   21  C9  UNL     1     -44.843 -28.309  -8.087  1.00  0.00     0.274 C
HETATM   22  C10 UNL     1     -43.875 -29.470  -8.145  1.00  0.00     0.063 C
HETATM   23  C11 UNL     1     -43.132 -29.471  -6.806  1.00  0.00     0.186 C
HETATM   24  C12 UNL     1     -44.178 -29.751  -5.748  1.00  0.00     0.063 C
HETATM   25  C13 UNL     1     -45.189 -28.633  -5.758  1.00  0.00     0.274 C
BRANCH  23  26
HETATM   26  N5  UNL     1     -42.138 -30.524  -6.851  1.00  0.00    -0.075 N
ATOM     27  H53 UNL     1     -42.536 -31.434  -7.081  1.00  0.00     0.274 HD
ATOM     28  H52 UNL     1     -41.512 -30.444  -7.653  1.00  0.00     0.274 HD
ATOM     29  H51 UNL     1     -41.641 -30.523  -5.960  1.00  0.00     0.274 HD
ENDBRANCH  23  26
ENDBRANCH  19  20
ENDBRANCH  18  19
ENDBRANCH  16  18
ENDBRANCH   9  16
BRANCH  12  30
HETATM   30  N7  UNL     1     -52.939 -29.060  -8.428  1.00  0.00    -0.234 N
ATOM     31  H72 UNL     1     -52.920 -28.954  -9.441  1.00  0.00     0.174 HD
ATOM     32  H71 UNL     1     -53.805 -28.958  -7.899  1.00  0.00     0.174 HD
ENDBRANCH  12  30
ENDBRANCH   3   4
TORSDOF 7
ENDMDL