MODEL 5
REMARK VINA RESULT: -8.613730824      1.154      1.511
REMARK  6 active torsions:
REMARK  status: ('A' for Active; 'I' for Inactive)
REMARK    1  A    between atoms: C2_2  and  C4_11
REMARK    2  A    between atoms: N1_3  and  N2_5
REMARK    3  A    between atoms: C3_7  and  O1_9
REMARK    4  A    between atoms: C6_18  and  N7_19
REMARK    5  A    between atoms: N7_19  and  N8_21
REMARK    6  A    between atoms: C7_23  and  C9_25
ROOT
HETATM    1  C4  UNL     1     -50.782 -30.398  -6.268  1.00  0.00     0.077 A
HETATM    2  C5  UNL     1     -51.538 -31.249  -5.514  1.00  0.00     0.146 A
HETATM    3  N4  UNL     1     -52.763 -31.919  -5.783  1.00  0.00    -0.080 NA
HETATM    4  N5  UNL     1     -50.876 -31.389  -4.316  1.00  0.00    -0.285 N
ATOM      5  H5  UNL     1     -51.192 -31.966  -3.536  1.00  0.00     0.188 HD
HETATM    6  N6  UNL     1     -49.785 -30.673  -4.327  1.00  0.00    -0.282 N
ATOM      7  H6  UNL     1     -49.120 -30.606  -3.557  1.00  0.00     0.188 HD
HETATM    8  C6  UNL     1     -49.672 -30.042  -5.499  1.00  0.00     0.150 A
ENDROOT
BRANCH   8   9
HETATM    9  N7  UNL     1     -48.728 -29.249  -5.874  1.00  0.00    -0.284 N
ATOM     10  H7  UNL     1     -48.779 -28.273  -5.579  1.00  0.00     0.188 HD
BRANCH   9  11
HETATM   11  N8  UNL     1     -47.654 -29.637  -6.649  1.00  0.00    -0.305 N
HETATM   12  C7  UNL     1     -46.434 -29.745  -6.197  1.00  0.00     0.033 C
HETATM   13  C8  UNL     1     -46.225 -29.430  -4.782  1.00  0.00     0.067 C
ATOM     14  H8  UNL     1     -47.823 -29.851  -7.632  1.00  0.00     0.186 HD
BRANCH  12  15
HETATM   15  C9  UNL     1     -45.409 -30.164  -7.139  1.00  0.00     0.269 C
HETATM   16  C10 UNL     1     -43.996 -29.826  -6.647  1.00  0.00     0.043 C
HETATM   17  C11 UNL     1     -43.189 -30.096  -7.899  1.00  0.00     0.033 C
HETATM   18  C12 UNL     1     -44.205 -30.126  -9.036  1.00  0.00     0.273 C
HETATM   19  N9  UNL     1     -45.427 -29.586  -8.434  1.00  0.00     0.094 N
HETATM   20  C13 UNL     1     -45.363 -28.167  -8.518  1.00  0.00     0.310 C
ENDBRANCH  12  15
ENDBRANCH   9  11
ENDBRANCH   8   9
BRANCH   1  21
HETATM   21  C2  UNL     1     -51.067 -29.936  -7.631  1.00  0.00     0.039 C
HETATM   22  C1  UNL     1     -52.286 -29.004  -7.795  1.00  0.00     0.071 C
HETATM   23  N1  UNL     1     -50.477 -30.184  -8.660  1.00  0.00    -0.301 N
ATOM     24  H1  UNL     1     -50.961 -29.688  -9.409  1.00  0.00     0.186 HD
BRANCH  23  25
HETATM   25  N2  UNL     1     -49.486 -30.818  -9.203  1.00  0.00    -0.268 N
HETATM   26  C3  UNL     1     -49.459 -31.900  -9.893  1.00  0.00     0.244 C
HETATM   27  N3  UNL     1     -50.617 -32.661 -10.207  1.00  0.00    -0.055 NA
ATOM     28  H2  UNL     1     -48.575 -30.384  -9.060  1.00  0.00     0.190 HD
BRANCH  26  29
HETATM   29  O1  UNL     1     -48.228 -32.347 -10.352  1.00  0.00    -0.334 OA
ATOM     30  H1  UNL     1     -47.944 -32.060 -11.211  1.00  0.00     0.220 HD
ENDBRANCH  26  29
ENDBRANCH  23  25
ENDBRANCH   1  21
TORSDOF 6
ENDMDL