MODEL 5
REMARK VINA RESULT: -3.452083176      1.076      1.470
REMARK  5 active torsions:
REMARK  status: ('A' for Active; 'I' for Inactive)
REMARK    1  A    between atoms: O1_2  and  C2_3
REMARK       I    between atoms: C2_3  and  N1_5
REMARK       I    between atoms: N1_5  and  C3_7
REMARK       I    between atoms: C3_7  and  N3_11
REMARK       I    between atoms: N4_13  and  C4_15
REMARK       I    between atoms: C4_15  and  N5_17
REMARK    2  A    between atoms: N5_17  and  N6_18
REMARK    3  A    between atoms: N5_17  and  C6_23
REMARK    4  A    between atoms: C6_23  and  C7_25
REMARK    5  A    between atoms: C6_23  and  C8_27
ROOT
HETATM    1  C2  UNL     1      32.442  49.241  13.033  1.00  0.00     0.378 C
HETATM    2  O2  UNL     1      32.031  48.065  12.859  1.00  0.00    -0.238 OA
HETATM    3  N1  UNL     1      32.869  50.031  11.927  1.00  0.00    -0.134 N
ATOM      4  H1  UNL     1      33.201  50.983  12.082  1.00  0.00     0.189 HD
HETATM    5  C3  UNL     1      32.833  49.505  10.622  1.00  0.00     0.695 C
HETATM    6  N2  UNL     1      33.219  50.212   9.609  1.00  0.00    -0.233 N
ATOM      7  H21 UNL     1      33.193  49.831   8.664  1.00  0.00     0.174 HD
ATOM      8  H22 UNL     1      33.545  51.160   9.802  1.00  0.00     0.174 HD
HETATM    9  N3  UNL     1      32.374  48.173  10.351  1.00  0.00    -0.128 N
ATOM     10  H3  UNL     1      32.988  47.367  10.470  1.00  0.00     0.205 HD
HETATM   11  N4  UNL     1      31.193  48.038   9.963  1.00  0.00    -0.236 N
ATOM     12  H4  UNL     1      30.611  48.869   9.857  1.00  0.00     0.192 HD
HETATM   13  C4  UNL     1      30.638  46.777   9.667  1.00  0.00     0.358 C
HETATM   14  O3  UNL     1      31.107  45.832  10.419  1.00  0.00    -0.243 OA
HETATM   15  N5  UNL     1      29.683  46.445   8.701  1.00  0.00    -0.202 N
ENDROOT
BRANCH  15  16
HETATM   16  N6  UNL     1      29.310  45.077   8.648  1.00  0.00    -0.268 N
HETATM   17  C5  UNL     1      29.950  44.190   8.033  1.00  0.00     0.216 C
HETATM   18  N7  UNL     1      31.130  44.497   7.324  1.00  0.00    -0.065 NA
HETATM   19  N8  UNL     1      29.498  42.853   8.038  1.00  0.00    -0.065 NA
ATOM     20  H6  UNL     1      28.465  44.796   9.145  1.00  0.00     0.189 HD
ENDBRANCH  15  16
BRANCH  15  21
HETATM   21  C6  UNL     1      29.100  47.391   7.803  1.00  0.00     0.256 C
HETATM   22 CL1  UNL     1      29.286  49.065   8.521  1.00  0.00    -0.081 Cl
BRANCH  21  23
HETATM   23  C7  UNL     1      29.844  47.481   6.489  1.00  0.00     0.281 C
HETATM   24  F1  UNL     1      29.411  46.547   5.557  1.00  0.00    -0.251 F
ENDBRANCH  21  23
BRANCH  21  25
HETATM   25  C8  UNL     1      27.642  47.262   7.549  1.00  0.00     0.431 C
HETATM   26  F2  UNL     1      27.231  45.940   7.424  1.00  0.00    -0.167 F
HETATM   27  F3  UNL     1      27.012  47.666   8.755  1.00  0.00    -0.167 F
HETATM   28  F4  UNL     1      27.175  48.098   6.605  1.00  0.00    -0.167 F
ENDBRANCH  21  25
ENDBRANCH  15  21
BRANCH   1  29
HETATM   29  O1  UNL     1      32.458  49.717  14.332  1.00  0.00    -0.308 OA
HETATM   30  C1  UNL     1      33.674  49.776  15.052  1.00  0.00     0.215 C
ENDBRANCH   1  29
TORSDOF 5
ENDMDL