MODEL 4
REMARK VINA RESULT: -4.792246418      3.648      5.482
REMARK  6 active torsions:
REMARK  status: ('A' for Active; 'I' for Inactive)
REMARK    1  A    between atoms: C2_2  and  C3_4
REMARK    2  A    between atoms: C2_2  and  C4_9
REMARK    3  A    between atoms: C3_4  and  N1_5
REMARK       I    between atoms: C4_9  and  N2_11
REMARK    4  A    between atoms: N2_11  and  N3_13
REMARK    5  A    between atoms: C5_14  and  O2_15
REMARK       I    between atoms: N5_21  and  C8_23
REMARK    6  A    between atoms: C8_23  and  C9_25
ROOT
HETATM    1  N3  UNL     1      29.907  44.659   6.595  1.00  0.00    -0.059 N
HETATM    2  C5  UNL     1      30.393  44.094   5.485  1.00  0.00     0.196 A
HETATM    3  C6  UNL     1      30.365  44.986   4.400  1.00  0.00     0.164 A
HETATM    4  N4  UNL     1      29.846  46.092   4.909  1.00  0.00    -0.196 N
ATOM      5  H4  UNL     1      29.684  46.949   4.379  1.00  0.00     0.183 HD
HETATM    6  C7  UNL     1      29.563  45.941   6.199  1.00  0.00     0.708 A
HETATM    7  N5  UNL     1      29.048  46.820   6.995  1.00  0.00    -0.154 N
ATOM      8  H5  UNL     1      28.873  46.588   7.972  1.00  0.00     0.187 HD
HETATM    9  C8  UNL     1      28.731  48.096   6.504  1.00  0.00     0.290 C
HETATM   10  O3  UNL     1      27.793  48.203   5.676  1.00  0.00    -0.268 OA
ENDROOT
BRANCH   1  11
HETATM   11  N2  UNL     1      29.734  44.189   7.892  1.00  0.00    -0.244 N
HETATM   12  C4  UNL     1      28.772  43.299   8.366  1.00  0.00     0.278 C
HETATM   13  O1  UNL     1      27.874  42.749   7.710  1.00  0.00    -0.268 OA
ATOM     14  H2  UNL     1      30.395  44.540   8.584  1.00  0.00     0.191 HD
BRANCH  12  15
HETATM   15  C2  UNL     1      28.819  42.958   9.846  1.00  0.00     0.204 C
HETATM   16  C1  UNL     1      30.235  42.625  10.166  1.00  0.00     0.064 C
HETATM   17  F1  UNL     1      28.015  41.853  10.050  1.00  0.00    -0.231 F
BRANCH  15  18
HETATM   18  C3  UNL     1      28.261  44.087  10.660  1.00  0.00     0.282 C
BRANCH  18  19
HETATM   19  N1  UNL     1      27.997  45.233   9.835  1.00  0.00    -0.076 N
ATOM     20  H13 UNL     1      28.406  46.081  10.228  1.00  0.00     0.274 HD
ATOM     21  H12 UNL     1      28.523  45.197   8.962  1.00  0.00     0.274 HD
ATOM     22  H11 UNL     1      26.997  45.339   9.670  1.00  0.00     0.274 HD
ENDBRANCH  18  19
ENDBRANCH  15  18
ENDBRANCH  12  15
ENDBRANCH   1  11
BRANCH   2  23
HETATM   23  O2  UNL     1      30.877  42.790   5.375  1.00  0.00    -0.343 OA
ATOM     24  H2  UNL     1      31.013  42.313   4.565  1.00  0.00     0.219 HD
ENDBRANCH   2  23
BRANCH   9  25
HETATM   25  C9  UNL     1      29.448  49.326   6.914  1.00  0.00     0.270 C
HETATM   26 CL1  UNL     1      28.294  50.573   7.400  1.00  0.00    -0.073 Cl
HETATM   27 CL2  UNL     1      30.483  48.867   8.308  1.00  0.00    -0.073 Cl
HETATM   28 CL3  UNL     1      30.467  49.934   5.588  1.00  0.00    -0.073 Cl
ENDBRANCH   9  25
TORSDOF 6
ENDMDL