MODEL 1
REMARK VINA RESULT: -7.817286471      0.000      0.000
REMARK  4 active torsions:
REMARK  status: ('A' for Active; 'I' for Inactive)
REMARK    1  A    between atoms: C1_2  and  C2_4
REMARK    2  A    between atoms: C2_4  and  N2_5
REMARK       I    between atoms: N2_5  and  C3_7
REMARK    3  A    between atoms: C3_7  and  C4_9
REMARK    4  A    between atoms: C5_16  and  O3_17
ROOT
HETATM    1  N2  UNL     1      29.874  46.241   7.005  1.00  0.00    -0.332 N
ATOM      2  H2  UNL     1      30.703  46.210   6.411  1.00  0.00     0.164 HD
HETATM    3  C3  UNL     1      29.004  47.331   6.827  1.00  0.00     0.275 C
HETATM    4  O2  UNL     1      27.952  47.459   7.504  1.00  0.00    -0.266 OA
ENDROOT
BRANCH   1   5
HETATM    5  C2  UNL     1      29.702  45.154   7.953  1.00  0.00     0.189 A
HETATM    6  C6  UNL     1      30.228  43.819   7.443  1.00  0.00     0.188 A
HETATM    7 CL1  UNL     1      31.073  42.721   8.536  1.00  0.00    -0.095 Cl
HETATM    8 CL2  UNL     1      30.879  43.777   5.777  1.00  0.00    -0.095 Cl
HETATM    9  C7  UNL     1      28.763  44.052   7.625  1.00  0.00     0.188 A
HETATM   10 CL3  UNL     1      27.796  44.136   6.136  1.00  0.00    -0.095 Cl
HETATM   11 CL4  UNL     1      28.012  43.202   8.984  1.00  0.00    -0.095 Cl
BRANCH   5  12
HETATM   12  C1  UNL     1      29.947  45.530   9.366  1.00  0.00     0.266 C
HETATM   13  N1  UNL     1      30.999  46.349   9.835  1.00  0.00    -0.060 NA
HETATM   14  O1  UNL     1      29.164  45.103  10.289  1.00  0.00    -0.274 OA
ENDBRANCH   5  12
ENDBRANCH   1   5
BRANCH   3  15
HETATM   15  C4  UNL     1      29.254  48.388   5.852  1.00  0.00     0.169 A
HETATM   16  N3  UNL     1      28.987  49.683   6.070  1.00  0.00    -0.277 N
HETATM   17  N4  UNL     1      29.325  50.354   5.009  1.00  0.00    -0.240 N
ATOM     18  H3  UNL     1      28.587  50.075   6.922  1.00  0.00     0.189 HD
HETATM   19  N5  UNL     1      29.809  49.560   4.087  1.00  0.00    -0.263 N
ATOM     20  H4  UNL     1      29.227  51.364   4.908  1.00  0.00     0.208 HD
HETATM   21  C5  UNL     1      29.779  48.306   4.583  1.00  0.00     0.190 A
ATOM     22  H5  UNL     1      30.145  49.838   3.165  1.00  0.00     0.190 HD
BRANCH  21  23
HETATM   23  O3  UNL     1      30.203  47.126   3.943  1.00  0.00    -0.343 OA
ATOM     24  H3  UNL     1      30.462  47.051   3.033  1.00  0.00     0.219 HD
ENDBRANCH  21  23
ENDBRANCH   3  15
TORSDOF 4
ENDMDL