MODEL 3
REMARK VINA RESULT: -6.546779200      3.388      5.792
REMARK  6 active torsions:
REMARK  status: ('A' for Active; 'I' for Inactive)
REMARK    1  A    between atoms: N1_1  and  C1_4
REMARK    2  A    between atoms: C2_7  and  N3_8
REMARK    3  A    between atoms: C7_18  and  N6_19
REMARK    4  A    between atoms: N6_19  and  C8_21
REMARK    5  A    between atoms: C8_21  and  C9_22
REMARK    6  A    between atoms: C9_22  and  C10_25
ROOT
HETATM    1  C1  UNL     1      30.820  48.252   9.466  1.00  0.00     0.705 A
HETATM    2  N2  UNL     1      30.719  46.915   9.503  1.00  0.00    -0.022 N
ATOM      3  H2  UNL     1      31.229  46.416  10.231  1.00  0.00     0.203 HD
HETATM    4  C2  UNL     1      29.981  46.192   8.632  1.00  0.00     0.709 A
HETATM    5  N5  UNL     1      29.305  46.838   7.669  1.00  0.00    -0.021 N
ATOM      6  H5  UNL     1      28.739  46.320   6.996  1.00  0.00     0.203 HD
HETATM    7  C7  UNL     1      29.387  48.198   7.604  1.00  0.00     0.707 A
HETATM    8  N7  UNL     1      30.131  48.877   8.487  1.00  0.00    -0.022 N
ATOM      9  H7  UNL     1      30.179  49.893   8.418  1.00  0.00     0.203 HD
ENDROOT
BRANCH   7  10
HETATM   10  N6  UNL     1      28.760  48.863   6.701  1.00  0.00    -0.221 N
ATOM     11  H6  UNL     1      28.636  49.867   6.833  1.00  0.00     0.177 HD
BRANCH  10  12
HETATM   12  C8  UNL     1      28.224  48.254   5.509  1.00  0.00     0.203 C
BRANCH  12  13
HETATM   13  C9  UNL     1      29.107  48.473   4.305  1.00  0.00     0.273 C
HETATM   14  F1  UNL     1      28.259  48.711   3.225  1.00  0.00    -0.219 F
HETATM   15 BR1  UNL     1      30.170  46.898   4.041  1.00  0.00    -0.037 Br
BRANCH  13  16
HETATM   16  C10 UNL     1      29.985  49.686   4.447  1.00  0.00     0.435 C
HETATM   17  F2  UNL     1      30.790  49.660   5.547  1.00  0.00    -0.167 F
HETATM   18  F3  UNL     1      29.237  50.842   4.476  1.00  0.00    -0.167 F
HETATM   19  F4  UNL     1      30.807  49.717   3.321  1.00  0.00    -0.167 F
ENDBRANCH  13  16
ENDBRANCH  12  13
ENDBRANCH  10  12
ENDBRANCH   7  10
BRANCH   4  20
HETATM   20  N3  UNL     1      29.939  44.771   8.756  1.00  0.00    -0.213 N
HETATM   21  C3  UNL     1      29.377  44.199   9.986  1.00  0.00     0.168 C
HETATM   22  C4  UNL     1      28.327  43.202   9.542  1.00  0.00     0.252 C
HETATM   23  N4  UNL     1      29.080  42.104   8.920  1.00  0.00    -0.072 N
HETATM   24  C5  UNL     1      29.663  42.553   7.695  1.00  0.00     0.252 C
ATOM     25  H42 UNL     1      29.775  41.708   9.553  1.00  0.00     0.277 HD
ATOM     26  H41 UNL     1      28.507  41.270   8.790  1.00  0.00     0.277 HD
HETATM   27  C6  UNL     1      30.404  43.852   7.772  1.00  0.00     0.168 C
ENDBRANCH   4  20
BRANCH   1  28
HETATM   28  N1  UNL     1      31.514  48.962  10.278  1.00  0.00    -0.234 N
ATOM     29  H12 UNL     1      31.247  49.936  10.425  1.00  0.00     0.174 HD
ATOM     30  H11 UNL     1      32.326  48.633  10.800  1.00  0.00     0.174 HD
ENDBRANCH   1  28
TORSDOF 6
ENDMDL