MODEL 1
REMARK VINA RESULT: -6.829024697      0.000      0.000
REMARK  7 active torsions:
REMARK  status: ('A' for Active; 'I' for Inactive)
REMARK    1  A    between atoms: N1_1  and  C1_4
REMARK    2  A    between atoms: C2_7  and  C3_8
REMARK    3  A    between atoms: C3_8  and  O1_9
REMARK    4  A    between atoms: C3_8  and  C4_11
REMARK    5  A    between atoms: C3_8  and  C9_21
REMARK    6  A    between atoms: N3_18  and  O2_19
REMARK    7  A    between atoms: C10_27  and  N5_28
ROOT
HETATM    1  C3  UNL     1      29.850  44.547   6.619  1.00  0.00     0.260 C
ENDROOT
BRANCH   1   2
HETATM    2  C2  UNL     1      29.678  43.704   7.812  1.00  0.00     0.163 A
HETATM    3  N2  UNL     1      30.734  43.512   8.609  1.00  0.00    -0.176 N
HETATM    4  C1  UNL     1      30.660  42.749   9.721  1.00  0.00     0.691 A
ATOM      5  H2  UNL     1      31.622  43.956   8.371  1.00  0.00     0.185 HD
HETATM    6  N6  UNL     1      29.509  42.173  10.030  1.00  0.00    -0.023 N
HETATM    7  C10 UNL     1      28.428  42.350   9.246  1.00  0.00     0.691 A
ATOM      8  H6  UNL     1      29.440  41.594  10.866  1.00  0.00     0.203 HD
HETATM    9  N4  UNL     1      28.522  43.128   8.124  1.00  0.00    -0.176 N
ATOM     10  H4  UNL     1      27.705  43.266   7.528  1.00  0.00     0.185 HD
BRANCH   4  11
HETATM   11  N1  UNL     1      31.685  42.580  10.466  1.00  0.00    -0.234 N
ATOM     12  H12 UNL     1      32.495  42.069  10.117  1.00  0.00     0.174 HD
ATOM     13  H11 UNL     1      31.705  42.953  11.416  1.00  0.00     0.174 HD
ENDBRANCH   4  11
BRANCH   7  14
HETATM   14  N5  UNL     1      27.284  41.817   9.494  1.00  0.00    -0.234 N
ATOM     15  H52 UNL     1      26.398  42.289   9.312  1.00  0.00     0.174 HD
ATOM     16  H51 UNL     1      27.286  40.878   9.892  1.00  0.00     0.174 HD
ENDBRANCH   7  14
ENDBRANCH   1   2
BRANCH   1  17
HETATM   17  O1  UNL     1      31.295  44.461   6.395  1.00  0.00    -0.369 OA
ATOM     18  H1  UNL     1      31.456  43.532   6.508  1.00  0.00     0.212 HD
ENDBRANCH   1  17
BRANCH   1  19
HETATM   19  C4  UNL     1      29.597  45.962   6.776  1.00  0.00     0.092 A
HETATM   20  C5  UNL     1      29.797  46.810   5.673  1.00  0.00     0.057 A
HETATM   21  C6  UNL     1      29.606  48.152   5.676  1.00  0.00     0.059 A
HETATM   22 CL1  UNL     1      29.881  49.150   4.240  1.00  0.00    -0.082 Cl
HETATM   23  C7  UNL     1      29.186  48.779   6.822  1.00  0.00     0.073 A
HETATM   24 CL2  UNL     1      28.920  50.514   6.895  1.00  0.00    -0.081 Cl
HETATM   25  C8  UNL     1      28.985  47.964   7.914  1.00  0.00     0.148 A
HETATM   26  N3  UNL     1      29.186  46.616   7.877  1.00  0.00    -0.235 N
BRANCH  26  27
HETATM   27  O2  UNL     1      28.954  45.961   9.039  1.00  0.00    -0.283 OA
ATOM     28  H2  UNL     1      29.394  45.143   9.242  1.00  0.00     0.245 HD
ENDBRANCH  26  27
ENDBRANCH   1  19
BRANCH   1  29
HETATM   29  C9  UNL     1      29.335  43.832   5.415  1.00  0.00     0.431 C
HETATM   30  F1  UNL     1      29.316  42.464   5.481  1.00  0.00    -0.167 F
HETATM   31  F2  UNL     1      30.132  44.130   4.293  1.00  0.00    -0.167 F
HETATM   32  F3  UNL     1      28.073  44.323   5.035  1.00  0.00    -0.167 F
ENDBRANCH   1  29
TORSDOF 7
ENDMDL