MODEL 4
REMARK VINA RESULT: -6.314889460      1.963      2.171
REMARK  4 active torsions:
REMARK  status: ('A' for Active; 'I' for Inactive)
REMARK       I    between atoms: N2_3  and  C2_5
REMARK       I    between atoms: C2_5  and  N3_6
REMARK       I    between atoms: C2_5  and  N5_15
REMARK    1  A    between atoms: N3_6  and  N4_8
REMARK       I    between atoms: N4_8  and  C3_10
REMARK    2  A    between atoms: C3_10  and  C4_12
REMARK       I    between atoms: N5_15  and  C5_17
REMARK    3  A    between atoms: C5_17  and  C6_19
REMARK    4  A    between atoms: C8_25  and  C9_26
ROOT
HETATM    1  N1  UNL     1      28.971  51.065   6.261  1.00  0.00    -0.171 NA
HETATM    2  C1  UNL     1      29.102  49.894   6.354  1.00  0.00     0.196 C
HETATM    3  N2  UNL     1      29.237  48.541   6.431  1.00  0.00    -0.124 N
ATOM      4  H2  UNL     1      28.899  47.935   5.683  1.00  0.00     0.197 HD
HETATM    5  C2  UNL     1      29.844  48.017   7.550  1.00  0.00     0.708 C
HETATM    6  N3  UNL     1      30.253  48.942   8.484  1.00  0.00    -0.129 N
ATOM      7  H3  UNL     1      30.096  49.916   8.228  1.00  0.00     0.205 HD
HETATM    8  N5  UNL     1      29.890  46.636   7.443  1.00  0.00    -0.152 N
ATOM      9  H5  UNL     1      29.486  46.265   6.583  1.00  0.00     0.187 HD
HETATM   10  C5  UNL     1      30.395  45.670   8.308  1.00  0.00     0.288 C
HETATM   11  O2  UNL     1      30.914  45.879   9.386  1.00  0.00    -0.265 OA
ENDROOT
BRANCH   6  12
HETATM   12  N4  UNL     1      30.844  48.743   9.712  1.00  0.00    -0.253 N
HETATM   13  C3  UNL     1      32.122  49.300  10.035  1.00  0.00     0.269 C
HETATM   14  O1  UNL     1      32.728  49.985   9.183  1.00  0.00    -0.269 OA
ATOM     15  H4  UNL     1      30.357  48.182  10.411  1.00  0.00     0.190 HD
BRANCH  13  16
HETATM   16  C4  UNL     1      32.724  49.079  11.357  1.00  0.00     0.271 C
HETATM   17 CL1  UNL     1      31.785  50.034  12.532  1.00  0.00    -0.098 Cl
HETATM   18 CL2  UNL     1      34.449  49.455  11.416  1.00  0.00    -0.098 Cl
ENDBRANCH  13  16
ENDBRANCH   6  12
BRANCH  10  19
HETATM   19  C6  UNL     1      30.303  44.222   7.888  1.00  0.00     0.133 A
HETATM   20  N6  UNL     1      30.950  43.709   6.838  1.00  0.00    -0.295 N
HETATM   21  N7  UNL     1      30.733  42.435   6.709  1.00  0.00    -0.310 N
ATOM     22  H6  UNL     1      31.544  44.253   6.212  1.00  0.00     0.187 HD
HETATM   23  C7  UNL     1      29.909  42.075   7.707  1.00  0.00     0.126 A
ATOM     24  H7  UNL     1      31.114  41.824   5.986  1.00  0.00     0.186 HD
HETATM   25  C8  UNL     1      29.615  43.214   8.487  1.00  0.00     0.098 A
BRANCH  25  26
HETATM   26  C9  UNL     1      28.744  43.249   9.674  1.00  0.00     0.421 C
HETATM   27  F1  UNL     1      27.867  42.151   9.559  1.00  0.00    -0.166 F
HETATM   28  F2  UNL     1      27.995  44.405   9.754  1.00  0.00    -0.166 F
HETATM   29  F3  UNL     1      29.507  43.098  10.807  1.00  0.00    -0.166 F
ENDBRANCH  25  26
ENDBRANCH  10  19
TORSDOF 4
ENDMDL