MODEL 1
REMARK VINA RESULT: -9.250497090      0.000      0.000
REMARK  7 active torsions:
REMARK  status: ('A' for Active; 'I' for Inactive)
REMARK    1  A    between atoms: O1_1  and  C1_3
REMARK    2  A    between atoms: C1_3  and  C6_17
REMARK    3  A    between atoms: N1_4  and  C2_6
REMARK    4  A    between atoms: C4_8  and  C5_9
REMARK    5  A    between atoms: C6_17  and  O2_18
REMARK    6  A    between atoms: C6_17  and  C7_20
REMARK    7  A    between atoms: C6_17  and  C8_29
ROOT
HETATM    1  C1  UNL     1      30.041  44.578   7.509  1.00  0.00     0.163 C
HETATM    2  N1  UNL     1      29.719  44.657   6.192  1.00  0.00    -0.323 N
ATOM      3  H1  UNL     1      29.335  43.800   5.795  1.00  0.00     0.169 HD
ENDROOT
BRANCH   1   4
HETATM    4  O1  UNL     1      31.296  44.040   7.639  1.00  0.00    -0.347 OA
ATOM      5  H1  UNL     1      31.553  44.058   8.552  1.00  0.00     0.219 HD
ENDBRANCH   1   4
BRANCH   1   6
HETATM    6  C6  UNL     1      29.533  44.853   8.816  1.00  0.00     0.213 C
BRANCH   6   7
HETATM    7  O2  UNL     1      30.656  45.337   9.614  1.00  0.00    -0.372 OA
ATOM      8  H2  UNL     1      30.751  46.263   9.422  1.00  0.00     0.211 HD
ENDBRANCH   6   7
BRANCH   6   9
HETATM    9  C7  UNL     1      28.688  46.090   8.732  1.00  0.00     0.159 A
HETATM   10  N4  UNL     1      29.273  47.329   8.739  1.00  0.00    -0.269 N
HETATM   11  N5  UNL     1      28.295  48.209   8.676  1.00  0.00    -0.227 N
ATOM     12  H4  UNL     1      30.272  47.531   8.783  1.00  0.00     0.190 HD
HETATM   13  N6  UNL     1      27.143  47.612   8.635  1.00  0.00    -0.227 N
ATOM     14  H5  UNL     1      28.424  49.221   8.662  1.00  0.00     0.210 HD
HETATM   15  N7  UNL     1      27.396  46.315   8.667  1.00  0.00    -0.269 N
ATOM     16  H6  UNL     1      26.226  48.056   8.588  1.00  0.00     0.210 HD
ATOM     17  H7  UNL     1      26.683  45.586   8.643  1.00  0.00     0.190 HD
ENDBRANCH   6   9
BRANCH   6  18
HETATM   18  C8  UNL     1      28.919  43.807   9.614  1.00  0.00     0.228 C
HETATM   19 CL1  UNL     1      30.239  42.762  10.308  1.00  0.00    -0.104 Cl
HETATM   20 CL2  UNL     1      28.008  42.690   8.532  1.00  0.00    -0.104 Cl
ENDBRANCH   6  18
ENDBRANCH   1   6
BRANCH   2  21
HETATM   21  C2  UNL     1      29.820  45.629   5.370  1.00  0.00     0.123 A
HETATM   22  C3  UNL     1      29.541  46.968   5.651  1.00  0.00     0.085 A
HETATM   23  C4  UNL     1      29.818  47.688   4.549  1.00  0.00     0.135 A
HETATM   24  N2  UNL     1      30.258  46.859   3.576  1.00  0.00    -0.295 N
HETATM   25  N3  UNL     1      30.256  45.612   4.079  1.00  0.00    -0.285 N
ATOM     26  H2  UNL     1      30.541  47.129   2.633  1.00  0.00     0.187 HD
ATOM     27  H3  UNL     1      30.538  44.775   3.569  1.00  0.00     0.188 HD
BRANCH  23  28
HETATM   28  C5  UNL     1      29.671  49.139   4.293  1.00  0.00     0.434 C
HETATM   29  F1  UNL     1      28.562  49.317   3.441  1.00  0.00    -0.165 F
HETATM   30  F2  UNL     1      30.737  49.658   3.603  1.00  0.00    -0.165 F
HETATM   31  F3  UNL     1      29.445  49.856   5.464  1.00  0.00    -0.165 F
ENDBRANCH  23  28
ENDBRANCH   2  21
TORSDOF 7
ENDMDL