MODEL 4
REMARK VINA RESULT: -6.686850840      1.148      1.269
REMARK  9 active torsions:
REMARK  status: ('A' for Active; 'I' for Inactive)
REMARK    1  A    between atoms: C2_2  and  N1_3
REMARK    2  A    between atoms: C2_2  and  N2_7
REMARK    3  A    between atoms: C2_2  and  C7_27
REMARK    4  A    between atoms: N2_7  and  C3_9
REMARK    5  A    between atoms: C4_12  and  C5_13
REMARK    6  A    between atoms: C5_13  and  S1_14
REMARK    7  A    between atoms: S1_14  and  N4_15
REMARK    8  A    between atoms: S1_14  and  N5_19
REMARK    9  A    between atoms: N6_22  and  C6_23
ROOT
HETATM    1  C3  UNL     1      28.007  46.935   7.491  1.00  0.00     0.164 A
HETATM    2  N3  UNL     1      28.275  45.793   6.860  1.00  0.00    -0.324 N
ATOM      3  H3  UNL     1      28.373  45.760   5.846  1.00  0.00     0.169 HD
HETATM    4  C4  UNL     1      28.407  44.709   7.596  1.00  0.00     0.110 A
HETATM    5  N6  UNL     1      28.269  44.812   8.908  1.00  0.00    -0.244 N
HETATM    6  S2  UNL     1      27.946  46.457   9.124  1.00  0.00     0.031 SA
ENDROOT
BRANCH   1   7
HETATM    7  N2  UNL     1      27.837  48.126   6.952  1.00  0.00    -0.330 N
ATOM      8  H2  UNL     1      26.895  48.482   6.794  1.00  0.00     0.164 HD
BRANCH   7   9
HETATM    9  C2  UNL     1      28.966  48.918   6.587  1.00  0.00     0.291 C
HETATM   10  C1  UNL     1      30.099  48.631   7.576  1.00  0.00     0.081 C
BRANCH   9  11
HETATM   11  N1  UNL     1      28.736  50.337   6.617  1.00  0.00    -0.044 N
ATOM     12  H13 UNL     1      27.747  50.584   6.575  1.00  0.00     0.277 HD
ATOM     13  H12 UNL     1      28.935  50.757   7.524  1.00  0.00     0.277 HD
ATOM     14  H11 UNL     1      29.283  50.742   5.858  1.00  0.00     0.277 HD
ENDBRANCH   9  11
BRANCH   9  15
HETATM   15  C7  UNL     1      29.514  48.530   5.213  1.00  0.00     0.438 C
HETATM   16  F3  UNL     1      30.373  47.458   5.313  1.00  0.00    -0.166 F
HETATM   17  F4  UNL     1      30.209  49.564   4.648  1.00  0.00    -0.166 F
HETATM   18  F5  UNL     1      28.463  48.211   4.412  1.00  0.00    -0.166 F
ENDBRANCH   9  15
ENDBRANCH   7   9
ENDBRANCH   1   7
BRANCH   4  19
HETATM   19  C5  UNL     1      28.717  43.367   6.972  1.00  0.00     0.217 C
BRANCH  19  20
HETATM   20  S1  UNL     1      30.406  43.170   6.581  1.00  0.00     0.121 S
HETATM   21  O1  UNL     1      31.173  44.171   7.425  1.00  0.00    -0.227 OA
BRANCH  20  22
HETATM   22  N4  UNL     1      31.063  41.636   6.874  1.00  0.00    -0.344 N
ATOM     23  H42 UNL     1      30.821  41.111   7.715  1.00  0.00     0.167 HD
ATOM     24  H41 UNL     1      31.705  41.281   6.165  1.00  0.00     0.167 HD
ENDBRANCH  20  22
BRANCH  20  25
HETATM   25  N5  UNL     1      30.663  43.578   5.087  1.00  0.00    -0.242 N
HETATM   26 CL1  UNL     1      29.472  44.638   4.386  1.00  0.00     0.020 Cl
ATOM     27  H5  UNL     1      31.471  43.245   4.563  1.00  0.00     0.192 HD
ENDBRANCH  20  25
ENDBRANCH  19  20
ENDBRANCH   4  19
BRANCH   5  28
HETATM   28  C6  UNL     1      28.372  43.758   9.941  1.00  0.00     0.472 C
HETATM   29  F1  UNL     1      29.720  43.420  10.072  1.00  0.00    -0.190 F
HETATM   30  F2  UNL     1      27.862  44.275  11.099  1.00  0.00    -0.190 F
ENDBRANCH   5  28
TORSDOF 9
ENDMDL