MODEL 3
REMARK VINA RESULT: -8.006099550      5.703      7.199
REMARK  5 active torsions:
REMARK  status: ('A' for Active; 'I' for Inactive)
REMARK       I    between atoms: C1_2  and  N4_14
REMARK       I    between atoms: N2_3  and  C2_5
REMARK    1  A    between atoms: C2_5  and  C3_7
REMARK    2  A    between atoms: N4_14  and  N5_16
REMARK    3  A    between atoms: N5_16  and  C7_18
REMARK    4  A    between atoms: N9_23  and  C8_24
REMARK    5  A    between atoms: C8_24  and  C9_25
ROOT
HETATM    1  N1  UNL     1      30.720  47.226   9.605  1.00  0.00    -0.062 NA
HETATM    2  C1  UNL     1      30.656  48.577   9.204  1.00  0.00     0.210 C
HETATM    3  N2  UNL     1      29.775  48.993   8.372  1.00  0.00    -0.294 N
ATOM      4  H2  UNL     1      29.744  49.973   8.093  1.00  0.00     0.172 HD
HETATM    5  C2  UNL     1      28.845  48.056   7.848  1.00  0.00     0.274 C
HETATM    6  O1  UNL     1      27.727  47.893   8.379  1.00  0.00    -0.266 OA
HETATM    7  N4  UNL     1      31.587  49.502   9.733  1.00  0.00    -0.259 N
ATOM      8  H4  UNL     1      31.929  50.260   9.143  1.00  0.00     0.190 HD
ENDROOT
BRANCH   7   9
HETATM    9  N5  UNL     1      32.049  49.396  11.051  1.00  0.00    -0.127 N
ATOM     10  H5  UNL     1      31.398  49.354  11.835  1.00  0.00     0.205 HD
BRANCH   9  11
HETATM   11  C7  UNL     1      33.325  49.354  11.243  1.00  0.00     0.725 A
HETATM   12  N6  UNL     1      34.337  49.401  10.371  1.00  0.00    -0.115 N
HETATM   13  N7  UNL     1      35.508  49.326  11.008  1.00  0.00     0.007 NA
ATOM     14  H6  UNL     1      34.231  49.482   9.360  1.00  0.00     0.202 HD
HETATM   15  N8  UNL     1      35.201  49.233  12.291  1.00  0.00     0.009 NA
HETATM   16  N9  UNL     1      33.886  49.249  12.462  1.00  0.00    -0.099 N
BRANCH  16  17
HETATM   17  C8  UNL     1      33.185  49.165  13.727  1.00  0.00     0.282 C
BRANCH  17  18
HETATM   18  C9  UNL     1      33.989  49.906  14.798  1.00  0.00     0.405 C
HETATM   19  F1  UNL     1      34.660  49.029  15.592  1.00  0.00    -0.169 F
HETATM   20  F2  UNL     1      34.792  50.847  14.227  1.00  0.00    -0.169 F
HETATM   21  F3  UNL     1      33.039  50.588  15.562  1.00  0.00    -0.169 F
ENDBRANCH  17  18
ENDBRANCH  16  17
ENDBRANCH   9  11
ENDBRANCH   7   9
BRANCH   5  22
HETATM   22  C3  UNL     1      29.219  47.283   6.672  1.00  0.00     0.102 A
HETATM   23  C4  UNL     1      29.571  47.760   5.430  1.00  0.00     0.038 A
HETATM   24  C5  UNL     1      29.853  46.681   4.596  1.00  0.00     0.045 A
HETATM   25  C6  UNL     1      29.659  45.558   5.372  1.00  0.00     0.104 A
HETATM   26 CL1  UNL     1      29.885  43.910   4.784  1.00  0.00    -0.065 Cl
HETATM   27  N3  UNL     1      29.281  45.921   6.607  1.00  0.00    -0.342 N
ATOM     28  H3  UNL     1      29.073  45.282   7.374  1.00  0.00     0.167 HD
ENDBRANCH   5  22
TORSDOF 5
ENDMDL