MODEL 3
REMARK VINA RESULT: -8.422265050      1.214      3.441
REMARK  6 active torsions:
REMARK  status: ('A' for Active; 'I' for Inactive)
REMARK    1  A    between atoms: C2_2  and  C3_3
REMARK    2  A    between atoms: C3_3  and  C4_4
REMARK    3  A    between atoms: C7_13  and  N4_14
REMARK    4  A    between atoms: N4_14  and  C8_16
REMARK    5  A    between atoms: C11_25  and  N8_26
REMARK    6  A    between atoms: N8_26  and  C12_28
ROOT
HETATM    1  C12 UNL     1      26.682  48.483 -17.120  1.00  0.00     0.245 C
HETATM    2  C13 UNL     1      26.472  48.858 -15.721  1.00  0.00     0.078 C
HETATM    3  N9  UNL     1      26.323  49.147 -14.607  1.00  0.00    -0.196 NA
ENDROOT
BRANCH   1   4
HETATM    4  N8  UNL     1      25.417  48.180 -17.712  1.00  0.00    -0.363 N
ATOM      5  H8  UNL     1      25.445  47.642 -18.578  1.00  0.00     0.162 HD
BRANCH   4   6
HETATM    6  C11 UNL     1      24.272  48.498 -17.293  1.00  0.00     0.132 A
HETATM    7  N7  UNL     1      23.814  47.862 -16.187  1.00  0.00    -0.175 N
HETATM    8  C7  UNL     1      22.622  48.198 -15.676  1.00  0.00     0.700 A
ATOM      9  H7  UNL     1      24.374  47.133 -15.747  1.00  0.00     0.186 HD
HETATM   10  N3  UNL     1      21.861  49.150 -16.223  1.00  0.00    -0.174 N
HETATM   11  C6  UNL     1      22.265  49.818 -17.323  1.00  0.00     0.150 A
ATOM     12  H3  UNL     1      20.960  49.376 -15.802  1.00  0.00     0.186 HD
HETATM   13  N2  UNL     1      21.496  50.789 -17.844  1.00  0.00    -0.285 N
HETATM   14  C14 UNL     1      23.521  49.479 -17.888  1.00  0.00     0.062 A
HETATM   15  N1  UNL     1      21.941  51.424 -18.899  1.00  0.00    -0.310 N
ATOM     16  H2  UNL     1      20.594  51.024 -17.430  1.00  0.00     0.188 HD
HETATM   17  C5  UNL     1      23.097  51.172 -19.488  1.00  0.00     0.115 A
ATOM     18  H1  UNL     1      21.356  52.161 -19.294  1.00  0.00     0.186 HD
HETATM   19  C4  UNL     1      23.955  50.158 -18.989  1.00  0.00    -0.024 A
BRANCH   8  20
HETATM   20  N4  UNL     1      22.226  47.569 -14.626  1.00  0.00    -0.022 N
ATOM     21  H4  UNL     1      21.410  46.963 -14.717  1.00  0.00     0.203 HD
BRANCH  20  22
HETATM   22  C8  UNL     1      22.838  47.655 -13.353  1.00  0.00     0.696 A
HETATM   23  N5  UNL     1      24.139  47.652 -13.010  1.00  0.00    -0.200 N
HETATM   24  C9  UNL     1      24.274  47.756 -11.675  1.00  0.00     0.123 A
ATOM     25  H5  UNL     1      24.914  47.580 -13.669  1.00  0.00     0.183 HD
HETATM   26  C10 UNL     1      22.997  47.827 -11.159  1.00  0.00     0.123 A
HETATM   27  N6  UNL     1      22.149  47.763 -12.202  1.00  0.00    -0.200 N
ATOM     28  H6  UNL     1      21.132  47.794 -12.130  1.00  0.00     0.183 HD
ENDBRANCH  20  22
ENDBRANCH   8  20
BRANCH  19  29
HETATM   29  C3  UNL     1      25.175  49.852 -19.720  1.00  0.00     0.041 C
BRANCH  29  30
HETATM   30  C2  UNL     1      25.829  51.149 -20.135  1.00  0.00     0.000 C
HETATM   31  C1  UNL     1      27.309  51.172 -19.680  1.00  0.00     0.005 C
ENDBRANCH  29  30
ENDBRANCH  19  29
ENDBRANCH   4   6
ENDBRANCH   1   4
TORSDOF 6
ENDMDL