MODEL 1
REMARK VINA RESULT: -8.465851442      0.000      0.000
REMARK  6 active torsions:
REMARK  status: ('A' for Active; 'I' for Inactive)
REMARK    1  A    between atoms: C3_5  and  C4_6
REMARK    2  A    between atoms: C6_12  and  N4_13
REMARK    3  A    between atoms: N4_13  and  C7_15
REMARK    4  A    between atoms: C7_15  and  C8_16
REMARK    5  A    between atoms: C8_16  and  N5_17
REMARK    6  A    between atoms: C13_25  and  N7_26
ROOT
HETATM    1  C4  UNL     1      23.636  48.212 -16.461  1.00  0.00     0.070 A
HETATM    2  C5  UNL     1      24.730  47.346 -16.652  1.00  0.00     0.126 A
HETATM    3  N2  UNL     1      24.803  46.480 -15.629  1.00  0.00    -0.309 N
ATOM      4  H2  UNL     1      25.497  45.742 -15.512  1.00  0.00     0.186 HD
HETATM    5  N3  UNL     1      23.823  46.752 -14.811  1.00  0.00    -0.285 N
ATOM      6  H3  UNL     1      23.632  46.252 -13.943  1.00  0.00     0.188 HD
HETATM    7  C6  UNL     1      23.087  47.807 -15.287  1.00  0.00     0.131 A
ENDROOT
BRANCH   1   8
HETATM    8  C3  UNL     1      23.311  49.253 -17.418  1.00  0.00     0.137 A
HETATM    9  N1  UNL     1      24.229  49.760 -18.252  1.00  0.00    -0.331 N
HETATM   10  C2  UNL     1      23.979  50.722 -19.162  1.00  0.00     0.095 A
ATOM     11  H1  UNL     1      25.179  49.394 -18.194  1.00  0.00     0.168 HD
HETATM   12  C1  UNL     1      25.043  51.232 -20.059  1.00  0.00     0.089 C
HETATM   13  N8  UNL     1      22.713  51.186 -19.213  1.00  0.00    -0.181 N
HETATM   14  C13 UNL     1      21.752  50.720 -18.406  1.00  0.00     0.678 A
ATOM     15  H8  UNL     1      22.480  51.915 -19.888  1.00  0.00     0.185 HD
HETATM   16  N6  UNL     1      22.076  49.747 -17.510  1.00  0.00    -0.176 N
ATOM     17  H6  UNL     1      21.351  49.385 -16.890  1.00  0.00     0.186 HD
BRANCH  14  18
HETATM   18  N7  UNL     1      20.550  51.183 -18.477  1.00  0.00    -0.234 N
ATOM     19  H72 UNL     1      19.891  51.041 -17.712  1.00  0.00     0.174 HD
ATOM     20  H71 UNL     1      20.234  51.700 -19.298  1.00  0.00     0.174 HD
ENDBRANCH  14  18
ENDBRANCH   1   8
BRANCH   7  21
HETATM   21  N4  UNL     1      22.062  48.326 -14.734  1.00  0.00    -0.373 N
ATOM     22  H4  UNL     1      21.147  47.928 -14.942  1.00  0.00     0.161 HD
BRANCH  21  23
HETATM   23  C7  UNL     1      22.133  49.451 -13.825  1.00  0.00     0.151 C
BRANCH  23  24
HETATM   24  C8  UNL     1      22.249  49.032 -12.402  1.00  0.00     0.292 C
BRANCH  24  25
HETATM   25  N5  UNL     1      23.407  49.499 -11.698  1.00  0.00     0.094 N
HETATM   26  C9  UNL     1      23.929  48.559 -10.776  1.00  0.00     0.298 C
HETATM   27  C10 UNL     1      24.640  47.462 -11.537  1.00  0.00     0.198 C
HETATM   28  O1  UNL     1      25.677  47.932 -12.289  1.00  0.00    -0.388 OA
HETATM   29  C11 UNL     1      25.674  49.249 -12.626  1.00  0.00     0.198 C
HETATM   30  C12 UNL     1      24.359  49.934 -12.696  1.00  0.00     0.298 C
ENDBRANCH  24  25
ENDBRANCH  23  24
ENDBRANCH  21  23
ENDBRANCH   7  21
TORSDOF 6
ENDMDL