MODEL 3
REMARK VINA RESULT: -8.212837121      2.020      4.021
REMARK  4 active torsions:
REMARK  status: ('A' for Active; 'I' for Inactive)
REMARK    1  A    between atoms: N3_4  and  C2_6
REMARK    2  A    between atoms: C2_6  and  C3_7
REMARK    3  A    between atoms: C4_8  and  N4_9
REMARK    4  A    between atoms: C10_19  and  C11_20
ROOT
HETATM    1  C3  UNL     1      23.994  48.859 -15.199  1.00  0.00     0.051 A
HETATM    2  C4  UNL     1      23.613  49.186 -16.498  1.00  0.00     0.135 A
HETATM    3  N5  UNL     1      22.299  49.313 -16.453  1.00  0.00    -0.284 N
ATOM      4  H5  UNL     1      21.707  49.560 -17.245  1.00  0.00     0.188 HD
HETATM    5  N6  UNL     1      21.857  49.070 -15.202  1.00  0.00    -0.300 N
ATOM      6  H6  UNL     1      20.880  49.108 -14.911  1.00  0.00     0.186 HD
HETATM    7  C10 UNL     1      22.889  48.769 -14.397  1.00  0.00     0.071 A
ENDROOT
BRANCH   7   8
HETATM    8  C11 UNL     1      22.851  48.189 -13.009  1.00  0.00     0.199 C
HETATM    9  C12 UNL     1      22.641  49.176 -11.924  1.00  0.00     0.270 C
HETATM   10  N7  UNL     1      22.666  48.434 -10.660  1.00  0.00    -0.070 N
HETATM   11  C13 UNL     1      21.589  47.446 -10.656  1.00  0.00     0.258 C
ATOM     12  H72 UNL     1      23.578  48.012 -10.477  1.00  0.00     0.277 HD
ATOM     13  H71 UNL     1      22.628  49.051  -9.849  1.00  0.00     0.277 HD
HETATM   14  C14 UNL     1      20.832  47.671 -11.956  1.00  0.00     0.196 C
HETATM   15  O1  UNL     1      21.654  47.335 -13.002  1.00  0.00    -0.376 OA
ENDBRANCH   7   8
BRANCH   1  16
HETATM   16  C2  UNL     1      25.386  49.051 -14.732  1.00  0.00     0.107 C
BRANCH  16  17
HETATM   17  N3  UNL     1      25.868  48.485 -13.571  1.00  0.00    -0.342 N
HETATM   18  C1  UNL     1      26.030  49.173 -12.499  1.00  0.00     0.200 C
HETATM   19  N1  UNL     1      26.570  48.474 -11.355  1.00  0.00    -0.067 NA
HETATM   20  N2  UNL     1      25.622  50.520 -12.354  1.00  0.00    -0.067 NA
ATOM     21  H3  UNL     1      26.102  47.493 -13.564  1.00  0.00     0.167 HD
ENDBRANCH  16  17
ENDBRANCH   1  16
BRANCH   2  22
HETATM   22  N4  UNL     1      24.549  49.128 -17.602  1.00  0.00    -0.345 N
HETATM   23  C5  UNL     1      25.762  48.441 -17.637  1.00  0.00     0.065 C
HETATM   24  C6  UNL     1      26.793  48.970 -18.597  1.00  0.00     0.045 C
HETATM   25  C7  UNL     1      26.258  49.766 -19.733  1.00  0.00     0.007 C
HETATM   26  C8  UNL     1      25.132  50.698 -19.305  1.00  0.00     0.021 C
HETATM   27  C9  UNL     1      24.037  49.830 -18.805  1.00  0.00     0.129 C
ENDBRANCH   2  22
TORSDOF 4
ENDMDL