MODEL 3
REMARK VINA RESULT: -6.934418410      2.025      4.897
REMARK  9 active torsions:
REMARK  status: ('A' for Active; 'I' for Inactive)
REMARK    1  A    between atoms: C2_2  and  C3_3
REMARK    2  A    between atoms: C3_3  and  O1_5
REMARK    3  A    between atoms: C3_3  and  N1_7
REMARK    4  A    between atoms: N1_7  and  C5_9
REMARK    5  A    between atoms: C6_12  and  N3_13
REMARK    6  A    between atoms: N3_13  and  C7_15
REMARK    7  A    between atoms: C7_15  and  C8_16
REMARK    8  A    between atoms: C8_16  and  O2_17
REMARK    9  A    between atoms: C10_25  and  N6_26
ROOT
HETATM    1  C5  UNL     1      22.863  49.848 -17.514  1.00  0.00     0.136 A
HETATM    2  N2  UNL     1      22.225  49.238 -16.505  1.00  0.00    -0.176 N
ATOM      3  H2  UNL     1      21.227  49.424 -16.411  1.00  0.00     0.186 HD
HETATM    4  C6  UNL     1      22.776  48.404 -15.606  1.00  0.00     0.680 A
HETATM    5  N4  UNL     1      24.080  48.155 -15.722  1.00  0.00    -0.183 N
ATOM      6  H4  UNL     1      24.547  47.529 -15.065  1.00  0.00     0.185 HD
HETATM    7  C9  UNL     1      24.782  48.747 -16.728  1.00  0.00     0.124 A
HETATM    8  S1  UNL     1      26.428  48.674 -17.187  1.00  0.00     0.007 SA
HETATM    9  N5  UNL     1      26.384  49.705 -18.515  1.00  0.00    -0.310 N
ATOM     10  H5  UNL     1      27.154  49.976 -19.127  1.00  0.00     0.176 HD
HETATM   11  C10 UNL     1      25.106  50.085 -18.579  1.00  0.00     0.124 A
HETATM   12  C12 UNL     1      24.258  49.595 -17.655  1.00  0.00     0.088 A
ENDROOT
BRANCH   1  13
HETATM   13  N1  UNL     1      22.295  50.620 -18.328  1.00  0.00    -0.344 N
ATOM     14  H1  UNL     1      22.781  50.677 -19.223  1.00  0.00     0.164 HD
BRANCH  13  15
HETATM   15  C3  UNL     1      21.144  51.421 -18.281  1.00  0.00     0.128 C
HETATM   16  C4  UNL     1      20.063  51.005 -19.250  1.00  0.00     0.070 C
BRANCH  15  17
HETATM   17  C2  UNL     1      21.442  52.907 -18.507  1.00  0.00     0.056 C
HETATM   18  C1  UNL     1      20.687  53.763 -17.525  1.00  0.00     0.010 C
ENDBRANCH  15  17
BRANCH  15  19
HETATM   19  O1  UNL     1      20.532  51.383 -17.000  1.00  0.00    -0.371 OA
ATOM     20  H1  UNL     1      20.602  50.473 -16.738  1.00  0.00     0.212 HD
ENDBRANCH  15  19
ENDBRANCH  13  15
ENDBRANCH   1  13
BRANCH   4  21
HETATM   21  N3  UNL     1      22.104  47.858 -14.669  1.00  0.00    -0.224 N
ATOM     22  H3  UNL     1      21.112  47.681 -14.821  1.00  0.00     0.177 HD
BRANCH  21  23
HETATM   23  C7  UNL     1      22.678  47.488 -13.425  1.00  0.00     0.164 C
BRANCH  23  24
HETATM   24  C8  UNL     1      21.859  47.921 -12.229  1.00  0.00     0.184 C
BRANCH  24  25
HETATM   25  O2  UNL     1      20.551  47.444 -12.409  1.00  0.00    -0.399 OA
ATOM     26  H2  UNL     1      20.300  46.981 -11.618  1.00  0.00     0.209 HD
ENDBRANCH  24  25
ENDBRANCH  23  24
ENDBRANCH  21  23
ENDBRANCH   4  21
BRANCH  11  27
HETATM   27  N6  UNL     1      24.747  50.916 -19.541  1.00  0.00    -0.379 N
HETATM   28  C11 UNL     1      25.460  51.060 -20.763  1.00  0.00     0.147 C
ATOM     29  H6  UNL     1      23.912  51.485 -19.399  1.00  0.00     0.160 HD
ENDBRANCH  11  27
TORSDOF 9
ENDMDL