MODEL 3
REMARK VINA RESULT: -8.498193543      1.498      1.498
REMARK  5 active torsions:
REMARK  status: ('A' for Active; 'I' for Inactive)
REMARK    1  A    between atoms: C3_5  and  N2_6
REMARK       I    between atoms: N2_6  and  C4_8
REMARK    2  A    between atoms: C5_14  and  C6_15
REMARK    3  A    between atoms: C6_15  and  C7_16
REMARK    4  A    between atoms: C7_16  and  C8_17
REMARK    5  A    between atoms: N7_23  and  C10_25
ROOT
HETATM    1  C1  UNL     1      26.821  49.748 -18.732  1.00  0.00     0.069 C
HETATM    2  C2  UNL     1      25.315  49.817 -18.543  1.00  0.00     0.020 A
HETATM    3  N1  UNL     1      24.563  50.704 -19.126  1.00  0.00    -0.339 N
ATOM      4  H1  UNL     1      24.969  51.400 -19.751  1.00  0.00     0.168 HD
HETATM    5  C3  UNL     1      23.252  50.685 -18.891  1.00  0.00     0.151 A
HETATM    6  S1  UNL     1      23.068  49.375 -17.813  1.00  0.00    -0.057 SA
HETATM    7  C5  UNL     1      24.707  48.909 -17.715  1.00  0.00     0.009 A
ENDROOT
BRANCH   7   8
HETATM    8  C6  UNL     1      25.352  47.787 -16.936  1.00  0.00     0.055 C
BRANCH   8   9
HETATM    9  C7  UNL     1      24.236  47.159 -16.155  1.00  0.00     0.072 C
BRANCH   9  10
HETATM   10  C8  UNL     1      24.190  47.745 -14.776  1.00  0.00     0.070 A
HETATM   11  N5  UNL     1      25.106  47.711 -13.823  1.00  0.00    -0.296 N
HETATM   12  N6  UNL     1      24.893  48.274 -12.711  1.00  0.00    -0.279 N
ATOM     13  H5  UNL     1      25.989  47.227 -13.985  1.00  0.00     0.187 HD
HETATM   14  C9  UNL     1      23.735  48.903 -12.510  1.00  0.00     0.167 A
ATOM     15  H6  UNL     1      25.600  48.248 -11.975  1.00  0.00     0.189 HD
HETATM   16  N7  UNL     1      23.333  49.542 -11.439  1.00  0.00    -0.313 N
HETATM   17  S2  UNL     1      22.947  48.652 -14.006  1.00  0.00    -0.038 SA
ATOM     18  H7  UNL     1      22.414  49.986 -11.412  1.00  0.00     0.170 HD
BRANCH  16  19
HETATM   19  C10 UNL     1      24.192  49.602 -10.332  1.00  0.00     0.354 C
HETATM   20  O1  UNL     1      25.355  50.058 -10.530  1.00  0.00    -0.283 OA
ENDBRANCH  16  19
ENDBRANCH   9  10
ENDBRANCH   8   9
ENDBRANCH   7   8
BRANCH   5  21
HETATM   21  N2  UNL     1      22.328  51.486 -19.380  1.00  0.00    -0.311 N
HETATM   22  C4  UNL     1      21.061  51.553 -18.746  1.00  0.00     0.187 C
HETATM   23  N3  UNL     1      20.088  50.825 -19.217  1.00  0.00    -0.373 N
HETATM   24  N4  UNL     1      20.810  52.383 -17.620  1.00  0.00    -0.064 NA
ATOM     25  H32 UNL     1      20.269  50.229 -20.025  1.00  0.00     0.158 HD
ATOM     26  H31 UNL     1      19.178  50.873 -18.760  1.00  0.00     0.158 HD
ATOM     27  H2  UNL     1      22.521  52.052 -20.206  1.00  0.00     0.170 HD
ENDBRANCH   5  21
TORSDOF 5
ENDMDL