MODEL 1
REMARK VINA RESULT: -7.809783859      0.000      0.000
REMARK  6 active torsions:
REMARK  status: ('A' for Active; 'I' for Inactive)
REMARK    1  A    between atoms: N1_1  and  C1_4
REMARK    2  A    between atoms: C3_9  and  N4_10
REMARK    3  A    between atoms: C8_15  and  N5_16
REMARK    4  A    between atoms: N5_16  and  C9_18
REMARK    5  A    between atoms: C9_18  and  C10_19
REMARK    6  A    between atoms: C10_19  and  N6_20
ROOT
HETATM    1  C1  UNL     1      22.068  46.324 -15.607  1.00  0.00     0.678 A
HETATM    2  N2  UNL     1      21.497  46.675 -14.449  1.00  0.00    -0.177 N
ATOM      3  H2  UNL     1      20.541  46.378 -14.257  1.00  0.00     0.185 HD
HETATM    4  C2  UNL     1      22.150  47.410 -13.536  1.00  0.00     0.162 A
HETATM    5  N3  UNL     1      21.490  47.770 -12.292  1.00  0.00    -0.080 NA
HETATM    6  C3  UNL     1      23.425  47.806 -13.791  1.00  0.00     0.117 A
HETATM    7  C8  UNL     1      24.025  47.437 -15.004  1.00  0.00     0.147 A
HETATM    8  N7  UNL     1      23.344  46.704 -15.896  1.00  0.00    -0.175 N
ATOM      9  H7  UNL     1      23.776  46.434 -16.779  1.00  0.00     0.186 HD
ENDROOT
BRANCH   7  10
HETATM   10  N5  UNL     1      25.242  47.816 -15.218  1.00  0.00    -0.372 N
ATOM     11  H5  UNL     1      26.010  47.300 -14.788  1.00  0.00     0.161 HD
BRANCH  10  12
HETATM   12  C9  UNL     1      25.529  48.941 -16.041  1.00  0.00     0.141 C
BRANCH  12  13
HETATM   13  C10 UNL     1      26.366  48.406 -17.224  1.00  0.00     0.146 C
BRANCH  13  14
HETATM   14  N6  UNL     1      25.807  48.941 -18.422  1.00  0.00    -0.368 N
HETATM   15  C11 UNL     1      24.599  49.620 -18.193  1.00  0.00     0.089 C
HETATM   16  C12 UNL     1      24.238  50.678 -19.186  1.00  0.00     0.212 C
HETATM   17  O1  UNL     1      25.379  51.355 -19.657  1.00  0.00    -0.381 OA
HETATM   18  C13 UNL     1      26.101  50.406 -20.374  1.00  0.00     0.212 C
HETATM   19  C14 UNL     1      26.690  49.426 -19.397  1.00  0.00     0.089 C
ENDBRANCH  13  14
ENDBRANCH  12  13
ENDBRANCH  10  12
ENDBRANCH   7  10
BRANCH   6  20
HETATM   20  N4  UNL     1      24.139  48.586 -12.865  1.00  0.00    -0.375 N
HETATM   21  C4  UNL     1      24.946  48.041 -11.759  1.00  0.00     0.123 C
HETATM   22  C5  UNL     1      25.513  49.254 -11.071  1.00  0.00     0.021 C
HETATM   23  C6  UNL     1      25.599  50.247 -12.237  1.00  0.00     0.021 C
HETATM   24  C7  UNL     1      24.202  50.040 -12.837  1.00  0.00     0.123 C
ENDBRANCH   6  20
BRANCH   1  25
HETATM   25  N1  UNL     1      21.454  45.621 -16.495  1.00  0.00    -0.234 N
ATOM     26  H12 UNL     1      21.034  46.127 -17.274  1.00  0.00     0.174 HD
ATOM     27  H11 UNL     1      21.381  44.606 -16.434  1.00  0.00     0.174 HD
ENDBRANCH   1  25
TORSDOF 6
ENDMDL