MODEL 2
REMARK VINA RESULT: -8.699838205      2.145      5.532
REMARK  5 active torsions:
REMARK  status: ('A' for Active; 'I' for Inactive)
REMARK    1  A    between atoms: C2_2  and  C3_3
REMARK       I    between atoms: C3_3  and  N1_5
REMARK    2  A    between atoms: N1_5  and  C4_7
REMARK    3  A    between atoms: N2_11  and  C8_12
REMARK    4  A    between atoms: C9_13  and  C10_14
REMARK       I    between atoms: C10_14  and  N3_16
REMARK       I    between atoms: N3_16  and  C11_17
REMARK       I    between atoms: C11_17  and  N5_19
REMARK    5  A    between atoms: N5_19  and  N6_21
ROOT
HETATM    1  C4  UNL     1      25.295  48.248 -16.164  1.00  0.00     0.102 C
HETATM    2  C5  UNL     1      26.321  48.909 -15.271  1.00  0.00     0.028 C
HETATM    3  C6  UNL     1      26.016  48.877 -13.831  1.00  0.00     0.022 C
HETATM    4  C7  UNL     1      25.436  47.529 -13.342  1.00  0.00     0.122 C
HETATM    5  N2  UNL     1      24.430  47.227 -14.279  1.00  0.00    -0.388 N
HETATM    6  C12 UNL     1      25.052  46.853 -15.645  1.00  0.00     0.147 C
ENDROOT
BRANCH   5   7
HETATM    7  C8  UNL     1      23.120  47.235 -14.227  1.00  0.00     0.092 C
HETATM    8  C9  UNL     1      21.977  47.773 -14.285  1.00  0.00     0.107 C
BRANCH   8   9
HETATM    9  C10 UNL     1      21.916  49.387 -14.617  1.00  0.00     0.319 C
HETATM   10  O2  UNL     1      21.770  49.841 -13.566  1.00  0.00    -0.252 OA
HETATM   11  N3  UNL     1      22.047  49.519 -15.948  1.00  0.00    -0.332 NA
HETATM   12  C11 UNL     1      22.178  49.651 -17.284  1.00  0.00     0.290 C
HETATM   13  N4  UNL     1      22.438  48.396 -17.870  1.00  0.00    -0.047 NA
HETATM   14  N5  UNL     1      22.209  50.606 -18.267  1.00  0.00    -0.201 N
ATOM     15  H5  UNL     1      23.051  50.623 -18.843  1.00  0.00     0.197 HD
BRANCH  14  16
HETATM   16  N6  UNL     1      21.248  51.551 -18.582  1.00  0.00    -0.036 N
HETATM   17  O3  UNL     1      20.645  51.480 -19.666  1.00  0.00    -0.516 OA
HETATM   18  O4  UNL     1      20.922  52.557 -17.700  1.00  0.00    -0.516 OA
ENDBRANCH  14  16
ENDBRANCH   8   9
ENDBRANCH   5   7
BRANCH   1  19
HETATM   19  N1  UNL     1      25.690  48.318 -17.516  1.00  0.00    -0.355 N
HETATM   20  C3  UNL     1      25.681  49.368 -18.423  1.00  0.00     0.217 C
HETATM   21  O1  UNL     1      25.255  50.568 -18.241  1.00  0.00    -0.274 OA
ATOM     22  H1  UNL     1      26.046  47.440 -17.895  1.00  0.00     0.162 HD
BRANCH  20  23
HETATM   23  C2  UNL     1      26.238  49.047 -19.779  1.00  0.00     0.098 C
HETATM   24  C1  UNL     1      26.229  50.247 -20.686  1.00  0.00     0.014 C
ENDBRANCH  20  23
ENDBRANCH   1  19
TORSDOF 5
ENDMDL