MODEL 1
REMARK VINA RESULT: -7.899833555      0.000      0.000
REMARK  6 active torsions:
REMARK  status: ('A' for Active; 'I' for Inactive)
REMARK    1  A    between atoms: C2_2  and  C3_3
REMARK    2  A    between atoms: C3_3  and  N1_4
REMARK    3  A    between atoms: N1_4  and  C4_6
REMARK    4  A    between atoms: C5_9  and  N3_10
REMARK    5  A    between atoms: C11_20  and  N6_21
REMARK    6  A    between atoms: N6_21  and  C12_23
ROOT
HETATM    1  C4  UNL     1      24.695  48.190 -16.557  1.00  0.00     0.707 A
HETATM    2  N2  UNL     1      24.576  48.009 -15.232  1.00  0.00    -0.021 N
ATOM      3  H2  UNL     1      25.347  47.569 -14.730  1.00  0.00     0.203 HD
HETATM    4  C5  UNL     1      23.488  48.381 -14.537  1.00  0.00     0.709 A
HETATM    5  N5  UNL     1      22.486  48.956 -15.219  1.00  0.00    -0.021 N
ATOM      6  H5  UNL     1      21.646  49.249 -14.721  1.00  0.00     0.203 HD
HETATM    7  C11 UNL     1      22.568  49.155 -16.553  1.00  0.00     0.709 A
HETATM    8  N8  UNL     1      23.669  48.773 -17.220  1.00  0.00    -0.021 N
ATOM      9  H8  UNL     1      23.733  48.923 -18.227  1.00  0.00     0.203 HD
ENDROOT
BRANCH   7  10
HETATM   10  N6  UNL     1      21.617  49.701 -17.204  1.00  0.00    -0.196 N
ATOM     11  H6  UNL     1      20.748  49.176 -17.305  1.00  0.00     0.180 HD
BRANCH  10  12
HETATM   12  C12 UNL     1      21.685  51.010 -17.808  1.00  0.00     0.299 C
HETATM   13  C13 UNL     1      22.662  51.010 -18.959  1.00  0.00     0.057 C
HETATM   14  C14 UNL     1      21.818  50.728 -20.178  1.00  0.00     0.031 C
HETATM   15  C15 UNL     1      20.404  50.942 -19.748  1.00  0.00     0.235 C
HETATM   16  N7  UNL     1      20.388  51.310 -18.370  1.00  0.00    -0.054 N
ATOM     17  H72 UNL     1      19.625  50.871 -17.855  1.00  0.00     0.279 HD
ATOM     18  H71 UNL     1      20.111  52.281 -18.224  1.00  0.00     0.279 HD
ENDBRANCH  10  12
ENDBRANCH   7  10
BRANCH   4  19
HETATM   19  N3  UNL     1      23.468  48.142 -13.135  1.00  0.00    -0.215 N
HETATM   20  C6  UNL     1      22.156  47.980 -12.589  1.00  0.00     0.146 C
HETATM   21  C7  UNL     1      22.089  47.790 -11.124  1.00  0.00     0.064 C
HETATM   22  C8  UNL     1      23.044  48.566 -10.300  1.00  0.00     0.057 C
HETATM   23  N4  UNL     1      23.705  49.644 -10.919  1.00  0.00    -0.401 N
HETATM   24  C9  UNL     1      24.884  49.349 -11.646  1.00  0.00     0.139 C
ATOM     25  H4  UNL     1      23.349  50.597 -10.847  1.00  0.00     0.158 HD
HETATM   26  C10 UNL     1      24.749  48.094 -12.463  1.00  0.00     0.160 C
ENDBRANCH   4  19
BRANCH   1  27
HETATM   27  N1  UNL     1      25.755  47.821 -17.193  1.00  0.00    -0.225 N
ATOM     28  H1  UNL     1      25.878  46.851 -17.481  1.00  0.00     0.177 HD
BRANCH  27  29
HETATM   29  C3  UNL     1      26.769  48.815 -17.491  1.00  0.00     0.137 C
BRANCH  29  30
HETATM   30  C2  UNL     1      26.651  49.098 -18.994  1.00  0.00     0.016 C
HETATM   31  C1  UNL     1      26.557  50.612 -19.119  1.00  0.00     0.006 C
ENDBRANCH  29  30
ENDBRANCH  27  29
ENDBRANCH   1  27
TORSDOF 6
ENDMDL