MODEL 1
REMARK VINA RESULT: -7.873775028      0.000      0.000
REMARK  7 active torsions:
REMARK  status: ('A' for Active; 'I' for Inactive)
REMARK    1  A    between atoms: C2_2  and  C4_4
REMARK    2  A    between atoms: C4_4  and  N1_5
REMARK    3  A    between atoms: N1_5  and  C5_7
REMARK    4  A    between atoms: C8_15  and  N4_16
REMARK    5  A    between atoms: N4_16  and  C9_17
REMARK    6  A    between atoms: C9_17  and  N5_18
REMARK    7  A    between atoms: C9_17  and  C10_22
ROOT
HETATM    1  C5  UNL     1      22.836  49.511 -17.713  1.00  0.00     0.134 A
HETATM    2  N2  UNL     1      21.843  50.298 -17.327  1.00  0.00    -0.293 N
ATOM      3  H2  UNL     1      21.418  50.931 -18.004  1.00  0.00     0.172 HD
HETATM    4  C6  UNL     1      21.381  50.282 -16.061  1.00  0.00     0.326 A
HETATM    5  O1  UNL     1      20.438  51.036 -15.710  1.00  0.00    -0.247 OA
HETATM    6  N3  UNL     1      21.904  49.468 -15.129  1.00  0.00    -0.302 N
ATOM      7  H3  UNL     1      21.543  49.469 -14.175  1.00  0.00     0.171 HD
HETATM    8  C7  UNL     1      22.927  48.642 -15.485  1.00  0.00     0.125 A
HETATM    9  C8  UNL     1      23.502  47.784 -14.561  1.00  0.00     0.205 A
HETATM   10  N6  UNL     1      24.530  46.980 -14.994  1.00  0.00    -0.326 N
ATOM     11  H6  UNL     1      24.962  46.343 -14.325  1.00  0.00     0.169 HD
HETATM   12  C13 UNL     1      24.988  46.992 -16.239  1.00  0.00     0.183 A
HETATM   13  N7  UNL     1      24.419  47.828 -17.115  1.00  0.00    -0.347 N
ATOM     14  H7  UNL     1      24.762  47.847 -18.076  1.00  0.00     0.167 HD
HETATM   15  C14 UNL     1      23.405  48.648 -16.766  1.00  0.00     0.109 A
ENDROOT
BRANCH   9  16
HETATM   16  N4  UNL     1      23.157  47.702 -13.415  1.00  0.00    -0.394 NA
BRANCH  16  17
HETATM   17  C9  UNL     1      23.145  47.695 -12.070  1.00  0.00     0.363 C
BRANCH  17  18
HETATM   18  N5  UNL     1      24.392  47.199 -11.498  1.00  0.00    -0.046 N
ATOM     19  H53 UNL     1      24.533  46.215 -11.729  1.00  0.00     0.278 HD
ATOM     20  H52 UNL     1      25.199  47.598 -11.977  1.00  0.00     0.278 HD
ATOM     21  H51 UNL     1      24.451  47.351 -10.492  1.00  0.00     0.278 HD
ENDBRANCH  17  18
BRANCH  17  22
HETATM   22  C10 UNL     1      22.875  49.114 -11.547  1.00  0.00     0.041 C
HETATM   23  C11 UNL     1      21.459  49.262 -11.081  1.00  0.00     0.014 C
HETATM   24  C12 UNL     1      23.894  49.426 -10.506  1.00  0.00     0.014 C
ENDBRANCH  17  22
ENDBRANCH  16  17
ENDBRANCH   9  16
BRANCH   1  25
HETATM   25  N1  UNL     1      23.342  49.454 -18.891  1.00  0.00    -0.374 N
ATOM     26  H1  UNL     1      23.199  48.622 -19.465  1.00  0.00     0.161 HD
BRANCH  25  27
HETATM   27  C4  UNL     1      24.107  50.555 -19.406  1.00  0.00     0.125 C
BRANCH  27  28
HETATM   28  C2  UNL     1      25.484  50.003 -19.797  1.00  0.00    -0.005 C
HETATM   29  C1  UNL     1      25.944  50.635 -21.088  1.00  0.00     0.011 C
HETATM   30  C3  UNL     1      26.434  50.322 -18.655  1.00  0.00     0.011 C
ENDBRANCH  27  28
ENDBRANCH  25  27
ENDBRANCH   1  25
TORSDOF 7
ENDMDL