MODEL 5
REMARK VINA RESULT: -7.651421669      1.301      1.742
REMARK  6 active torsions:
REMARK  status: ('A' for Active; 'I' for Inactive)
REMARK    1  A    between atoms: N1_3  and  C2_5
REMARK    2  A    between atoms: C2_5  and  C3_6
REMARK    3  A    between atoms: C3_6  and  N2_7
REMARK    4  A    between atoms: N2_7  and  C4_9
REMARK    5  A    between atoms: C7_18  and  N6_19
REMARK    6  A    between atoms: N6_19  and  C8_21
ROOT
HETATM    1  S1  UNL     1      21.380  55.248 -18.482  1.00  0.00    -0.075 SA
HETATM    2  C1  UNL     1      20.913  53.837 -17.891  1.00  0.00     0.165 C
HETATM    3  N1  UNL     1      20.646  52.744 -17.306  1.00  0.00    -0.389 N
ATOM      4  H1  UNL     1      20.425  52.732 -16.310  1.00  0.00     0.159 HD
ENDROOT
BRANCH   3   5
HETATM    5  C2  UNL     1      20.658  51.511 -18.071  1.00  0.00     0.139 C
BRANCH   5   6
HETATM    6  C3  UNL     1      21.671  51.679 -19.189  1.00  0.00     0.141 C
BRANCH   6   7
HETATM    7  N2  UNL     1      22.339  50.390 -19.329  1.00  0.00    -0.373 N
ATOM      8  H2  UNL     1      21.804  49.536 -19.491  1.00  0.00     0.161 HD
BRANCH   7   9
HETATM    9  C4  UNL     1      23.629  50.360 -19.243  1.00  0.00     0.133 A
HETATM   10  N3  UNL     1      24.423  51.190 -19.913  1.00  0.00    -0.337 N
HETATM   11  C5  UNL     1      25.761  51.178 -19.841  1.00  0.00     0.183 A
ATOM     12  H3  UNL     1      23.984  51.880 -20.523  1.00  0.00     0.168 HD
HETATM   13  N4  UNL     1      26.339  50.268 -19.038  1.00  0.00    -0.336 N
HETATM   14  C6  UNL     1      25.580  49.406 -18.339  1.00  0.00     0.153 A
ATOM     15  H4  UNL     1      27.356  50.231 -18.959  1.00  0.00     0.168 HD
HETATM   16  N5  UNL     1      25.895  48.410 -17.476  1.00  0.00    -0.174 N
HETATM   17  C13 UNL     1      24.197  49.417 -18.414  1.00  0.00     0.137 A
HETATM   18  C7  UNL     1      24.777  47.815 -17.022  1.00  0.00     0.680 A
ATOM     19  H5  UNL     1      26.844  48.150 -17.209  1.00  0.00     0.186 HD
HETATM   20  N8  UNL     1      23.751  48.440 -17.602  1.00  0.00    -0.184 N
ATOM     21  H8  UNL     1      22.769  48.211 -17.452  1.00  0.00     0.184 HD
BRANCH  18  22
HETATM   22  N6  UNL     1      24.766  46.825 -16.178  1.00  0.00    -0.221 N
ATOM     23  H6  UNL     1      25.044  45.895 -16.493  1.00  0.00     0.178 HD
BRANCH  22  24
HETATM   24  C8  UNL     1      24.366  47.018 -14.797  1.00  0.00     0.102 C
HETATM   25  C9  UNL     1      25.005  48.252 -14.223  1.00  0.00     0.053 C
HETATM   26  C10 UNL     1      24.273  48.833 -13.062  1.00  0.00     0.234 C
HETATM   27  N7  UNL     1      22.846  48.868 -13.217  1.00  0.00    -0.075 N
HETATM   28  C11 UNL     1      22.403  47.480 -13.395  1.00  0.00     0.234 C
ATOM     29  H72 UNL     1      22.371  49.346 -12.452  1.00  0.00     0.277 HD
ATOM     30  H71 UNL     1      22.539  49.487 -13.967  1.00  0.00     0.277 HD
HETATM   31  C12 UNL     1      22.856  47.077 -14.779  1.00  0.00     0.053 C
ENDBRANCH  22  24
ENDBRANCH  18  22
ENDBRANCH   7   9
ENDBRANCH   6   7
ENDBRANCH   5   6
ENDBRANCH   3   5
TORSDOF 6
ENDMDL