MODEL 2
REMARK VINA RESULT: -8.364361270      3.057      3.740
REMARK  8 active torsions:
REMARK  status: ('A' for Active; 'I' for Inactive)
REMARK       I    between atoms: C1_2  and  N1_3
REMARK    1  A    between atoms: C1_2  and  C5_22
REMARK    2  A    between atoms: N1_3  and  N2_5
REMARK    3  A    between atoms: N2_5  and  C2_7
REMARK    4  A    between atoms: C2_7  and  N3_9
REMARK    5  A    between atoms: N3_9  and  S2_11
REMARK    6  A    between atoms: S2_11  and  C3_14
REMARK    7  A    between atoms: C3_14  and  C4_17
REMARK    8  A    between atoms: C4_17  and  O4_18
ROOT
HETATM    1  C2  UNL     1      23.655  48.004 -15.429  1.00  0.00     0.200 C
HETATM    2  S1  UNL     1      25.115  47.736 -16.214  1.00  0.00    -0.039 SA
ENDROOT
BRANCH   1   3
HETATM    3  N2  UNL     1      22.491  48.019 -16.246  1.00  0.00    -0.273 N
ATOM      4  H2  UNL     1      21.918  47.181 -16.347  1.00  0.00     0.189 HD
BRANCH   3   5
HETATM    5  N1  UNL     1      22.142  49.211 -16.915  1.00  0.00    -0.262 N
HETATM    6  C1  UNL     1      22.191  49.290 -18.323  1.00  0.00     0.286 C
HETATM    7  O1  UNL     1      22.530  48.342 -19.065  1.00  0.00    -0.264 OA
ATOM      8  H1  UNL     1      21.850  50.025 -16.375  1.00  0.00     0.190 HD
BRANCH   6   9
HETATM    9  C5  UNL     1      21.811  50.568 -18.962  1.00  0.00     0.102 A
HETATM   10  C6  UNL     1      22.270  51.046 -20.182  1.00  0.00     0.036 A
HETATM   11  C7  UNL     1      21.687  52.270 -20.441  1.00  0.00     0.019 A
HETATM   12  C8  UNL     1      20.860  52.524 -19.334  1.00  0.00     0.088 A
HETATM   13  N4  UNL     1      20.961  51.491 -18.485  1.00  0.00    -0.361 N
ATOM     14  H4  UNL     1      20.462  51.417 -17.598  1.00  0.00     0.165 HD
ENDBRANCH   6   9
ENDBRANCH   3   5
ENDBRANCH   1   3
BRANCH   1  15
HETATM   15  N3  UNL     1      23.643  48.205 -14.067  1.00  0.00    -0.254 N
ATOM     16  H3  UNL     1      24.321  47.655 -13.540  1.00  0.00     0.181 HD
BRANCH  15  17
HETATM   17  S2  UNL     1      22.672  49.229 -13.141  1.00  0.00     0.310 S
HETATM   18  O2  UNL     1      23.487  50.265 -12.439  1.00  0.00    -0.199 OA
HETATM   19  O3  UNL     1      21.656  49.986 -13.992  1.00  0.00    -0.199 OA
BRANCH  17  20
HETATM   20  C3  UNL     1      21.734  48.313 -11.915  1.00  0.00     0.453 C
HETATM   21  F1  UNL     1      20.948  47.343 -12.477  1.00  0.00    -0.177 F
HETATM   22  F2  UNL     1      20.922  49.205 -11.222  1.00  0.00    -0.177 F
BRANCH  20  23
HETATM   23  C4  UNL     1      22.763  47.740 -10.942  1.00  0.00     0.435 C
HETATM   24  F3  UNL     1      23.723  46.988 -11.621  1.00  0.00    -0.168 F
HETATM   25  F4  UNL     1      22.085  46.894 -10.066  1.00  0.00    -0.168 F
BRANCH  23  26
HETATM   26  O4  UNL     1      23.457  48.747 -10.258  1.00  0.00    -0.331 OA
ATOM     27  H4  UNL     1      23.885  49.352 -10.852  1.00  0.00     0.216 HD
ENDBRANCH  23  26
ENDBRANCH  20  23
ENDBRANCH  17  20
ENDBRANCH  15  17
ENDBRANCH   1  15
TORSDOF 8
ENDMDL