MODEL 2
REMARK VINA RESULT: -7.711087167      4.217      7.633
REMARK  6 active torsions:
REMARK  status: ('A' for Active; 'I' for Inactive)
REMARK    1  A    between atoms: C1_2  and  C2_4
REMARK    2  A    between atoms: C5_9  and  C6_10
REMARK       I    between atoms: C6_10  and  N3_12
REMARK    3  A    between atoms: N3_12  and  N4_14
REMARK       I    between atoms: N4_14  and  C7_16
REMARK    4  A    between atoms: C7_16  and  C8_18
REMARK    5  A    between atoms: C8_18  and  N5_19
REMARK    6  A    between atoms: C8_18  and  C9_23
ROOT
HETATM    1  C6  UNL     1      22.909  48.226 -16.501  1.00  0.00     0.272 C
HETATM    2  O2  UNL     1      23.163  46.996 -16.482  1.00  0.00    -0.266 OA
HETATM    3  N3  UNL     1      22.401  48.854 -15.337  1.00  0.00    -0.263 N
ATOM      4  H3  UNL     1      22.196  49.854 -15.344  1.00  0.00     0.190 HD
ENDROOT
BRANCH   3   5
HETATM    5  N4  UNL     1      22.181  48.097 -14.170  1.00  0.00    -0.265 N
HETATM    6  C7  UNL     1      23.064  48.197 -13.080  1.00  0.00     0.274 C
HETATM    7  O3  UNL     1      24.068  48.982 -13.166  1.00  0.00    -0.269 OA
ATOM      8  H4  UNL     1      21.376  47.473 -14.115  1.00  0.00     0.190 HD
BRANCH   6   9
HETATM    9  C8  UNL     1      22.952  47.469 -11.799  1.00  0.00     0.364 C
BRANCH   9  10
HETATM   10  N5  UNL     1      24.187  46.893 -11.403  1.00  0.00    -0.059 N
ATOM     11  H53 UNL     1      24.324  45.979 -11.835  1.00  0.00     0.275 HD
ATOM     12  H52 UNL     1      24.976  47.387 -11.820  1.00  0.00     0.275 HD
ATOM     13  H51 UNL     1      24.277  46.839 -10.389  1.00  0.00     0.275 HD
ENDBRANCH   9  10
BRANCH   9  14
HETATM   14  C9  UNL     1      22.457  48.392 -10.688  1.00  0.00     0.356 C
HETATM   15  F1  UNL     1      21.897  47.665  -9.649  1.00  0.00    -0.185 F
HETATM   16  F2  UNL     1      23.599  48.982 -10.128  1.00  0.00    -0.185 F
HETATM   17 CL1  UNL     1      21.312  49.583 -11.255  1.00  0.00    -0.045 Cl
ENDBRANCH   9  14
ENDBRANCH   6   9
ENDBRANCH   3   5
BRANCH   1  18
HETATM   18  C5  UNL     1      23.154  48.953 -17.737  1.00  0.00     0.059 A
HETATM   19  C4  UNL     1      22.077  49.521 -18.397  1.00  0.00     0.036 A
HETATM   20  C3  UNL     1      22.283  50.198 -19.582  1.00  0.00     0.089 A
HETATM   21  N2  UNL     1      23.514  50.318 -20.113  1.00  0.00    -0.360 N
HETATM   22  C2  UNL     1      24.599  49.784 -19.509  1.00  0.00     0.120 A
ATOM     23  H2  UNL     1      23.631  50.823 -20.991  1.00  0.00     0.165 HD
HETATM   24  C10 UNL     1      24.396  49.108 -18.324  1.00  0.00     0.081 A
HETATM   25 CL2  UNL     1      25.768  48.413 -17.517  1.00  0.00    -0.081 Cl
BRANCH  22  26
HETATM   26  C1  UNL     1      25.880  49.935 -20.156  1.00  0.00     0.283 C
HETATM   27  N1  UNL     1      27.089  49.890 -19.425  1.00  0.00    -0.056 NA
HETATM   28  O1  UNL     1      25.940  50.108 -21.388  1.00  0.00    -0.269 OA
ENDBRANCH  22  26
ENDBRANCH   1  18
TORSDOF 6
ENDMDL