MODEL 2
REMARK VINA RESULT: -7.538948345      1.350      1.814
REMARK  7 active torsions:
REMARK  status: ('A' for Active; 'I' for Inactive)
REMARK    1  A    between atoms: C5_7  and  C6_8
REMARK       I    between atoms: C6_8  and  N2_10
REMARK    2  A    between atoms: N2_10  and  N3_12
REMARK    3  A    between atoms: N3_12  and  C7_14
REMARK    4  A    between atoms: C7_14  and  C8_18
REMARK    5  A    between atoms: C8_18  and  N5_19
REMARK    6  A    between atoms: C8_18  and  O2_23
REMARK    7  A    between atoms: C8_18  and  C9_25
ROOT
HETATM    1  C7  UNL     1      24.340  47.642 -11.588  1.00  0.00     0.163 C
HETATM    2  N4  UNL     1      24.016  46.618 -10.899  1.00  0.00    -0.384 N
ATOM      3  H41 UNL     1      23.326  46.779 -10.166  1.00  0.00     0.157 HD
ATOM      4  H42 UNL     1      24.361  45.662 -10.985  1.00  0.00     0.157 HD
ENDROOT
BRANCH   1   5
HETATM    5  N3  UNL     1      25.315  47.413 -12.625  1.00  0.00    -0.282 N
ATOM      6  H3  UNL     1      26.287  47.237 -12.372  1.00  0.00     0.188 HD
BRANCH   5   7
HETATM    7  N2  UNL     1      24.943  47.430 -13.983  1.00  0.00    -0.263 N
HETATM    8  C6  UNL     1      25.456  48.379 -14.862  1.00  0.00     0.286 C
HETATM    9  O1  UNL     1      26.282  49.218 -14.322  1.00  0.00    -0.264 OA
ATOM     10  H2  UNL     1      24.285  46.732 -14.330  1.00  0.00     0.190 HD
BRANCH   8  11
HETATM   11  C5  UNL     1      25.185  48.540 -16.260  1.00  0.00     0.105 A
HETATM   12  N1  UNL     1      24.066  48.230 -16.948  1.00  0.00    -0.355 N
HETATM   13  C1  UNL     1      22.823  47.651 -16.475  1.00  0.00     0.156 C
HETATM   14  C2  UNL     1      24.295  48.570 -18.252  1.00  0.00     0.110 A
HETATM   15  C3  UNL     1      25.548  49.093 -18.401  1.00  0.00     0.028 A
HETATM   16 BR1  UNL     1      26.310  49.712 -20.044  1.00  0.00    -0.050 Br
HETATM   17  C4  UNL     1      26.119  49.080 -17.154  1.00  0.00     0.056 A
ENDBRANCH   8  11
ENDBRANCH   5   7
ENDBRANCH   1   5
BRANCH   1  18
HETATM   18  C8  UNL     1      23.846  49.010 -11.466  1.00  0.00     0.380 C
BRANCH  18  19
HETATM   19  N5  UNL     1      24.977  49.915 -11.708  1.00  0.00    -0.030 N
ATOM     20  H53 UNL     1      25.713  49.488 -12.271  1.00  0.00     0.278 HD
ATOM     21  H52 UNL     1      24.746  50.678 -12.345  1.00  0.00     0.278 HD
ATOM     22  H51 UNL     1      25.310  50.242 -10.801  1.00  0.00     0.278 HD
ENDBRANCH  18  19
BRANCH  18  23
HETATM   23  O2  UNL     1      23.480  49.186 -10.108  1.00  0.00    -0.352 OA
ATOM     24  H2  UNL     1      22.738  49.779 -10.104  1.00  0.00     0.213 HD
ENDBRANCH  18  23
BRANCH  18  25
HETATM   25  C9  UNL     1      22.644  49.342 -12.299  1.00  0.00     0.453 C
HETATM   26  F1  UNL     1      22.929  50.047 -13.427  1.00  0.00    -0.166 F
HETATM   27  F2  UNL     1      21.717  50.007 -11.506  1.00  0.00    -0.166 F
HETATM   28  F3  UNL     1      22.014  48.139 -12.660  1.00  0.00    -0.166 F
ENDBRANCH  18  25
ENDBRANCH   1  18
TORSDOF 7
ENDMDL