MODEL 4
REMARK VINA RESULT: -6.658590830      3.662      6.405
REMARK  7 active torsions:
REMARK  status: ('A' for Active; 'I' for Inactive)
REMARK    1  A    between atoms: C2_2  and  N1_3
REMARK    2  A    between atoms: C2_2  and  C3_7
REMARK    3  A    between atoms: C2_2  and  C10_27
REMARK    4  A    between atoms: C3_7  and  N2_8
REMARK    5  A    between atoms: C3_7  and  C6_15
REMARK       I    between atoms: N2_8  and  C4_10
REMARK    6  A    between atoms: C4_10  and  C5_12
REMARK       I    between atoms: C6_15  and  N3_17
REMARK    7  A    between atoms: N3_17  and  C7_19
ROOT
HETATM    1  C3  UNL     1      23.975  48.537 -16.888  1.00  0.00     0.125 C
ENDROOT
BRANCH   1   2
HETATM    2  C2  UNL     1      25.367  48.103 -16.515  1.00  0.00     0.263 C
HETATM    3  C1  UNL     1      26.331  48.573 -17.631  1.00  0.00     0.063 C
BRANCH   2   4
HETATM    4  N1  UNL     1      25.395  46.678 -16.438  1.00  0.00    -0.056 N
ATOM      5  H13 UNL     1      26.300  46.294 -16.711  1.00  0.00     0.276 HD
ATOM      6  H12 UNL     1      25.380  46.342 -15.475  1.00  0.00     0.276 HD
ATOM      7  H11 UNL     1      24.630  46.295 -16.993  1.00  0.00     0.276 HD
ENDBRANCH   2   4
BRANCH   2   8
HETATM    8  C10 UNL     1      25.821  48.825 -15.280  1.00  0.00     0.425 C
HETATM    9  F1  UNL     1      24.896  49.646 -14.720  1.00  0.00    -0.168 F
HETATM   10  F2  UNL     1      26.202  47.904 -14.292  1.00  0.00    -0.168 F
HETATM   11  F3  UNL     1      26.941  49.616 -15.554  1.00  0.00    -0.168 F
ENDBRANCH   2   8
ENDBRANCH   1   2
BRANCH   1  12
HETATM   12  N2  UNL     1      23.800  49.006 -18.067  1.00  0.00    -0.321 N
HETATM   13  C4  UNL     1      22.625  49.333 -18.737  1.00  0.00     0.255 C
HETATM   14  O1  UNL     1      21.956  48.384 -19.277  1.00  0.00    -0.270 OA
ATOM     15  H2  UNL     1      24.655  49.164 -18.598  1.00  0.00     0.169 HD
BRANCH  13  16
HETATM   16  C5  UNL     1      22.096  50.721 -18.871  1.00  0.00     0.270 C
HETATM   17 CL1  UNL     1      22.694  51.313 -20.458  1.00  0.00    -0.098 Cl
HETATM   18 CL2  UNL     1      20.320  50.712 -18.958  1.00  0.00    -0.098 Cl
ENDBRANCH  13  16
ENDBRANCH   1  12
BRANCH   1  19
HETATM   19  C6  UNL     1      22.925  48.435 -15.890  1.00  0.00     0.272 C
HETATM   20  O2  UNL     1      21.973  49.261 -15.838  1.00  0.00    -0.266 OA
HETATM   21  N3  UNL     1      22.970  47.379 -14.949  1.00  0.00    -0.307 N
ATOM     22  H3  UNL     1      23.385  46.500 -15.257  1.00  0.00     0.170 HD
BRANCH  21  23
HETATM   23  C7  UNL     1      22.539  47.429 -13.752  1.00  0.00     0.126 A
HETATM   24  C8  UNL     1      23.169  47.598 -12.559  1.00  0.00     0.096 A
HETATM   25  C9  UNL     1      22.249  47.578 -11.549  1.00  0.00     0.134 A
HETATM   26  N4  UNL     1      22.509  47.722 -10.165  1.00  0.00    -0.081 NA
HETATM   27  N5  UNL     1      21.059  47.395 -12.154  1.00  0.00    -0.286 N
HETATM   28  N6  UNL     1      21.221  47.305 -13.462  1.00  0.00    -0.284 N
ATOM     29  H5  UNL     1      20.162  47.335 -11.672  1.00  0.00     0.188 HD
ATOM     30  H6  UNL     1      20.475  47.164 -14.143  1.00  0.00     0.188 HD
ENDBRANCH  21  23
ENDBRANCH   1  19
TORSDOF 7
ENDMDL