MODEL 3
REMARK VINA RESULT: -8.295270006      1.586      1.812
REMARK  6 active torsions:
REMARK  status: ('A' for Active; 'I' for Inactive)
REMARK    1  A    between atoms: C3_4  and  C4_5
REMARK    2  A    between atoms: C5_11  and  N3_12
REMARK    3  A    between atoms: C6_17  and  N5_18
REMARK    4  A    between atoms: N5_18  and  N6_20
REMARK    5  A    between atoms: N6_20  and  S1_22
REMARK    6  A    between atoms: S1_22  and  C7_25
ROOT
HETATM    1  N1  UNL     1      26.231  47.655 -13.156  1.00  0.00    -0.191 NA
HETATM    2  C1  UNL     1      25.541  47.788 -14.087  1.00  0.00     0.105 C
HETATM    3  C2  UNL     1      24.698  47.936 -15.238  1.00  0.00     0.122 A
HETATM    4  C3  UNL     1      25.209  48.558 -16.372  1.00  0.00     0.157 A
HETATM    5  N2  UNL     1      24.389  48.679 -17.432  1.00  0.00    -0.185 N
ATOM      6  H2  UNL     1      24.751  49.133 -18.271  1.00  0.00     0.184 HD
HETATM    7  C5  UNL     1      23.123  48.237 -17.449  1.00  0.00     0.678 A
HETATM    8  N4  UNL     1      22.651  47.638 -16.335  1.00  0.00    -0.174 N
ATOM      9  H4  UNL     1      21.690  47.296 -16.332  1.00  0.00     0.186 HD
HETATM   10  C6  UNL     1      23.400  47.470 -15.221  1.00  0.00     0.159 A
ENDROOT
BRANCH   4  11
HETATM   11  C4  UNL     1      26.602  49.069 -16.421  1.00  0.00     0.434 C
HETATM   12  F1  UNL     1      26.712  49.760 -17.634  1.00  0.00    -0.165 F
HETATM   13  F2  UNL     1      27.444  47.982 -16.492  1.00  0.00    -0.165 F
HETATM   14  F3  UNL     1      26.893  49.901 -15.359  1.00  0.00    -0.165 F
ENDBRANCH   4  11
BRANCH  10  15
HETATM   15  N5  UNL     1      22.965  46.902 -14.155  1.00  0.00    -0.274 N
ATOM     16  H5  UNL     1      23.263  45.943 -13.975  1.00  0.00     0.189 HD
BRANCH  15  17
HETATM   17  N6  UNL     1      22.123  47.494 -13.234  1.00  0.00    -0.223 N
ATOM     18  H6  UNL     1      21.196  47.778 -13.550  1.00  0.00     0.200 HD
BRANCH  17  19
HETATM   19  S1  UNL     1      22.534  47.783 -11.582  1.00  0.00     0.275 S
HETATM   20  O1  UNL     1      21.362  47.540 -10.674  1.00  0.00    -0.202 OA
HETATM   21  O2  UNL     1      23.614  46.826 -11.164  1.00  0.00    -0.202 OA
BRANCH  19  22
HETATM   22  C7  UNL     1      23.169  49.440 -11.368  1.00  0.00     0.321 C
HETATM   23 CL1  UNL     1      24.754  49.315 -10.570  1.00  0.00    -0.089 Cl
HETATM   24 CL2  UNL     1      23.378  50.247 -12.936  1.00  0.00    -0.089 Cl
ENDBRANCH  19  22
ENDBRANCH  17  19
ENDBRANCH  15  17
ENDBRANCH  10  15
BRANCH   7  25
HETATM   25  N3  UNL     1      22.339  48.360 -18.477  1.00  0.00    -0.234 N
ATOM     26  H32 UNL     1      22.666  48.883 -19.289  1.00  0.00     0.174 HD
ATOM     27  H31 UNL     1      21.403  47.957 -18.519  1.00  0.00     0.174 HD
ENDBRANCH   7  25
TORSDOF 6
ENDMDL