MODEL 4
REMARK VINA RESULT: -7.905239008      1.188      1.577
REMARK  7 active torsions:
REMARK  status: ('A' for Active; 'I' for Inactive)
REMARK    1  A    between atoms: N1_2  and  C2_4
REMARK    2  A    between atoms: C2_4  and  C3_5
REMARK    3  A    between atoms: C7_15  and  N5_16
REMARK    4  A    between atoms: N5_16  and  N6_18
REMARK    5  A    between atoms: N6_18  and  C8_20
REMARK    6  A    between atoms: C8_20  and  C9_23
REMARK    7  A    between atoms: N7_27  and  O1_28
ROOT
HETATM    1  C3  UNL     1      23.516  48.829 -17.567  1.00  0.00     0.126 A
HETATM    2  C4  UNL     1      24.791  48.782 -18.084  1.00  0.00     0.109 A
HETATM    3  N2  UNL     1      25.330  49.032 -19.312  1.00  0.00    -0.347 N
ATOM      4  H2  UNL     1      24.831  49.329 -20.151  1.00  0.00     0.167 HD
HETATM    5  C5  UNL     1      26.648  48.810 -19.194  1.00  0.00     0.182 A
HETATM    6  N3  UNL     1      26.979  48.436 -17.974  1.00  0.00    -0.336 N
ATOM      7  H3  UNL     1      27.916  48.211 -17.639  1.00  0.00     0.168 HD
HETATM    8  C6  UNL     1      25.830  48.410 -17.250  1.00  0.00     0.151 A
HETATM    9  N4  UNL     1      25.612  48.099 -15.967  1.00  0.00    -0.171 N
ATOM     10  H4  UNL     1      26.392  47.826 -15.369  1.00  0.00     0.186 HD
HETATM   11  C7  UNL     1      24.376  48.145 -15.470  1.00  0.00     0.725 A
HETATM   12  N7  UNL     1      23.372  48.500 -16.255  1.00  0.00    -0.047 N
ENDROOT
BRANCH  11  13
HETATM   13  N5  UNL     1      24.215  47.833 -14.217  1.00  0.00    -0.131 N
ATOM     14  H5  UNL     1      24.536  46.930 -13.867  1.00  0.00     0.205 HD
BRANCH  13  15
HETATM   15  N6  UNL     1      23.607  48.732 -13.366  1.00  0.00    -0.276 N
ATOM     16  H6  UNL     1      23.038  49.464 -13.791  1.00  0.00     0.184 HD
BRANCH  15  17
HETATM   17  C8  UNL     1      23.704  48.728 -11.942  1.00  0.00     0.298 C
HETATM   18 CL1  UNL     1      23.570  47.061 -11.348  1.00  0.00    -0.067 Cl
HETATM   19 CL2  UNL     1      22.321  49.635 -11.287  1.00  0.00    -0.067 Cl
BRANCH  17  20
HETATM   20  C9  UNL     1      24.997  49.292 -11.405  1.00  0.00     0.443 C
HETATM   21  F1  UNL     1      25.439  50.386 -12.088  1.00  0.00    -0.166 F
HETATM   22  F2  UNL     1      24.707  49.734 -10.105  1.00  0.00    -0.166 F
HETATM   23  F3  UNL     1      25.905  48.288 -11.275  1.00  0.00    -0.166 F
ENDBRANCH  17  20
ENDBRANCH  15  17
ENDBRANCH  13  15
ENDBRANCH  11  13
BRANCH  12  24
HETATM   24  O1  UNL     1      22.106  48.544 -15.731  1.00  0.00    -0.269 OA
ATOM     25  H1  UNL     1      21.834  49.354 -15.316  1.00  0.00     0.245 HD
ENDBRANCH  12  24
BRANCH   1  26
HETATM   26  C2  UNL     1      22.390  49.209 -18.380  1.00  0.00     0.118 C
BRANCH  26  27
HETATM   27  N1  UNL     1      21.571  50.136 -18.141  1.00  0.00    -0.401 N
HETATM   28  C1  UNL     1      20.987  51.024 -19.097  1.00  0.00     0.145 C
ATOM     29  H1  UNL     1      21.297  50.267 -17.167  1.00  0.00     0.158 HD
ENDBRANCH  26  27
ENDBRANCH   1  26
TORSDOF 7
ENDMDL