MODEL 5
REMARK VINA RESULT: -7.797302667      1.136      1.929
REMARK  6 active torsions:
REMARK  status: ('A' for Active; 'I' for Inactive)
REMARK       I    between atoms: C2_2  and  N1_4
REMARK    1  A    between atoms: N1_4  and  C3_6
REMARK    2  A    between atoms: C3_6  and  C5_8
REMARK       I    between atoms: C5_8  and  N2_10
REMARK    3  A    between atoms: N2_10  and  N3_12
REMARK    4  A    between atoms: N3_12  and  C6_14
REMARK    5  A    between atoms: C6_14  and  C7_18
REMARK    6  A    between atoms: C8_19  and  C9_20
ROOT
HETATM    1  C6  UNL     1      22.981  48.277 -16.740  1.00  0.00     0.129 C
HETATM    2  N4  UNL     1      22.541  47.074 -16.966  1.00  0.00    -0.384 N
ATOM      3  H41 UNL     1      22.962  46.583 -17.754  1.00  0.00     0.157 HD
ATOM      4  H42 UNL     1      21.844  46.743 -16.298  1.00  0.00     0.157 HD
ENDROOT
BRANCH   1   5
HETATM    5  N3  UNL     1      22.404  48.950 -15.660  1.00  0.00    -0.282 N
ATOM      6  H3  UNL     1      21.477  49.338 -15.835  1.00  0.00     0.188 HD
BRANCH   5   7
HETATM    7  N2  UNL     1      22.902  49.169 -14.389  1.00  0.00    -0.267 N
HETATM    8  C5  UNL     1      23.669  48.341 -13.571  1.00  0.00     0.258 C
HETATM    9  O2  UNL     1      24.040  47.194 -13.897  1.00  0.00    -0.269 OA
ATOM     10  H2  UNL     1      22.671  50.078 -13.987  1.00  0.00     0.190 HD
BRANCH   8  11
HETATM   11  C3  UNL     1      24.105  48.812 -12.195  1.00  0.00     0.174 C
HETATM   12  C4  UNL     1      25.425  49.499 -12.248  1.00  0.00     0.042 C
BRANCH  11  13
HETATM   13  N1  UNL     1      23.084  49.573 -11.549  1.00  0.00    -0.348 N
HETATM   14  C2  UNL     1      21.884  49.000 -11.025  1.00  0.00     0.214 C
HETATM   15  C1  UNL     1      20.860  49.848 -10.362  1.00  0.00     0.117 C
HETATM   16  O1  UNL     1      21.672  47.773 -11.113  1.00  0.00    -0.274 OA
ATOM     17  H1  UNL     1      23.217  50.580 -11.457  1.00  0.00     0.163 HD
ENDBRANCH  11  13
ENDBRANCH   8  11
ENDBRANCH   5   7
ENDBRANCH   1   5
BRANCH   1  18
HETATM   18  C7  UNL     1      23.974  48.750 -17.690  1.00  0.00     0.082 A
HETATM   19  C8  UNL     1      25.336  48.653 -17.701  1.00  0.00     0.149 A
HETATM   20  N5  UNL     1      25.764  49.325 -18.806  1.00  0.00    -0.293 N
HETATM   21  N6  UNL     1      24.777  49.834 -19.494  1.00  0.00    -0.284 N
ATOM     22  H5  UNL     1      26.745  49.419 -19.067  1.00  0.00     0.187 HD
HETATM   23  C10 UNL     1      24.861  50.614 -20.737  1.00  0.00     0.179 C
HETATM   24  C11 UNL     1      23.657  49.503 -18.841  1.00  0.00     0.136 A
HETATM   25 CL1  UNL     1      22.065  49.978 -19.408  1.00  0.00    -0.062 Cl
BRANCH  19  26
HETATM   26  C9  UNL     1      26.250  47.924 -16.755  1.00  0.00     0.435 C
HETATM   27  F1  UNL     1      27.517  47.824 -17.220  1.00  0.00    -0.165 F
HETATM   28  F2  UNL     1      25.639  46.745 -16.424  1.00  0.00    -0.165 F
HETATM   29  F3  UNL     1      26.328  48.665 -15.567  1.00  0.00    -0.165 F
ENDBRANCH  19  26
ENDBRANCH   1  18
TORSDOF 6
ENDMDL