MODEL 3
REMARK VINA RESULT: -6.969776239      0.231      1.121
REMARK  5 active torsions:
REMARK  status: ('A' for Active; 'I' for Inactive)
REMARK    1  A    between atoms: C3_6  and  C4_7
REMARK       I    between atoms: C4_7  and  N3_9
REMARK    2  A    between atoms: N3_9  and  C5_11
REMARK    3  A    between atoms: C5_11  and  N4_12
REMARK    4  A    between atoms: C5_11  and  C7_21
REMARK       I    between atoms: N4_12  and  C6_14
REMARK       I    between atoms: C6_14  and  N5_16
REMARK    5  A    between atoms: N5_16  and  N6_18
ROOT
HETATM    1  C5  UNL     1      24.710  48.264 -17.331  1.00  0.00     0.243 C
ENDROOT
BRANCH   1   2
HETATM    2  N3  UNL     1      23.945  48.641 -16.165  1.00  0.00    -0.334 N
HETATM    3  C4  UNL     1      23.436  47.707 -15.240  1.00  0.00     0.247 C
HETATM    4  O1  UNL     1      23.650  46.486 -15.412  1.00  0.00    -0.271 OA
ATOM      5  H3  UNL     1      23.765  49.632 -16.003  1.00  0.00     0.164 HD
BRANCH   3   6
HETATM    6  C3  UNL     1      22.660  48.147 -14.081  1.00  0.00     0.269 C
HETATM    7  N2  UNL     1      21.879  47.043 -13.505  1.00  0.00    -0.120 NA
HETATM    8  N1  UNL     1      21.727  47.331 -12.159  1.00  0.00    -0.306 N
HETATM    9  C2  UNL     1      22.569  48.201 -11.765  1.00  0.00     0.069 C
ATOM     10  H1  UNL     1      21.026  46.899 -11.557  1.00  0.00     0.182 HD
HETATM   11  C1  UNL     1      22.767  48.803 -10.404  1.00  0.00     0.071 C
HETATM   12  C8  UNL     1      23.455  48.627 -12.913  1.00  0.00     0.309 C
HETATM   13  F1  UNL     1      23.522  50.016 -12.840  1.00  0.00    -0.197 F
HETATM   14  F2  UNL     1      24.702  48.098 -12.790  1.00  0.00    -0.197 F
ENDBRANCH   3   6
ENDBRANCH   1   2
BRANCH   1  15
HETATM   15  N4  UNL     1      24.094  48.874 -18.480  1.00  0.00    -0.316 N
HETATM   16  C6  UNL     1      22.780  49.411 -18.467  1.00  0.00     0.336 C
HETATM   17  O2  UNL     1      22.086  49.372 -17.419  1.00  0.00    -0.246 OA
HETATM   18  N5  UNL     1      22.200  50.007 -19.618  1.00  0.00    -0.258 N
ATOM     19  H5  UNL     1      22.748  50.049 -20.477  1.00  0.00     0.191 HD
ATOM     20  H4  UNL     1      24.628  48.923 -19.347  1.00  0.00     0.166 HD
BRANCH  18  21
HETATM   21  N6  UNL     1      20.908  50.539 -19.616  1.00  0.00    -0.341 N
ATOM     22  H62 UNL     1      20.162  49.973 -19.211  1.00  0.00     0.177 HD
ATOM     23  H61 UNL     1      20.695  51.458 -20.002  1.00  0.00     0.177 HD
ENDBRANCH  18  21
ENDBRANCH   1  15
BRANCH   1  24
HETATM   24  C7  UNL     1      26.134  48.744 -17.193  1.00  0.00     0.226 C
HETATM   25 CL1  UNL     1      26.563  49.822 -18.563  1.00  0.00    -0.080 Cl
HETATM   26 CL2  UNL     1      26.378  49.664 -15.697  1.00  0.00    -0.080 Cl
HETATM   27 CL3  UNL     1      27.285  47.388 -17.277  1.00  0.00    -0.080 Cl
ENDBRANCH   1  24
TORSDOF 5
ENDMDL