MODEL 3
REMARK VINA RESULT: -8.152975413      1.212      1.357
REMARK  6 active torsions:
REMARK  status: ('A' for Active; 'I' for Inactive)
REMARK    1  A    between atoms: N1_1  and  C1_5
REMARK    2  A    between atoms: C1_5  and  C2_7
REMARK    3  A    between atoms: C1_5  and  C7_27
REMARK    4  A    between atoms: C3_10  and  N3_11
REMARK    5  A    between atoms: N3_11  and  S1_13
REMARK    6  A    between atoms: S1_13  and  C4_16
ROOT
HETATM    1  C2  UNL     1      23.793  47.758 -13.429  1.00  0.00     0.173 A
HETATM    2  N2  UNL     1      24.004  47.815 -14.746  1.00  0.00    -0.173 N
ATOM      3  H2  UNL     1      24.866  48.126 -15.193  1.00  0.00     0.185 HD
HETATM    4  C3  UNL     1      22.888  47.394 -15.395  1.00  0.00     0.708 A
HETATM    5  N6  UNL     1      21.995  47.079 -14.470  1.00  0.00    -0.130 N
ATOM      6  H6  UNL     1      21.052  46.729 -14.642  1.00  0.00     0.205 HD
HETATM    7  N7  UNL     1      22.545  47.299 -13.265  1.00  0.00    -0.271 N
ATOM      8  H7  UNL     1      22.085  47.142 -12.368  1.00  0.00     0.189 HD
ENDROOT
BRANCH   4   9
HETATM    9  N3  UNL     1      22.823  47.347 -16.622  1.00  0.00    -0.110 N
ATOM     10  H3  UNL     1      22.737  46.384 -16.949  1.00  0.00     0.197 HD
BRANCH   9  11
HETATM   11  S1  UNL     1      22.835  48.418 -17.900  1.00  0.00     0.293 S
HETATM   12  O1  UNL     1      22.133  47.870 -19.137  1.00  0.00    -0.198 OA
HETATM   13  O2  UNL     1      22.159  49.712 -17.563  1.00  0.00    -0.198 OA
BRANCH  11  14
HETATM   14  C4  UNL     1      24.540  48.692 -18.321  1.00  0.00     0.166 A
HETATM   15  C5  UNL     1      25.643  48.322 -17.590  1.00  0.00     0.132 A
HETATM   16  N4  UNL     1      26.768  48.734 -18.210  1.00  0.00    -0.359 N
HETATM   17  C6  UNL     1      26.383  49.357 -19.322  1.00  0.00     0.181 A
ATOM     18  H4  UNL     1      27.727  48.596 -17.890  1.00  0.00     0.166 HD
HETATM   19  N5  UNL     1      25.026  49.336 -19.397  1.00  0.00    -0.341 N
ATOM     20  H5  UNL     1      24.468  49.743 -20.148  1.00  0.00     0.167 HD
ENDBRANCH  11  14
ENDBRANCH   9  11
ENDBRANCH   4   9
BRANCH   1  21
HETATM   21  C1  UNL     1      24.793  48.136 -12.386  1.00  0.00     0.354 C
HETATM   22 CL1  UNL     1      26.448  48.072 -13.066  1.00  0.00    -0.071 Cl
BRANCH  21  23
HETATM   23  N1  UNL     1      24.687  47.123 -11.355  1.00  0.00    -0.040 N
ATOM     24  H13 UNL     1      24.515  46.192 -11.734  1.00  0.00     0.277 HD
ATOM     25  H12 UNL     1      25.581  46.925 -10.904  1.00  0.00     0.277 HD
ATOM     26  H11 UNL     1      23.969  47.416 -10.692  1.00  0.00     0.277 HD
ENDBRANCH  21  23
BRANCH  21  27
HETATM   27  C7  UNL     1      24.474  49.515 -11.853  1.00  0.00     0.442 C
HETATM   28  F1  UNL     1      24.091  49.426 -10.531  1.00  0.00    -0.167 F
HETATM   29  F2  UNL     1      25.644  50.292 -11.905  1.00  0.00    -0.167 F
HETATM   30  F3  UNL     1      23.489  50.123 -12.613  1.00  0.00    -0.167 F
ENDBRANCH  21  27
ENDBRANCH   1  21
TORSDOF 6
ENDMDL