MODEL 5
REMARK VINA RESULT: -6.614645156      2.972      4.708
REMARK  9 active torsions:
REMARK  status: ('A' for Active; 'I' for Inactive)
REMARK    1  A    between atoms: C1_2  and  C2_3
REMARK       I    between atoms: C1_2  and  N1_12
REMARK    2  A    between atoms: C2_3  and  C3_4
REMARK    3  A    between atoms: C3_4  and  C4_5
REMARK    4  A    between atoms: C4_5  and  C5_6
REMARK    5  A    between atoms: C5_6  and  C6_7
REMARK    6  A    between atoms: C6_7  and  C7_8
REMARK    7  A    between atoms: N1_12  and  C8_14
REMARK    8  A    between atoms: C8_14  and  C9_15
REMARK    9  A    between atoms: C9_15  and  N2_16
REMARK       I    between atoms: N2_16  and  C10_18
REMARK       I    between atoms: C10_18  and  N3_20
ROOT
HETATM    1  O1  UNL     1       4.127  17.472 -40.335  1.00  0.00    -0.274 OA
HETATM    2  C1  UNL     1       4.217  16.286 -40.721  1.00  0.00     0.217 C
HETATM    3  N1  UNL     1       3.107  15.634 -41.268  1.00  0.00    -0.360 N
ATOM      4  H1  UNL     1       3.213  14.664 -41.568  1.00  0.00     0.162 HD
ENDROOT
BRANCH   3   5
HETATM    5  C8  UNL     1       1.833  16.258 -41.427  1.00  0.00     0.142 C
BRANCH   5   6
HETATM    6  C9  UNL     1       1.158  15.790 -42.679  1.00  0.00     0.144 C
BRANCH   6   7
HETATM    7  N2  UNL     1       0.250  14.723 -42.370  1.00  0.00    -0.341 N
HETATM    8  C10 UNL     1       0.542  13.347 -42.380  1.00  0.00     0.318 C
HETATM    9  O2  UNL     1       1.736  13.006 -42.691  1.00  0.00    -0.247 OA
HETATM   10  N3  UNL     1      -0.417  12.347 -42.069  1.00  0.00    -0.334 N
HETATM   11  C11 UNL     1      -1.788  12.581 -41.705  1.00  0.00     0.127 C
HETATM   12  C14 UNL     1      -0.205  10.925 -42.056  1.00  0.00     0.127 C
HETATM   13  C12 UNL     1      -1.953  11.555 -40.574  1.00  0.00     0.022 C
HETATM   14  C13 UNL     1      -1.335  10.343 -41.201  1.00  0.00     0.022 C
ATOM     15  H2  UNL     1      -0.702  14.990 -42.118  1.00  0.00     0.164 HD
ENDBRANCH   6   7
ENDBRANCH   5   6
ENDBRANCH   3   5
BRANCH   2  16
HETATM   16  C2  UNL     1       5.505  15.523 -40.616  1.00  0.00     0.103 C
BRANCH  16  17
HETATM   17  C3  UNL     1       5.216  14.267 -39.845  1.00  0.00     0.009 C
BRANCH  17  18
HETATM   18  C4  UNL     1       4.929  14.631 -38.406  1.00  0.00     0.001 C
BRANCH  18  19
HETATM   19  C5  UNL     1       5.924  14.045 -37.443  1.00  0.00     0.004 C
BRANCH  19  20
HETATM   20  C6  UNL     1       6.374  12.696 -37.961  1.00  0.00     0.059 C
BRANCH  20  21
HETATM   21  C7  UNL     1       7.867  12.570 -37.710  1.00  0.00     0.188 C
HETATM   22 CL1  UNL     1       8.774  12.985 -39.184  1.00  0.00    -0.084 Cl
HETATM   23 CL2  UNL     1       8.318  13.656 -36.361  1.00  0.00    -0.084 Cl
HETATM   24 CL3  UNL     1       8.229  10.908 -37.203  1.00  0.00    -0.084 Cl
ENDBRANCH  20  21
ENDBRANCH  19  20
ENDBRANCH  18  19
ENDBRANCH  17  18
ENDBRANCH  16  17
ENDBRANCH   2  16
TORSDOF 9
ENDMDL