MODEL 3
REMARK VINA RESULT: -6.742415707      2.618      3.354
REMARK  9 active torsions:
REMARK  status: ('A' for Active; 'I' for Inactive)
REMARK    1  A    between atoms: C4_5  and  C5_6
REMARK    2  A    between atoms: C5_6  and  C6_7
REMARK    3  A    between atoms: C6_7  and  C7_8
REMARK    4  A    between atoms: C7_8  and  C8_9
REMARK    5  A    between atoms: C8_9  and  C9_10
REMARK    6  A    between atoms: C10_11  and  C11_12
REMARK    7  A    between atoms: C15_19  and  C16_20
REMARK    8  A    between atoms: C15_19  and  C17_23
REMARK    9  A    between atoms: C16_20  and  O1_21
ROOT
HETATM    1  C11 UNL     1      -0.698  13.223 -40.591  1.00  0.00     0.220 C
HETATM    2  N1  UNL     1      -0.529  12.097 -41.483  1.00  0.00    -0.062 N
ATOM      3  H11 UNL     1       0.439  11.800 -41.608  1.00  0.00     0.278 HD
ATOM      4  H12 UNL     1      -0.705  12.308 -42.466  1.00  0.00     0.278 HD
HETATM    5  C12 UNL     1      -1.394  11.089 -40.926  1.00  0.00     0.192 A
HETATM    6  C13 UNL     1      -2.794  10.942 -41.443  1.00  0.00     0.041 A
HETATM    7  C14 UNL     1      -2.575  11.862 -40.307  1.00  0.00     0.032 A
HETATM    8  C15 UNL     1      -2.219  13.300 -40.498  1.00  0.00     0.027 C
ENDROOT
BRANCH   1   9
HETATM    9  C10 UNL     1      -0.097  14.459 -41.081  1.00  0.00     0.003 C
HETATM   10  C9  UNL     1       1.210  14.671 -40.956  1.00  0.00    -0.029 C
BRANCH  10  11
HETATM   11  C8  UNL     1       1.869  15.924 -41.444  1.00  0.00     0.027 C
BRANCH  11  12
HETATM   12  C7  UNL     1       3.303  15.994 -41.041  1.00  0.00     0.004 C
BRANCH  12  13
HETATM   13  C6  UNL     1       3.720  14.710 -40.387  1.00  0.00     0.001 C
BRANCH  13  14
HETATM   14  C5  UNL     1       4.629  14.869 -39.214  1.00  0.00     0.006 C
BRANCH  14  15
HETATM   15  C4  UNL     1       6.062  15.140 -39.618  1.00  0.00     0.010 A
HETATM   16  C2  UNL     1       7.057  14.140 -38.989  1.00  0.00     0.037 A
HETATM   17  C1  UNL     1       8.335  14.737 -38.426  1.00  0.00     0.033 C
HETATM   18 CL1  UNL     1       6.406  12.807 -38.039  1.00  0.00    -0.119 Cl
HETATM   19  C3  UNL     1       6.810  14.124 -40.446  1.00  0.00     0.032 A
ENDBRANCH  14  15
ENDBRANCH  13  14
ENDBRANCH  12  13
ENDBRANCH  11  12
ENDBRANCH  10  11
ENDBRANCH   1   9
BRANCH   8  20
HETATM   20  C16 UNL     1      -2.809  13.863 -41.756  1.00  0.00     0.177 C
BRANCH  20  21
HETATM   21  O1  UNL     1      -3.666  14.907 -41.439  1.00  0.00    -0.400 OA
ATOM     22  H1  UNL     1      -4.315  15.005 -42.126  1.00  0.00     0.209 HD
ENDBRANCH  20  21
ENDBRANCH   8  20
BRANCH   8  23
HETATM   23  C17 UNL     1      -2.544  14.174 -39.332  1.00  0.00     0.099 C
HETATM   24 BR1  UNL     1      -2.102  13.340 -37.669  1.00  0.00    -0.096 Br
ENDBRANCH   8  23
TORSDOF 9
ENDMDL