MODEL 5
REMARK VINA RESULT: -7.396345267      1.284      1.861
REMARK  10 active torsions:
REMARK  status: ('A' for Active; 'I' for Inactive)
REMARK       I    between atoms: C1_2  and  N1_3
REMARK       I    between atoms: C1_2  and  N2_19
REMARK    1  A    between atoms: N1_3  and  C2_5
REMARK    2  A    between atoms: C2_5  and  C3_6
REMARK    3  A    between atoms: C3_6  and  C4_7
REMARK    4  A    between atoms: C5_8  and  C6_9
REMARK    5  A    between atoms: C6_9  and  C7_10
REMARK    6  A    between atoms: C7_10  and  C8_11
REMARK    7  A    between atoms: N2_19  and  C14_21
REMARK    8  A    between atoms: C14_21  and  C15_22
REMARK    9  A    between atoms: C15_22  and  C16_23
REMARK   10  A    between atoms: C16_23  and  N3_24
ROOT
HETATM    1  O1  UNL     1       1.265  13.027 -43.371  1.00  0.00    -0.247 OA
HETATM    2  C1  UNL     1       0.061  13.346 -43.198  1.00  0.00     0.316 C
HETATM    3  N1  UNL     1      -0.351  14.185 -42.146  1.00  0.00    -0.342 N
ATOM      4  H1  UNL     1      -1.346  14.395 -42.077  1.00  0.00     0.164 HD
HETATM    5  N2  UNL     1      -0.866  12.807 -44.133  1.00  0.00    -0.343 N
ATOM      6  H2  UNL     1      -1.850  13.048 -44.015  1.00  0.00     0.164 HD
ENDROOT
BRANCH   3   7
HETATM    7  C2  UNL     1       0.509  14.767 -41.168  1.00  0.00     0.136 C
BRANCH   7   8
HETATM    8  C3  UNL     1       1.246  16.008 -41.674  1.00  0.00     0.113 C
BRANCH   8   9
HETATM    9  C4  UNL     1       2.641  16.023 -41.238  1.00  0.00    -0.105 C
HETATM   10  C5  UNL     1       3.792  16.059 -40.875  1.00  0.00    -0.107 C
BRANCH  10  11
HETATM   11  C6  UNL     1       5.206  16.131 -40.429  1.00  0.00     0.094 C
BRANCH  11  12
HETATM   12  C7  UNL     1       5.935  14.973 -41.116  1.00  0.00     0.017 C
BRANCH  12  13
HETATM   13  C8  UNL     1       6.678  14.111 -40.140  1.00  0.00    -0.008 C
HETATM   14  C9  UNL     1       5.782  13.996 -38.899  1.00  0.00     0.005 C
HETATM   15  C10 UNL     1       6.352  12.905 -38.053  1.00  0.00     0.006 C
HETATM   16  C11 UNL     1       7.725  13.306 -37.599  1.00  0.00     0.079 C
HETATM   17  C12 UNL     1       8.627  13.689 -38.751  1.00  0.00     0.244 C
HETATM   18  F1  UNL     1       9.794  14.191 -38.210  1.00  0.00    -0.206 F
HETATM   19  F2  UNL     1       8.936  12.589 -39.508  1.00  0.00    -0.206 F
HETATM   20  C13 UNL     1       7.969  14.706 -39.674  1.00  0.00     0.083 C
ENDBRANCH  12  13
ENDBRANCH  11  12
ENDBRANCH  10  11
ENDBRANCH   8   9
ENDBRANCH   7   8
ENDBRANCH   3   7
BRANCH   5  21
HETATM   21  C14 UNL     1      -0.520  11.956 -45.221  1.00  0.00     0.126 C
BRANCH  21  22
HETATM   22  C15 UNL     1      -1.165  12.366 -46.527  1.00  0.00     0.050 C
BRANCH  22  23
HETATM   23  C16 UNL     1      -0.785  13.802 -46.778  1.00  0.00     0.274 C
BRANCH  23  24
HETATM   24  N3  UNL     1      -0.797  14.125 -48.178  1.00  0.00     0.088 N
HETATM   25  C17 UNL     1      -0.278  15.477 -48.376  1.00  0.00     0.272 C
HETATM   26  C18 UNL     1      -1.442  16.386 -48.131  1.00  0.00     0.032 C
HETATM   27  C19 UNL     1      -2.604  15.618 -48.660  1.00  0.00     0.032 C
HETATM   28  C20 UNL     1      -2.175  14.190 -48.627  1.00  0.00     0.272 C
ENDBRANCH  23  24
ENDBRANCH  22  23
ENDBRANCH  21  22
ENDBRANCH   5  21
TORSDOF 10
ENDMDL