MODEL 5
REMARK VINA RESULT: -6.665378668      3.382      7.365
REMARK  8 active torsions:
REMARK  status: ('A' for Active; 'I' for Inactive)
REMARK    1  A    between atoms: C2_2  and  C3_3
REMARK    2  A    between atoms: C3_3  and  C4_4
REMARK    3  A    between atoms: C4_4  and  C5_5
REMARK       I    between atoms: C5_5  and  N1_7
REMARK    4  A    between atoms: N1_7  and  C6_9
REMARK    5  A    between atoms: N3_23  and  C16_24
REMARK    6  A    between atoms: C16_24  and  C17_25
REMARK    7  A    between atoms: C17_25  and  C18_26
REMARK    8  A    between atoms: C18_26  and  C19_27
ROOT
HETATM    1  C3  UNL     1      -2.066  13.318 -40.117  1.00  0.00     0.213 C
HETATM    2  N2  UNL     1      -3.320  12.746 -40.633  1.00  0.00    -0.047 N
ATOM      3  H21 UNL     1      -3.576  13.180 -41.519  1.00  0.00     0.280 HD
ATOM      4  H22 UNL     1      -4.112  13.042 -40.063  1.00  0.00     0.280 HD
HETATM    5  C12 UNL     1      -3.294  11.338 -40.756  1.00  0.00     0.249 C
HETATM    6  C13 UNL     1      -2.168  10.751 -41.520  1.00  0.00     0.100 C
HETATM    7  C14 UNL     1      -2.527  10.405 -42.953  1.00  0.00     0.021 C
HETATM    8  C15 UNL     1      -1.012  11.713 -41.613  1.00  0.00     0.231 C
HETATM    9  O2  UNL     1       0.095  11.373 -42.067  1.00  0.00    -0.273 OA
HETATM   10  N3  UNL     1      -1.117  13.080 -41.185  1.00  0.00    -0.297 N
ENDROOT
BRANCH   1  11
HETATM   11  C2  UNL     1      -1.722  12.575 -38.863  1.00  0.00     0.058 C
HETATM   12  C1  UNL     1      -2.099  13.260 -37.589  1.00  0.00     0.009 C
ENDBRANCH   1  11
BRANCH   1  13
HETATM   13  C4  UNL     1      -2.250  14.753 -39.848  1.00  0.00     0.164 C
BRANCH  13  14
HETATM   14  C5  UNL     1      -3.577  15.312 -40.083  1.00  0.00     0.222 C
HETATM   15  O1  UNL     1      -4.223  15.848 -39.161  1.00  0.00    -0.273 OA
HETATM   16  N1  UNL     1      -4.210  15.279 -41.379  1.00  0.00    -0.356 N
ATOM     17  H1  UNL     1      -3.724  14.852 -42.167  1.00  0.00     0.162 HD
BRANCH  16  18
HETATM   18  C6  UNL     1      -5.516  15.840 -41.570  1.00  0.00     0.084 C
HETATM   19  C7  UNL     1      -6.606  14.921 -41.106  1.00  0.00     0.025 C
HETATM   20  C8  UNL     1      -6.903  13.812 -42.088  1.00  0.00     0.002 C
HETATM   21  C9  UNL     1      -7.168  14.325 -43.481  1.00  0.00     0.000 C
HETATM   22  C10 UNL     1      -5.931  15.080 -43.924  1.00  0.00     0.002 C
HETATM   23  C11 UNL     1      -5.768  16.261 -43.000  1.00  0.00     0.025 C
ENDBRANCH  16  18
ENDBRANCH  13  14
ENDBRANCH   1  13
BRANCH  10  24
HETATM   24  C16 UNL     1      -0.348  14.068 -41.791  1.00  0.00     0.069 C
BRANCH  24  25
HETATM   25  C17 UNL     1       0.985  14.423 -41.205  1.00  0.00     0.047 C
BRANCH  25  26
HETATM   26  C18 UNL     1       1.298  15.878 -41.503  1.00  0.00     0.036 C
BRANCH  26  27
HETATM   27  C19 UNL     1       2.716  16.251 -41.187  1.00  0.00     0.222 C
HETATM   28  F1  UNL     1       2.860  17.625 -41.002  1.00  0.00    -0.255 F
ENDBRANCH  26  27
ENDBRANCH  25  26
ENDBRANCH  24  25
ENDBRANCH  10  24
TORSDOF 8
ENDMDL