MODEL 4
REMARK VINA RESULT: -7.648703154      2.139      3.443
REMARK  8 active torsions:
REMARK  status: ('A' for Active; 'I' for Inactive)
REMARK    1  A    between atoms: C1_2  and  C2_4
REMARK    2  A    between atoms: C2_4  and  C3_5
REMARK    3  A    between atoms: C3_5  and  C4_6
REMARK    4  A    between atoms: C4_6  and  C5_7
REMARK    5  A    between atoms: C5_7  and  N1_8
REMARK       I    between atoms: N1_8  and  C6_10
REMARK    6  A    between atoms: C6_10  and  C7_12
REMARK    7  A    between atoms: C7_12  and  C8_13
REMARK    8  A    between atoms: C8_13  and  C9_14
ROOT
HETATM    1  C5  UNL     1       0.799  14.687 -41.468  1.00  0.00     0.157 C
ENDROOT
BRANCH   1   2
HETATM    2  C4  UNL     1      -0.386  13.772 -41.294  1.00  0.00    -0.045 C
HETATM    3  C16 UNL     1      -0.355  12.620 -41.907  1.00  0.00     0.077 A
HETATM    4  C17 UNL     1      -0.903  11.279 -42.302  1.00  0.00     0.238 A
HETATM    5  C18 UNL     1       0.420  11.661 -42.811  1.00  0.00     0.339 A
HETATM    6  O4  UNL     1      -1.781  10.386 -42.293  1.00  0.00    -0.285 OA
HETATM    7  F1  UNL     1       1.542  11.144 -42.175  1.00  0.00    -0.191 F
HETATM    8  F2  UNL     1       0.560  12.165 -44.085  1.00  0.00    -0.191 F
BRANCH   2   9
HETATM    9  C3  UNL     1      -1.462  14.275 -40.449  1.00  0.00     0.047 C
BRANCH   9  10
HETATM   10  C2  UNL     1      -2.313  13.261 -39.767  1.00  0.00     0.117 C
BRANCH  10  11
HETATM   11  C1  UNL     1      -2.002  13.202 -38.330  1.00  0.00     0.172 C
HETATM   12  O1  UNL     1      -1.148  12.380 -37.918  1.00  0.00    -0.648 OA
HETATM   13  O2  UNL     1      -2.612  14.022 -37.385  1.00  0.00    -0.648 OA
ENDBRANCH  10  11
ENDBRANCH   9  10
ENDBRANCH   2   9
ENDBRANCH   1   2
BRANCH   1  14
HETATM   14  N1  UNL     1       1.829  14.396 -40.527  1.00  0.00    -0.357 N
HETATM   15  C6  UNL     1       3.171  14.787 -40.807  1.00  0.00     0.217 C
HETATM   16  O3  UNL     1       3.408  15.379 -41.876  1.00  0.00    -0.274 OA
ATOM     17  H1  UNL     1       1.607  13.910 -39.659  1.00  0.00     0.162 HD
BRANCH  15  18
HETATM   18  C7  UNL     1       4.229  14.481 -39.825  1.00  0.00     0.103 C
BRANCH  18  19
HETATM   19  C8  UNL     1       5.596  14.462 -40.423  1.00  0.00     0.014 C
BRANCH  19  20
HETATM   20  C9  UNL     1       6.532  13.613 -39.650  1.00  0.00    -0.010 C
HETATM   21  C10 UNL     1       6.038  13.449 -38.187  1.00  0.00     0.009 C
HETATM   22  C11 UNL     1       7.328  13.563 -37.436  1.00  0.00    -0.014 C
HETATM   23  C12 UNL     1       8.268  12.489 -37.898  1.00  0.00     0.005 C
HETATM   24  C15 UNL     1       7.919  14.783 -38.165  1.00  0.00     0.009 C
HETATM   25  C13 UNL     1       8.829  12.929 -39.237  1.00  0.00     0.005 C
HETATM   26  C14 UNL     1       7.937  14.117 -39.552  1.00  0.00    -0.010 C
ENDBRANCH  19  20
ENDBRANCH  18  19
ENDBRANCH  15  18
ENDBRANCH   1  14
TORSDOF 8
ENDMDL