MODEL 3
REMARK VINA RESULT: -6.731445593      2.929      4.606
REMARK  10 active torsions:
REMARK  status: ('A' for Active; 'I' for Inactive)
REMARK    1  A    between atoms: C2_2  and  C3_3
REMARK    2  A    between atoms: C3_3  and  C4_4
REMARK    3  A    between atoms: C4_4  and  C5_5
REMARK    4  A    between atoms: C5_5  and  C6_6
REMARK    5  A    between atoms: C6_6  and  C7_7
REMARK    6  A    between atoms: C7_7  and  C8_8
REMARK    7  A    between atoms: C8_8  and  C9_9
REMARK       I    between atoms: C9_9  and  N1_11
REMARK    8  A    between atoms: N1_11  and  C10_13
REMARK    9  A    between atoms: C11_14  and  C12_15
REMARK   10  A    between atoms: C12_15  and  O2_16
ROOT
HETATM    1  C8  UNL     1      -1.160  13.093 -41.601  1.00  0.00     0.268 C
HETATM    2  C14 UNL     1      -0.880  13.331 -40.165  1.00  0.00     0.077 C
HETATM    3  C15 UNL     1      -1.693  12.257 -39.499  1.00  0.00     0.047 C
HETATM    4  C16 UNL     1      -2.952  12.380 -40.369  1.00  0.00     0.314 C
HETATM    5  N2  UNL     1      -2.502  13.401 -41.305  1.00  0.00     0.033 N
HETATM    6  O3  UNL     1      -3.344  13.864 -42.171  1.00  0.00    -0.063 OA
HETATM    7  C17 UNL     1      -1.938  14.405 -40.346  1.00  0.00     0.322 C
ENDROOT
BRANCH   1   8
HETATM    8  C7  UNL     1      -0.367  14.070 -42.448  1.00  0.00     0.059 C
BRANCH   8   9
HETATM    9  C6  UNL     1       1.001  14.350 -41.941  1.00  0.00     0.003 C
BRANCH   9  10
HETATM   10  C5  UNL     1       1.270  15.832 -41.991  1.00  0.00     0.000 C
BRANCH  10  11
HETATM   11  C4  UNL     1       2.363  16.305 -41.094  1.00  0.00     0.000 C
BRANCH  11  12
HETATM   12  C3  UNL     1       3.494  15.267 -41.113  1.00  0.00    -0.000 C
BRANCH  12  13
HETATM   13  C2  UNL     1       4.803  15.929 -40.714  1.00  0.00    -0.005 C
HETATM   14  C1  UNL     1       4.582  17.353 -40.281  1.00  0.00     0.005 C
ENDBRANCH  12  13
ENDBRANCH  11  12
ENDBRANCH  10  11
ENDBRANCH   9  10
ENDBRANCH   8   9
ENDBRANCH   1   8
BRANCH   1  15
HETATM   15  C9  UNL     1      -0.956  11.752 -42.172  1.00  0.00     0.264 C
HETATM   16  O1  UNL     1      -0.016  11.046 -41.758  1.00  0.00    -0.270 OA
HETATM   17  N1  UNL     1      -1.790  11.208 -43.190  1.00  0.00    -0.350 N
ATOM     18  H1  UNL     1      -2.570  11.753 -43.556  1.00  0.00     0.163 HD
BRANCH  17  19
HETATM   19  C10 UNL     1      -1.530   9.898 -43.696  1.00  0.00     0.133 A
HETATM   20  C11 UNL     1      -0.668   9.677 -44.881  1.00  0.00     0.076 A
HETATM   21  C13 UNL     1      -2.171   9.582 -45.008  1.00  0.00     0.141 A
HETATM   22 CL1  UNL     1      -2.863   7.950 -45.135  1.00  0.00    -0.099 Cl
HETATM   23 CL2  UNL     1      -3.012  10.901 -45.850  1.00  0.00    -0.099 Cl
BRANCH  20  24
HETATM   24  C12 UNL     1      -0.055  10.845 -45.619  1.00  0.00     0.174 C
BRANCH  24  25
HETATM   25  O2  UNL     1       0.894  11.435 -44.806  1.00  0.00    -0.400 OA
ATOM     26  H2  UNL     1       0.917  12.367 -44.989  1.00  0.00     0.209 HD
ENDBRANCH  24  25
ENDBRANCH  20  24
ENDBRANCH  17  19
ENDBRANCH   1  15
TORSDOF 10
ENDMDL