MODEL 2
REMARK VINA RESULT: -6.784771576      2.427      6.947
REMARK  9 active torsions:
REMARK  status: ('A' for Active; 'I' for Inactive)
REMARK    1  A    between atoms: C2_2  and  C3_3
REMARK    2  A    between atoms: C5_6  and  C6_7
REMARK    3  A    between atoms: C6_7  and  C7_8
REMARK    4  A    between atoms: N1_12  and  C11_13
REMARK    5  A    between atoms: C11_13  and  C12_14
REMARK    6  A    between atoms: C12_14  and  C13_15
REMARK    7  A    between atoms: C13_15  and  N2_16
REMARK       I    between atoms: N2_16  and  C14_18
REMARK       I    between atoms: C14_18  and  N3_20
REMARK    8  A    between atoms: N3_20  and  C15_22
REMARK    9  A    between atoms: C15_22  and  C16_23
ROOT
HETATM    1  C7  UNL     1      -2.108  10.651 -41.122  1.00  0.00     0.004 C
HETATM    2  C8  UNL     1      -2.801   9.620 -41.884  1.00  0.00     0.008 C
HETATM    3  C9  UNL     1      -2.693   9.790 -43.351  1.00  0.00     0.020 C
HETATM    4  C10 UNL     1      -1.926  10.962 -43.858  1.00  0.00     0.117 C
HETATM    5  N1  UNL     1      -0.799  11.339 -43.081  1.00  0.00    -0.412 N
HETATM    6  C17 UNL     1      -0.729  10.851 -41.771  1.00  0.00     0.121 C
ENDROOT
BRANCH   5   7
HETATM    7  C11 UNL     1      -0.214  12.598 -43.374  1.00  0.00     0.118 C
BRANCH   7   8
HETATM    8  C12 UNL     1       1.219  12.653 -42.859  1.00  0.00     0.039 C
BRANCH   8   9
HETATM    9  C13 UNL     1       1.500  13.991 -42.269  1.00  0.00     0.126 C
BRANCH   9  10
HETATM   10  N2  UNL     1       2.141  13.994 -41.004  1.00  0.00    -0.343 N
HETATM   11  C14 UNL     1       3.399  14.611 -40.800  1.00  0.00     0.316 C
HETATM   12  O1  UNL     1       3.954  15.174 -41.767  1.00  0.00    -0.247 OA
HETATM   13  N3  UNL     1       4.050  14.611 -39.540  1.00  0.00    -0.342 N
ATOM     14  H3  UNL     1       3.567  14.148 -38.770  1.00  0.00     0.164 HD
ATOM     15  H2  UNL     1       1.682  13.537 -40.216  1.00  0.00     0.164 HD
BRANCH  13  16
HETATM   16  C15 UNL     1       5.312  15.195 -39.249  1.00  0.00     0.139 C
BRANCH  16  17
HETATM   17  C16 UNL     1       6.295  14.169 -38.776  1.00  0.00     0.134 C
HETATM   18 CL2  UNL     1       7.462  13.829 -40.097  1.00  0.00    -0.129 Cl
ENDBRANCH  16  17
ENDBRANCH  13  16
ENDBRANCH   9  10
ENDBRANCH   8   9
ENDBRANCH   7   8
ENDBRANCH   5   7
BRANCH   1  19
HETATM   19  C6  UNL     1      -2.708  11.931 -40.711  1.00  0.00     0.011 C
BRANCH  19  20
HETATM   20  C5  UNL     1      -2.227  12.683 -39.578  1.00  0.00    -0.004 A
HETATM   21  C2  UNL     1      -2.514  13.999 -39.061  1.00  0.00    -0.027 A
HETATM   22  C1  UNL     1      -2.627  14.056 -37.524  1.00  0.00     0.016 C
HETATM   23  C4  UNL     1      -1.094  13.636 -39.555  1.00  0.00     0.016 A
BRANCH  21  24
HETATM   24  C3  UNL     1      -3.040  15.231 -39.716  1.00  0.00     0.124 C
HETATM   25 CL1  UNL     1      -4.278  14.964 -40.939  1.00  0.00    -0.130 Cl
ENDBRANCH  21  24
ENDBRANCH  19  20
ENDBRANCH   1  19
TORSDOF 9
ENDMDL