MODEL 2
REMARK VINA RESULT: -7.593966564      1.292      1.798
REMARK  8 active torsions:
REMARK  status: ('A' for Active; 'I' for Inactive)
REMARK    1  A    between atoms: C1_2  and  C2_3
REMARK       I    between atoms: C1_2  and  N1_11
REMARK    2  A    between atoms: C2_3  and  C3_4
REMARK    3  A    between atoms: N1_11  and  C10_13
REMARK    4  A    between atoms: C10_13  and  C11_14
REMARK    5  A    between atoms: C10_13  and  C16_19
REMARK    6  A    between atoms: C11_14  and  C12_15
REMARK       I    between atoms: C16_19  and  N2_21
REMARK    7  A    between atoms: N2_21  and  C17_23
REMARK    8  A    between atoms: C17_23  and  C18_24
ROOT
HETATM    1  C10 UNL     1       1.206  14.455 -41.523  1.00  0.00     0.177 C
ENDROOT
BRANCH   1   2
HETATM    2  N1  UNL     1       2.279  15.354 -41.234  1.00  0.00    -0.348 N
HETATM    3  C1  UNL     1       3.652  14.927 -41.155  1.00  0.00     0.218 C
HETATM    4  O1  UNL     1       3.841  13.704 -41.360  1.00  0.00    -0.274 OA
ATOM      5  H1  UNL     1       2.064  16.339 -41.078  1.00  0.00     0.163 HD
BRANCH   3   6
HETATM    6  C2  UNL     1       4.738  15.875 -40.852  1.00  0.00     0.107 C
BRANCH   6   7
HETATM    7  C3  UNL     1       5.682  15.412 -39.771  1.00  0.00    -0.006 C
HETATM    8  C4  UNL     1       6.525  14.302 -40.403  1.00  0.00     0.005 C
HETATM    9  C5  UNL     1       7.820  14.099 -39.698  1.00  0.00     0.000 C
HETATM   10  C6  UNL     1       7.812  13.149 -38.555  1.00  0.00     0.000 C
HETATM   11  C7  UNL     1       6.405  12.878 -38.089  1.00  0.00     0.000 C
HETATM   12  C8  UNL     1       5.703  14.111 -37.631  1.00  0.00     0.000 C
HETATM   13  C9  UNL     1       4.825  14.739 -38.691  1.00  0.00     0.005 C
ENDBRANCH   6   7
ENDBRANCH   3   6
ENDBRANCH   1   2
BRANCH   1  14
HETATM   14  C11 UNL     1      -0.097  14.761 -40.869  1.00  0.00     0.039 C
BRANCH  14  15
HETATM   15  C12 UNL     1      -0.753  13.686 -40.099  1.00  0.00    -0.012 C
HETATM   16  C13 UNL     1      -1.413  12.580 -40.876  1.00  0.00     0.005 C
HETATM   17  C14 UNL     1      -2.538  12.628 -39.842  1.00  0.00     0.001 C
HETATM   18  C15 UNL     1      -2.169  14.078 -39.633  1.00  0.00     0.005 C
ENDBRANCH  14  15
ENDBRANCH   1  14
BRANCH   1  19
HETATM   19  C16 UNL     1       1.011  14.233 -42.963  1.00  0.00     0.240 C
HETATM   20  O2  UNL     1       1.370  13.161 -43.545  1.00  0.00    -0.271 OA
HETATM   21  N2  UNL     1       0.404  15.230 -43.749  1.00  0.00    -0.358 N
ATOM     22  H2  UNL     1       0.101  16.105 -43.320  1.00  0.00     0.162 HD
BRANCH  21  23
HETATM   23  C17 UNL     1       0.212  15.013 -45.174  1.00  0.00     0.137 C
BRANCH  23  24
HETATM   24  C18 UNL     1      -1.244  15.070 -45.551  1.00  0.00     0.134 C
HETATM   25 CL1  UNL     1      -2.141  14.054 -44.395  1.00  0.00    -0.129 Cl
ENDBRANCH  23  24
ENDBRANCH  21  23
ENDBRANCH   1  19
TORSDOF 8
ENDMDL