MODEL 5
REMARK VINA RESULT: -7.362223432      3.579      8.450
REMARK  8 active torsions:
REMARK  status: ('A' for Active; 'I' for Inactive)
REMARK    1  A    between atoms: C1_2  and  C2_3
REMARK       I    between atoms: C1_2  and  N2_16
REMARK    2  A    between atoms: C2_3  and  C3_4
REMARK    3  A    between atoms: C3_4  and  C4_5
REMARK    4  A    between atoms: C4_5  and  C5_6
REMARK       I    between atoms: C5_6  and  N1_8
REMARK    5  A    between atoms: N1_8  and  C6_10
REMARK    6  A    between atoms: N2_16  and  C12_18
REMARK    7  A    between atoms: C12_18  and  C13_19
REMARK    8  A    between atoms: C13_19  and  N3_20
ROOT
HETATM    1  O1  UNL     1       0.752  14.121 -44.323  1.00  0.00    -0.274 OA
HETATM    2  C1  UNL     1       0.991  14.228 -43.108  1.00  0.00     0.217 C
HETATM    3  N2  UNL     1       1.194  13.067 -42.325  1.00  0.00    -0.359 N
ATOM      4  H2  UNL     1       1.390  13.140 -41.327  1.00  0.00     0.162 HD
ENDROOT
BRANCH   2   5
HETATM    5  C2  UNL     1       1.069  15.539 -42.452  1.00  0.00     0.103 C
BRANCH   5   6
HETATM    6  C3  UNL     1       1.725  15.520 -41.106  1.00  0.00     0.018 C
BRANCH   6   7
HETATM    7  C4  UNL     1       3.158  15.945 -41.130  1.00  0.00     0.103 C
BRANCH   7   8
HETATM    8  C5  UNL     1       4.048  14.800 -40.720  1.00  0.00     0.217 C
HETATM    9  O2  UNL     1       3.939  13.701 -41.306  1.00  0.00    -0.274 OA
HETATM   10  N1  UNL     1       4.976  15.034 -39.673  1.00  0.00    -0.356 N
ATOM     11  H1  UNL     1       5.036  15.946 -39.218  1.00  0.00     0.162 HD
BRANCH  10  12
HETATM   12  C6  UNL     1       5.837  13.943 -39.269  1.00  0.00     0.084 C
HETATM   13  C7  UNL     1       7.204  14.146 -39.905  1.00  0.00     0.025 C
HETATM   14  C8  UNL     1       8.210  13.153 -39.329  1.00  0.00     0.002 C
HETATM   15  C9  UNL     1       8.462  13.520 -37.892  1.00  0.00     0.000 C
HETATM   16  C10 UNL     1       7.376  14.408 -37.334  1.00  0.00     0.002 C
HETATM   17  C11 UNL     1       6.022  13.891 -37.788  1.00  0.00     0.025 C
ENDBRANCH  10  12
ENDBRANCH   7   8
ENDBRANCH   6   7
ENDBRANCH   5   6
ENDBRANCH   2   5
BRANCH   3  18
HETATM   18  C12 UNL     1       1.115  11.762 -42.979  1.00  0.00     0.152 C
BRANCH  18  19
HETATM   19  C13 UNL     1       0.203  10.891 -42.190  1.00  0.00     0.292 C
BRANCH  19  20
HETATM   20  N3  UNL     1      -1.193  11.245 -42.268  1.00  0.00     0.090 N
HETATM   21  C14 UNL     1      -1.782  10.200 -43.146  1.00  0.00     0.272 C
HETATM   22  C15 UNL     1      -3.211  10.642 -43.405  1.00  0.00     0.033 C
HETATM   23  C16 UNL     1      -4.049  10.124 -42.251  1.00  0.00     0.039 C
HETATM   24  C17 UNL     1      -4.284  11.167 -41.211  1.00  0.00     0.171 C
HETATM   25  F1  UNL     1      -5.300  12.006 -41.623  1.00  0.00    -0.249 F
HETATM   26  C18 UNL     1      -3.057  11.954 -40.834  1.00  0.00     0.067 C
HETATM   27  C19 UNL     1      -1.784  11.147 -40.956  1.00  0.00     0.275 C
ENDBRANCH  19  20
ENDBRANCH  18  19
ENDBRANCH   3  18
TORSDOF 8
ENDMDL