MODEL 4
REMARK VINA RESULT: -6.087397874      2.478      3.280
REMARK  10 active torsions:
REMARK  status: ('A' for Active; 'I' for Inactive)
REMARK    1  A    between atoms: C1_2  and  C2_4
REMARK    2  A    between atoms: C2_4  and  C3_5
REMARK    3  A    between atoms: C3_5  and  C4_6
REMARK    4  A    between atoms: C4_6  and  C5_7
REMARK    5  A    between atoms: C5_7  and  C6_8
REMARK    6  A    between atoms: C6_8  and  C7_9
REMARK    7  A    between atoms: C7_9  and  C8_10
REMARK    8  A    between atoms: C8_10  and  C9_11
REMARK    9  A    between atoms: C9_11  and  C10_12
REMARK   10  A    between atoms: C10_12  and  N2_13
ROOT
HETATM    1  C9  UNL     1      -0.906  13.945 -42.462  1.00  0.00     0.020 C
ENDROOT
BRANCH   1   2
HETATM    2  C8  UNL     1       0.420  13.352 -42.816  1.00  0.00     0.002 C
BRANCH   2   3
HETATM    3  C7  UNL     1       1.517  13.802 -41.889  1.00  0.00     0.000 C
BRANCH   3   4
HETATM    4  C6  UNL     1       1.726  15.287 -41.859  1.00  0.00     0.000 C
BRANCH   4   5
HETATM    5  C5  UNL     1       1.847  15.790 -40.460  1.00  0.00     0.000 C
BRANCH   5   6
HETATM    6  C4  UNL     1       2.840  16.938 -40.356  1.00  0.00     0.000 C
BRANCH   6   7
HETATM    7  C3  UNL     1       4.140  16.384 -39.898  1.00  0.00     0.009 C
BRANCH   7   8
HETATM    8  C2  UNL     1       4.078  15.292 -38.893  1.00  0.00     0.099 C
BRANCH   8   9
HETATM    9  C1  UNL     1       4.994  14.173 -39.134  1.00  0.00     0.231 C
HETATM   10  N1  UNL     1       5.356  13.928 -40.507  1.00  0.00    -0.062 NA
HETATM   11  O1  UNL     1       5.456  13.451 -38.250  1.00  0.00    -0.277 OA
ENDBRANCH   8   9
ENDBRANCH   7   8
ENDBRANCH   6   7
ENDBRANCH   5   6
ENDBRANCH   4   5
ENDBRANCH   3   4
ENDBRANCH   2   3
ENDBRANCH   1   2
BRANCH   1  12
HETATM   12  C10 UNL     1      -1.917  12.902 -42.031  1.00  0.00     0.132 C
BRANCH  12  13
HETATM   13  N2  UNL     1      -1.787  12.724 -40.591  1.00  0.00    -0.313 N
HETATM   14  C11 UNL     1      -1.139  11.713 -39.961  1.00  0.00     0.196 A
HETATM   15  N3  UNL     1      -0.478  10.659 -40.655  1.00  0.00    -0.063 NA
HETATM   16  N4  UNL     1      -1.224  11.873 -38.627  1.00  0.00    -0.322 N
HETATM   17  C12 UNL     1      -1.931  12.993 -38.367  1.00  0.00     0.116 A
ATOM     18  H4  UNL     1      -0.821  11.251 -37.927  1.00  0.00     0.169 HD
HETATM   19 BR1  UNL     1      -2.356  13.695 -36.637  1.00  0.00    -0.028 Br
HETATM   20  C13 UNL     1      -2.268  13.501 -39.605  1.00  0.00     0.118 A
HETATM   21 BR2  UNL     1      -3.281  15.092 -39.898  1.00  0.00    -0.028 Br
ENDBRANCH  12  13
ENDBRANCH   1  12
TORSDOF 10
ENDMDL