MODEL 4
REMARK VINA RESULT: -5.849546141      2.842      7.820
REMARK  11 active torsions:
REMARK  status: ('A' for Active; 'I' for Inactive)
REMARK    1  A    between atoms: C2_3  and  C3_4
REMARK    2  A    between atoms: C3_4  and  C4_5
REMARK    3  A    between atoms: C4_5  and  C5_6
REMARK    4  A    between atoms: C5_6  and  C6_7
REMARK    5  A    between atoms: C6_7  and  C7_8
REMARK    6  A    between atoms: C7_8  and  C8_9
REMARK    7  A    between atoms: C8_9  and  C9_10
REMARK    8  A    between atoms: C9_10  and  N2_11
REMARK    9  A    between atoms: N2_11  and  C10_14
REMARK   10  A    between atoms: C10_14  and  C11_15
REMARK   11  A    between atoms: C14_22  and  N4_23
ROOT
HETATM    1  C3  UNL     1       1.764  15.888 -41.308  1.00  0.00     0.076 C
ENDROOT
BRANCH   1   2
HETATM    2  C2  UNL     1       0.714  14.863 -41.083  1.00  0.00     0.084 A
HETATM    3  N1  UNL     1       0.169  14.171 -42.089  1.00  0.00    -0.326 N
HETATM    4  C1  UNL     1       0.639  14.413 -43.430  1.00  0.00     0.159 C
HETATM    5  C14 UNL     1      -0.807  13.238 -41.871  1.00  0.00     0.121 A
HETATM    6  C13 UNL     1      -1.253  12.989 -40.595  1.00  0.00     0.070 A
HETATM    7  C12 UNL     1      -0.689  13.704 -39.565  1.00  0.00     0.112 A
HETATM    8 BR2  UNL     1      -2.619  11.681 -40.305  1.00  0.00    -0.046 Br
HETATM    9  N3  UNL     1       0.270  14.616 -39.817  1.00  0.00    -0.354 N
ATOM     10  H3  UNL     1       0.675  15.136 -39.039  1.00  0.00     0.166 HD
BRANCH   5  11
HETATM   11  N4  UNL     1      -1.306  12.599 -42.870  1.00  0.00    -0.384 N
ATOM     12  H42 UNL     1      -0.868  11.740 -43.203  1.00  0.00     0.157 HD
ATOM     13  H41 UNL     1      -2.147  12.955 -43.326  1.00  0.00     0.157 HD
ENDBRANCH   5  11
ENDBRANCH   1   2
BRANCH   1  14
HETATM   14  C4  UNL     1       2.807  15.898 -40.254  1.00  0.00     0.007 C
BRANCH  14  15
HETATM   15  C5  UNL     1       3.329  17.316 -39.962  1.00  0.00     0.000 C
BRANCH  15  16
HETATM   16  C6  UNL     1       4.747  17.319 -39.542  1.00  0.00     0.000 C
BRANCH  16  17
HETATM   17  C7  UNL     1       5.572  16.120 -39.677  1.00  0.00     0.002 C
BRANCH  17  18
HETATM   18  C8  UNL     1       6.053  15.348 -38.545  1.00  0.00     0.027 C
BRANCH  18  19
HETATM   19  C9  UNL     1       5.184  14.376 -37.838  1.00  0.00     0.232 C
BRANCH  19  20
HETATM   20  N2  UNL     1       5.716  14.241 -36.460  1.00  0.00    -0.074 N
ATOM     21  H22 UNL     1       5.399  15.005 -35.862  1.00  0.00     0.277 HD
ATOM     22  H21 UNL     1       5.279  13.462 -35.967  1.00  0.00     0.277 HD
BRANCH  20  23
HETATM   23  C10 UNL     1       7.141  14.131 -36.451  1.00  0.00     0.243 C
BRANCH  23  24
HETATM   24  C11 UNL     1       7.687  12.756 -36.628  1.00  0.00     0.112 C
HETATM   25 BR1  UNL     1       9.191  12.834 -37.848  1.00  0.00    -0.095 Br
ENDBRANCH  23  24
ENDBRANCH  20  23
ENDBRANCH  19  20
ENDBRANCH  18  19
ENDBRANCH  17  18
ENDBRANCH  16  17
ENDBRANCH  15  16
ENDBRANCH  14  15
ENDBRANCH   1  14
TORSDOF 11
ENDMDL