MODEL 2
REMARK VINA RESULT: -5.752234695      4.338      7.514
REMARK  13 active torsions:
REMARK  status: ('A' for Active; 'I' for Inactive)
REMARK    1  A    between atoms: C1_2  and  C2_4
REMARK    2  A    between atoms: C2_4  and  C3_5
REMARK    3  A    between atoms: C3_5  and  C4_6
REMARK    4  A    between atoms: C4_6  and  N2_7
REMARK    5  A    between atoms: C4_6  and  C14_20
REMARK    6  A    between atoms: N2_7  and  C5_9
REMARK    7  A    between atoms: C5_9  and  C6_11
REMARK    8  A    between atoms: C6_11  and  C7_12
REMARK    9  A    between atoms: C7_12  and  C8_13
REMARK   10  A    between atoms: C8_13  and  C9_14
REMARK   11  A    between atoms: C9_14  and  C10_15
REMARK   12  A    between atoms: C10_15  and  C11_16
REMARK   13  A    between atoms: C12_17  and  C13_18
ROOT
HETATM    1  N2  UNL     1       0.455  13.869 -40.705  1.00  0.00    -0.371 N
ATOM      2  H2  UNL     1       0.941  13.627 -39.841  1.00  0.00     0.161 HD
ENDROOT
BRANCH   1   3
HETATM    3  C4  UNL     1      -0.723  13.065 -41.009  1.00  0.00     0.172 C
BRANCH   3   4
HETATM    4  C3  UNL     1      -1.924  13.587 -40.316  1.00  0.00     0.043 C
BRANCH   4   5
HETATM    5  C2  UNL     1      -1.791  14.556 -39.209  1.00  0.00     0.102 C
BRANCH   5   6
HETATM    6  C1  UNL     1      -1.898  14.005 -37.856  1.00  0.00     0.231 C
HETATM    7  N1  UNL     1      -2.899  14.472 -36.942  1.00  0.00    -0.062 NA
HETATM    8  O1  UNL     1      -1.106  13.117 -37.466  1.00  0.00    -0.277 OA
ENDBRANCH   5   6
ENDBRANCH   4   5
ENDBRANCH   3   4
BRANCH   3   9
HETATM    9  C14 UNL     1      -0.425  11.650 -40.940  1.00  0.00     0.253 C
HETATM   10  N3  UNL     1       0.705  11.049 -41.595  1.00  0.00    -0.060 NA
HETATM   11  O2  UNL     1      -1.165  10.861 -40.270  1.00  0.00    -0.275 OA
ENDBRANCH   3   9
ENDBRANCH   1   3
BRANCH   1  12
HETATM   12  C5  UNL     1       1.007  14.917 -41.428  1.00  0.00     0.074 C
HETATM   13  S1  UNL     1       1.046  14.954 -43.043  1.00  0.00    -0.066 SA
BRANCH  12  14
HETATM   14  C6  UNL     1       1.623  16.046 -40.684  1.00  0.00     0.069 C
BRANCH  14  15
HETATM   15  C7  UNL     1       3.059  15.865 -40.370  1.00  0.00     0.007 C
BRANCH  15  16
HETATM   16  C8  UNL     1       3.726  17.147 -39.953  1.00  0.00     0.001 C
BRANCH  16  17
HETATM   17  C9  UNL     1       5.148  16.777 -39.579  1.00  0.00     0.012 C
BRANCH  17  18
HETATM   18  C10 UNL     1       5.630  15.593 -40.427  1.00  0.00     0.094 C
BRANCH  18  19
HETATM   19  C11 UNL     1       6.605  14.803 -39.649  1.00  0.00    -0.106 C
HETATM   20  C12 UNL     1       7.385  14.152 -38.997  1.00  0.00    -0.096 C
BRANCH  20  21
HETATM   21  C13 UNL     1       8.313  13.353 -38.192  1.00  0.00     0.178 C
HETATM   22 BR1  UNL     1       8.003  13.619 -36.299  1.00  0.00    -0.083 Br
ENDBRANCH  20  21
ENDBRANCH  18  19
ENDBRANCH  17  18
ENDBRANCH  16  17
ENDBRANCH  15  16
ENDBRANCH  14  15
ENDBRANCH  12  14
ENDBRANCH   1  12
TORSDOF 13
ENDMDL