MODEL 2
REMARK VINA RESULT: -7.544021149      4.790      8.537
REMARK  11 active torsions:
REMARK  status: ('A' for Active; 'I' for Inactive)
REMARK       I    between atoms: C1_2  and  N4_20
REMARK       I    between atoms: N2_3  and  C2_5
REMARK    1  A    between atoms: C2_5  and  C3_7
REMARK    2  A    between atoms: C3_7  and  C4_8
REMARK    3  A    between atoms: C4_8  and  C5_9
REMARK    4  A    between atoms: C5_9  and  C6_10
REMARK    5  A    between atoms: C6_10  and  C7_11
REMARK    6  A    between atoms: C7_11  and  N3_12
REMARK       I    between atoms: N3_12  and  C8_14
REMARK    7  A    between atoms: C8_14  and  C9_16
REMARK    8  A    between atoms: N4_20  and  C11_22
REMARK    9  A    between atoms: C11_22  and  C12_23
REMARK   10  A    between atoms: C12_23  and  C13_24
REMARK   11  A    between atoms: C13_24  and  N5_25
ROOT
HETATM    1  N1  UNL     1       2.659  12.512 -41.533  1.00  0.00    -0.063 NA
HETATM    2  C1  UNL     1       1.404  13.122 -41.788  1.00  0.00     0.190 C
HETATM    3  N2  UNL     1       0.316  12.700 -41.209  1.00  0.00    -0.301 N
ATOM      4  H2  UNL     1       0.353  11.916 -40.558  1.00  0.00     0.171 HD
HETATM    5  C2  UNL     1      -0.920  13.335 -41.491  1.00  0.00     0.224 C
HETATM    6  O1  UNL     1      -1.392  13.339 -42.656  1.00  0.00    -0.273 OA
HETATM    7  N4  UNL     1       1.323  14.205 -42.684  1.00  0.00    -0.364 N
ATOM      8  H4  UNL     1       1.223  14.002 -43.678  1.00  0.00     0.162 HD
ENDROOT
BRANCH   5   9
HETATM    9  C3  UNL     1      -1.657  13.999 -40.410  1.00  0.00     0.103 C
BRANCH   9  10
HETATM   10  C4  UNL     1      -1.711  13.124 -39.202  1.00  0.00     0.009 C
BRANCH  10  11
HETATM   11  C5  UNL     1      -1.477  13.861 -37.913  1.00  0.00     0.002 C
BRANCH  11  12
HETATM   12  C6  UNL     1      -2.787  13.942 -37.144  1.00  0.00     0.020 C
BRANCH  12  13
HETATM   13  C7  UNL     1      -3.388  15.317 -37.272  1.00  0.00     0.123 C
BRANCH  13  14
HETATM   14  N3  UNL     1      -4.646  15.250 -37.936  1.00  0.00    -0.358 N
HETATM   15  C8  UNL     1      -4.826  15.694 -39.270  1.00  0.00     0.243 C
HETATM   16  O2  UNL     1      -3.902  16.183 -39.956  1.00  0.00    -0.269 OA
ATOM     17  H3  UNL     1      -5.447  14.868 -37.434  1.00  0.00     0.162 HD
BRANCH  15  18
HETATM   18  C9  UNL     1      -6.162  15.581 -39.885  1.00  0.00     0.110 C
HETATM   19  C10 UNL     1      -6.371  14.746 -40.859  1.00  0.00     0.108 C
HETATM   20 CL1  UNL     1      -5.111  13.734 -41.481  1.00  0.00    -0.071 Cl
HETATM   21 CL2  UNL     1      -7.966  14.636 -41.566  1.00  0.00    -0.071 Cl
ENDBRANCH  15  18
ENDBRANCH  13  14
ENDBRANCH  12  13
ENDBRANCH  11  12
ENDBRANCH  10  11
ENDBRANCH   9  10
ENDBRANCH   5   9
BRANCH   7  22
HETATM   22  C11 UNL     1       1.372  15.572 -42.273  1.00  0.00     0.124 C
BRANCH  22  23
HETATM   23  C12 UNL     1       1.620  15.657 -40.796  1.00  0.00     0.039 C
BRANCH  23  24
HETATM   24  C13 UNL     1       2.637  16.698 -40.447  1.00  0.00     0.127 C
BRANCH  24  25
HETATM   25  N5  UNL     1       3.732  16.160 -39.664  1.00  0.00    -0.352 N
HETATM   26  C14 UNL     1       3.755  14.826 -39.087  1.00  0.00     0.126 C
HETATM   27  C15 UNL     1       4.852  14.911 -38.051  1.00  0.00     0.029 C
HETATM   28  C16 UNL     1       5.843  15.840 -38.743  1.00  0.00     0.104 C
HETATM   29  C17 UNL     1       4.935  16.848 -39.347  1.00  0.00     0.219 C
HETATM   30  O3  UNL     1       5.233  18.058 -39.516  1.00  0.00    -0.273 OA
ENDBRANCH  24  25
ENDBRANCH  23  24
ENDBRANCH  22  23
ENDBRANCH   7  22
TORSDOF 11
ENDMDL