MODEL 4
REMARK VINA RESULT: -6.558386961      0.725      1.348
REMARK  12 active torsions:
REMARK  status: ('A' for Active; 'I' for Inactive)
REMARK    1  A    between atoms: N1_2  and  C2_5
REMARK    2  A    between atoms: C2_5  and  C3_6
REMARK    3  A    between atoms: C3_6  and  C4_7
REMARK    4  A    between atoms: C4_7  and  C5_8
REMARK    5  A    between atoms: C5_8  and  C6_9
REMARK    6  A    between atoms: C6_9  and  C7_10
REMARK    7  A    between atoms: C6_9  and  N4_22
REMARK    8  A    between atoms: C7_10  and  N2_11
REMARK    9  A    between atoms: N3_14  and  C10_15
REMARK   10  A    between atoms: C10_15  and  C11_16
REMARK   11  A    between atoms: N4_22  and  C16_24
REMARK   12  A    between atoms: C16_24  and  C17_26
ROOT
HETATM    1  C6  UNL     1       1.043  14.294 -40.745  1.00  0.00     0.104 C
ENDROOT
BRANCH   1   2
HETATM    2  C5  UNL     1      -0.050  14.722 -39.824  1.00  0.00     0.026 C
BRANCH   2   3
HETATM    3  C4  UNL     1      -0.971  13.552 -39.435  1.00  0.00     0.004 C
BRANCH   3   4
HETATM    4  C3  UNL     1      -1.919  13.983 -38.344  1.00  0.00     0.027 C
BRANCH   4   5
HETATM    5  C2  UNL     1      -1.888  13.080 -37.136  1.00  0.00     0.231 C
BRANCH   5   6
HETATM    6  N1  UNL     1      -2.549  13.687 -35.991  1.00  0.00    -0.079 N
HETATM    7  C1  UNL     1      -3.475  14.746 -36.405  1.00  0.00     0.266 C
ATOM      8  H12 UNL     1      -1.873  14.027 -35.307  1.00  0.00     0.276 HD
ATOM      9  H11 UNL     1      -3.017  12.986 -35.415  1.00  0.00     0.276 HD
ENDBRANCH   5   6
ENDBRANCH   4   5
ENDBRANCH   3   4
ENDBRANCH   2   3
ENDBRANCH   1   2
BRANCH   1  10
HETATM   10  C7  UNL     1       0.975  14.873 -42.081  1.00  0.00     0.262 C
BRANCH  10  11
HETATM   11  N2  UNL     1       0.379  14.296 -43.223  1.00  0.00    -0.060 N
HETATM   12  C8  UNL     1       0.557  14.811 -44.510  1.00  0.00     0.265 C
HETATM   13  C9  UNL     1       0.068  13.861 -45.592  1.00  0.00     0.265 C
HETATM   14  N3  UNL     1      -0.625  12.751 -45.029  1.00  0.00    -0.061 N
HETATM   15  C12 UNL     1       0.361  12.019 -44.235  1.00  0.00     0.265 C
HETATM   16  C14 UNL     1      -1.622  13.251 -44.062  1.00  0.00     0.265 C
HETATM   17  C13 UNL     1       0.877  12.885 -43.171  1.00  0.00     0.265 C
HETATM   18  C15 UNL     1      -1.070  14.122 -43.012  1.00  0.00     0.265 C
BRANCH  14  19
HETATM   19  C10 UNL     1      -1.349  11.914 -45.909  1.00  0.00     0.252 C
BRANCH  19  20
HETATM   20  C11 UNL     1      -1.479  12.281 -47.327  1.00  0.00     0.142 C
HETATM   21 CL1  UNL     1      -2.861  13.307 -47.733  1.00  0.00    -0.129 Cl
ENDBRANCH  19  20
ENDBRANCH  14  19
ENDBRANCH  10  11
ENDBRANCH   1  10
BRANCH   1  22
HETATM   22  N4  UNL     1       2.352  14.508 -40.126  1.00  0.00    -0.399 N
ATOM     23  H4  UNL     1       2.679  13.884 -39.388  1.00  0.00     0.155 HD
BRANCH  22  24
HETATM   24  C16 UNL     1       3.147  15.568 -40.552  1.00  0.00     0.182 C
HETATM   25 CL2  UNL     1       2.479  17.214 -40.325  1.00  0.00    -0.102 Cl
BRANCH  24  26
HETATM   26  C17 UNL     1       4.482  15.615 -39.783  1.00  0.00    -0.018 C
HETATM   27  C18 UNL     1       4.373  14.870 -38.480  1.00  0.00     0.018 C
HETATM   28  C19 UNL     1       5.658  15.142 -40.538  1.00  0.00     0.018 C
HETATM   29  C20 UNL     1       4.721  17.093 -39.468  1.00  0.00     0.018 C
ENDBRANCH  24  26
ENDBRANCH  22  24
ENDBRANCH   1  22
TORSDOF 12
ENDMDL