MODEL 3
REMARK VINA RESULT: -6.993690116      1.958      3.096
REMARK  15 active torsions:
REMARK  status: ('A' for Active; 'I' for Inactive)
REMARK    1  A    between atoms: C2_2  and  N1_3
REMARK    2  A    between atoms: C2_2  and  C17_22
REMARK    3  A    between atoms: N1_3  and  C3_5
REMARK    4  A    between atoms: C3_5  and  C4_6
REMARK    5  A    between atoms: C4_6  and  N2_7
REMARK    6  A    between atoms: N2_7  and  C7_10
REMARK    7  A    between atoms: C7_10  and  C8_11
REMARK    8  A    between atoms: C9_12  and  C10_13
REMARK    9  A    between atoms: C11_14  and  C12_15
REMARK   10  A    between atoms: C17_22  and  N3_24
REMARK   11  A    between atoms: N3_24  and  C18_26
REMARK   12  A    between atoms: C18_26  and  C19_27
REMARK   13  A    between atoms: C19_27  and  C20_28
REMARK   14  A    between atoms: C20_28  and  C21_29
REMARK   15  A    between atoms: C21_29  and  N4_30
ROOT
HETATM    1  C3  UNL     1      -2.171  13.901 -42.436  1.00  0.00     0.147 C
ENDROOT
BRANCH   1   2
HETATM    2  N1  UNL     1      -2.832  12.647 -42.566  1.00  0.00    -0.389 N
ATOM      3  H1  UNL     1      -2.932  12.181 -43.468  1.00  0.00     0.159 HD
BRANCH   2   4
HETATM    4  C2  UNL     1      -3.336  12.090 -41.384  1.00  0.00     0.039 C
HETATM    5  C1  UNL     1      -4.211  10.877 -41.670  1.00  0.00     0.071 C
BRANCH   4   6
HETATM    6  C17 UNL     1      -2.458  11.958 -40.233  1.00  0.00     0.118 C
HETATM    7  S1  UNL     1      -1.110  10.953 -40.475  1.00  0.00    -0.059 SA
BRANCH   6   8
HETATM    8  N3  UNL     1      -2.570  12.529 -38.973  1.00  0.00    -0.379 N
ATOM      9  H3  UNL     1      -3.394  13.116 -38.838  1.00  0.00     0.160 HD
BRANCH   8  10
HETATM   10  C18 UNL     1      -1.719  12.423 -37.844  1.00  0.00     0.120 C
BRANCH  10  11
HETATM   11  C19 UNL     1      -2.002  13.464 -36.816  1.00  0.00     0.021 C
BRANCH  11  12
HETATM   12  C20 UNL     1      -2.516  14.733 -37.480  1.00  0.00     0.029 C
BRANCH  12  13
HETATM   13  C21 UNL     1      -3.558  15.407 -36.666  1.00  0.00     0.229 C
BRANCH  13  14
HETATM   14  N4  UNL     1      -3.824  14.556 -35.487  1.00  0.00    -0.079 N
ATOM     15  H43 UNL     1      -3.033  14.511 -34.844  1.00  0.00     0.274 HD
ATOM     16  H42 UNL     1      -4.498  14.970 -34.842  1.00  0.00     0.274 HD
ATOM     17  H41 UNL     1      -4.113  13.639 -35.827  1.00  0.00     0.274 HD
ENDBRANCH  13  14
ENDBRANCH  12  13
ENDBRANCH  11  12
ENDBRANCH  10  11
ENDBRANCH   8  10
ENDBRANCH   6   8
ENDBRANCH   4   6
ENDBRANCH   2   4
ENDBRANCH   1   2
BRANCH   1  18
HETATM   18  C4  UNL     1      -0.982  14.017 -43.321  1.00  0.00     0.257 C
BRANCH  18  19
HETATM   19  N2  UNL     1       0.261  14.253 -42.606  1.00  0.00    -0.063 N
HETATM   20  C5  UNL     1       0.974  15.291 -43.300  1.00  0.00     0.273 C
HETATM   21  C6  UNL     1       1.108  13.065 -42.659  1.00  0.00     0.273 C
BRANCH  19  22
HETATM   22  C7  UNL     1      -0.008  14.607 -41.238  1.00  0.00     0.330 C
BRANCH  22  23
HETATM   23  C8  UNL     1       1.269  14.754 -40.528  1.00  0.00    -0.065 C
HETATM   24  C9  UNL     1       2.327  14.846 -39.955  1.00  0.00    -0.013 C
BRANCH  24  25
HETATM   25  C10 UNL     1       3.584  14.925 -39.296  1.00  0.00    -0.015 C
HETATM   26  C11 UNL     1       4.648  14.965 -38.732  1.00  0.00    -0.087 C
BRANCH  26  27
HETATM   27  C12 UNL     1       5.951  14.988 -38.067  1.00  0.00     0.072 C
HETATM   28  C13 UNL     1       6.997  14.632 -39.067  1.00  0.00     0.023 C
HETATM   29  C14 UNL     1       8.147  14.181 -38.182  1.00  0.00     0.080 C
HETATM   30  C15 UNL     1       7.552  13.764 -36.867  1.00  0.00     0.244 C
HETATM   31  F1  UNL     1       7.865  14.692 -35.895  1.00  0.00    -0.206 F
HETATM   32  F2  UNL     1       7.948  12.498 -36.479  1.00  0.00    -0.206 F
HETATM   33  C16 UNL     1       6.054  13.838 -37.066  1.00  0.00     0.096 C
ENDBRANCH  26  27
ENDBRANCH  24  25
ENDBRANCH  22  23
ENDBRANCH  19  22
ENDBRANCH  18  19
ENDBRANCH   1  18
TORSDOF 15
ENDMDL