MODEL 1
REMARK VINA RESULT: -5.919569938      0.000      0.000
REMARK  11 active torsions:
REMARK  status: ('A' for Active; 'I' for Inactive)
REMARK    1  A    between atoms: C2_2  and  C3_4
REMARK       I    between atoms: C3_4  and  N1_6
REMARK    2  A    between atoms: N1_6  and  C4_8
REMARK    3  A    between atoms: C4_8  and  C5_9
REMARK    4  A    between atoms: C5_9  and  C6_10
REMARK    5  A    between atoms: C6_10  and  N2_12
REMARK    6  A    between atoms: N2_12  and  C7_14
REMARK    7  A    between atoms: C7_14  and  C8_15
REMARK    8  A    between atoms: C8_15  and  C9_16
REMARK    9  A    between atoms: C9_16  and  C10_17
REMARK   10  A    between atoms: C10_17  and  C11_18
REMARK   11  A    between atoms: C11_18  and  C12_19
ROOT
HETATM    1  C6  UNL     1      -0.904  13.552 -42.030  1.00  0.00     0.074 C
HETATM    2  S1  UNL     1      -0.296  13.110 -43.471  1.00  0.00    -0.066 SA
ENDROOT
BRANCH   1   3
HETATM    3  C5  UNL     1      -2.054  12.824 -41.438  1.00  0.00     0.089 C
BRANCH   3   4
HETATM    4  C4  UNL     1      -1.581  12.075 -40.240  1.00  0.00     0.130 C
BRANCH   4   5
HETATM    5  N1  UNL     1      -2.330  12.378 -39.042  1.00  0.00    -0.356 N
HETATM    6  C3  UNL     1      -1.786  13.315 -38.131  1.00  0.00     0.258 C
HETATM    7  O1  UNL     1      -0.658  13.849 -38.411  1.00  0.00    -0.267 OA
ATOM      8  H1  UNL     1      -3.227  11.929 -38.858  1.00  0.00     0.162 HD
BRANCH   6   9
HETATM    9  C2  UNL     1      -2.398  13.733 -36.891  1.00  0.00     0.069 C
HETATM   10  C1  UNL     1      -2.273  13.006 -35.811  1.00  0.00     0.037 C
HETATM   11 BR1  UNL     1      -3.412  15.361 -36.781  1.00  0.00    -0.046 Br
ENDBRANCH   6   9
ENDBRANCH   4   5
ENDBRANCH   3   4
ENDBRANCH   1   3
BRANCH   1  12
HETATM   12  N2  UNL     1      -0.318  14.646 -41.346  1.00  0.00    -0.384 N
ATOM     13  H2  UNL     1      -0.905  15.310 -40.841  1.00  0.00     0.160 HD
BRANCH  12  14
HETATM   14  C7  UNL     1       1.122  14.815 -41.368  1.00  0.00     0.120 C
BRANCH  14  15
HETATM   15  C8  UNL     1       1.535  16.099 -40.690  1.00  0.00     0.020 C
BRANCH  15  16
HETATM   16  C9  UNL     1       3.023  16.207 -40.603  1.00  0.00     0.002 C
BRANCH  16  17
HETATM   17  C10 UNL     1       3.490  17.490 -39.974  1.00  0.00     0.001 C
BRANCH  17  18
HETATM   18  C11 UNL     1       4.845  17.388 -39.355  1.00  0.00     0.011 C
BRANCH  18  19
HETATM   19  C12 UNL     1       5.423  15.996 -39.453  1.00  0.00     0.085 C
HETATM   20 BR2  UNL     1       5.157  15.052 -37.787  1.00  0.00    -0.097 Br
ENDBRANCH  18  19
ENDBRANCH  17  18
ENDBRANCH  16  17
ENDBRANCH  15  16
ENDBRANCH  14  15
ENDBRANCH  12  14
ENDBRANCH   1  12
TORSDOF 11
ENDMDL