MODEL 4
REMARK VINA RESULT: -6.405859974      1.362      1.848
REMARK  11 active torsions:
REMARK  status: ('A' for Active; 'I' for Inactive)
REMARK    1  A    between atoms: C2_5  and  N2_6
REMARK    2  A    between atoms: N2_6  and  C3_8
REMARK    3  A    between atoms: C3_8  and  C4_9
REMARK    4  A    between atoms: C4_9  and  C5_10
REMARK    5  A    between atoms: C5_10  and  C6_11
REMARK    6  A    between atoms: C6_11  and  C7_12
REMARK    7  A    between atoms: C7_12  and  C8_13
REMARK    8  A    between atoms: C8_13  and  C9_14
REMARK    9  A    between atoms: C9_14  and  C10_15
REMARK   10  A    between atoms: C10_15  and  C11_16
REMARK   11  A    between atoms: C11_16  and  C12_17
ROOT
HETATM    1  N2  UNL     1      -0.435  13.960 -41.610  1.00  0.00    -0.226 N
ATOM      2  H2  UNL     1      -0.937  13.764 -42.477  1.00  0.00     0.177 HD
ENDROOT
BRANCH   1   3
HETATM    3  C2  UNL     1      -1.082  14.155 -40.517  1.00  0.00     0.680 A
HETATM    4  N1  UNL     1      -2.193  14.907 -40.529  1.00  0.00    -0.155 N
HETATM    5  C1  UNL     1      -2.892  15.128 -39.393  1.00  0.00     0.278 A
ATOM      6  H1  UNL     1      -2.514  15.317 -41.406  1.00  0.00     0.187 HD
HETATM    7  O1  UNL     1      -3.927  15.835 -39.435  1.00  0.00    -0.266 OA
HETATM    8  C14 UNL     1      -2.446  14.566 -38.204  1.00  0.00     0.095 A
HETATM    9  C13 UNL     1      -1.303  13.795 -38.197  1.00  0.00     0.131 A
HETATM   10 BR2  UNL     1      -3.442  14.888 -36.615  1.00  0.00    -0.044 Br
HETATM   11  N3  UNL     1      -0.665  13.620 -39.364  1.00  0.00    -0.200 N
ATOM     12  H3  UNL     1       0.182  13.050 -39.373  1.00  0.00     0.183 HD
ENDBRANCH   1   3
BRANCH   1  13
HETATM   13  C3  UNL     1       1.028  14.020 -41.603  1.00  0.00     0.138 C
BRANCH  13  14
HETATM   14  C4  UNL     1       1.504  15.394 -42.017  1.00  0.00     0.020 C
BRANCH  14  15
HETATM   15  C5  UNL     1       1.831  16.285 -40.850  1.00  0.00     0.002 C
BRANCH  15  16
HETATM   16  C6  UNL     1       3.018  15.735 -40.096  1.00  0.00     0.000 C
BRANCH  16  17
HETATM   17  C7  UNL     1       4.106  16.766 -39.924  1.00  0.00     0.000 C
BRANCH  17  18
HETATM   18  C8  UNL     1       5.218  16.303 -39.008  1.00  0.00     0.000 C
BRANCH  18  19
HETATM   19  C9  UNL     1       4.670  15.134 -38.220  1.00  0.00     0.000 C
BRANCH  19  20
HETATM   20  C10 UNL     1       5.599  13.946 -38.256  1.00  0.00     0.001 C
BRANCH  20  21
HETATM   21  C11 UNL     1       6.753  14.188 -39.195  1.00  0.00     0.011 C
BRANCH  21  22
HETATM   22  C12 UNL     1       8.021  13.574 -38.659  1.00  0.00     0.085 C
HETATM   23 BR1  UNL     1       7.685  12.897 -36.885  1.00  0.00    -0.097 Br
ENDBRANCH  21  22
ENDBRANCH  20  21
ENDBRANCH  19  20
ENDBRANCH  18  19
ENDBRANCH  17  18
ENDBRANCH  16  17
ENDBRANCH  15  16
ENDBRANCH  14  15
ENDBRANCH  13  14
ENDBRANCH   1  13
TORSDOF 11
ENDMDL