MODEL 1
REMARK VINA RESULT: -7.318237196      0.000      0.000
REMARK  11 active torsions:
REMARK  status: ('A' for Active; 'I' for Inactive)
REMARK       I    between atoms: N1_2  and  C2_4
REMARK       I    between atoms: C2_4  and  N3_19
REMARK       I    between atoms: N2_5  and  C3_7
REMARK    1  A    between atoms: C3_7  and  C4_9
REMARK    2  A    between atoms: C4_9  and  C5_10
REMARK    3  A    between atoms: C5_10  and  C6_11
REMARK    4  A    between atoms: C6_11  and  C7_12
REMARK    5  A    between atoms: C7_12  and  C8_13
REMARK    6  A    between atoms: C8_13  and  C9_14
REMARK    7  A    between atoms: C9_14  and  C10_15
REMARK    8  A    between atoms: C10_15  and  C11_16
REMARK    9  A    between atoms: C11_16  and  C12_17
REMARK       I    between atoms: N3_19  and  C13_21
REMARK       I    between atoms: C13_21  and  N4_23
REMARK   10  A    between atoms: N4_23  and  C14_25
REMARK   11  A    between atoms: C14_25  and  C15_26
ROOT
HETATM    1  C1  UNL     1       5.013  17.260 -39.599  1.00  0.00     0.165 C
HETATM    2  N1  UNL     1       5.201  15.816 -39.696  1.00  0.00    -0.230 N
ATOM      3  H1  UNL     1       5.925  15.423 -40.297  1.00  0.00     0.177 HD
HETATM    4  C2  UNL     1       4.351  14.974 -38.937  1.00  0.00     0.684 C
HETATM    5  N2  UNL     1       3.140  14.720 -39.253  1.00  0.00    -0.160 N
ATOM      6  H2  UNL     1       2.585  14.106 -38.656  1.00  0.00     0.187 HD
HETATM    7  C3  UNL     1       2.553  15.271 -40.411  1.00  0.00     0.235 C
HETATM    8  O1  UNL     1       3.295  15.483 -41.401  1.00  0.00    -0.273 OA
HETATM    9  N3  UNL     1       4.815  14.335 -37.728  1.00  0.00    -0.141 N
ATOM     10  H3  UNL     1       4.198  13.737 -37.178  1.00  0.00     0.189 HD
HETATM   11  C13 UNL     1       6.152  14.563 -37.334  1.00  0.00     0.334 C
HETATM   12  O2  UNL     1       6.928  15.297 -38.016  1.00  0.00    -0.246 OA
HETATM   13  N4  UNL     1       6.633  13.956 -36.146  1.00  0.00    -0.335 N
ATOM     14  H4  UNL     1       6.016  13.374 -35.579  1.00  0.00     0.164 HD
ENDROOT
BRANCH   7  15
HETATM   15  C4  UNL     1       1.119  15.566 -40.410  1.00  0.00     0.103 C
BRANCH  15  16
HETATM   16  C5  UNL     1       0.281  14.342 -40.691  1.00  0.00     0.009 C
BRANCH  16  17
HETATM   17  C6  UNL     1      -0.961  14.357 -39.862  1.00  0.00     0.000 C
BRANCH  17  18
HETATM   18  C7  UNL     1      -1.684  13.044 -39.897  1.00  0.00     0.000 C
BRANCH  18  19
HETATM   19  C8  UNL     1      -1.904  12.510 -38.520  1.00  0.00     0.000 C
BRANCH  19  20
HETATM   20  C9  UNL     1      -1.556  13.519 -37.484  1.00  0.00     0.000 C
BRANCH  20  21
HETATM   21  C10 UNL     1      -2.358  13.318 -36.236  1.00  0.00     0.001 C
BRANCH  21  22
HETATM   22  C11 UNL     1      -3.482  14.315 -36.202  1.00  0.00     0.015 C
BRANCH  22  23
HETATM   23  C12 UNL     1      -3.160  15.555 -36.998  1.00  0.00     0.114 C
HETATM   24 CL1  UNL     1      -4.389  15.679 -38.280  1.00  0.00    -0.130 Cl
ENDBRANCH  22  23
ENDBRANCH  21  22
ENDBRANCH  20  21
ENDBRANCH  19  20
ENDBRANCH  18  19
ENDBRANCH  17  18
ENDBRANCH  16  17
ENDBRANCH  15  16
ENDBRANCH   7  15
BRANCH  13  25
HETATM   25  C14 UNL     1       8.000  14.166 -35.749  1.00  0.00     0.215 C
BRANCH  25  26
HETATM   26  C15 UNL     1       8.728  12.880 -35.783  1.00  0.00     0.212 C
HETATM   27  O3  UNL     1       8.251  11.803 -36.078  1.00  0.00    -0.283 OA
HETATM   28 BR1  UNL     1      10.592  12.914 -35.322  1.00  0.00    -0.007 Br
ENDBRANCH  25  26
ENDBRANCH  13  25
TORSDOF 11
ENDMDL