MODEL 5
REMARK VINA RESULT: -4.798268323      4.892      6.283
REMARK  3 active torsions:
REMARK  status: ('A' for Active; 'I' for Inactive)
REMARK    1  A    between atoms: C2_2  and  C3_3
REMARK    2  A    between atoms: C2_2  and  C5_6
REMARK    3  A    between atoms: C6_7  and  C7_9
ROOT
HETATM    1  C5  UNL     1       4.830  14.465 -40.089  1.00  0.00     0.012 C
HETATM    2  C6  UNL     1       4.138  15.258 -40.860  1.00  0.00     0.107 C
HETATM    3 CL1  UNL     1       4.264  17.000 -40.853  1.00  0.00    -0.077 Cl
ENDROOT
BRANCH   1   4
HETATM    4  C2  UNL     1       5.818  14.798 -39.089  1.00  0.00     0.029 C
HETATM    5  C1  UNL     1       5.932  13.913 -37.895  1.00  0.00     0.018 C
BRANCH   4   6
HETATM    6  C3  UNL     1       7.185  15.013 -39.668  1.00  0.00    -0.011 C
HETATM    7  C4  UNL     1       8.291  15.006 -38.941  1.00  0.00     0.052 C
HETATM    8 BR1  UNL     1       9.953  15.296 -39.826  1.00  0.00    -0.064 Br
ENDBRANCH   4   6
ENDBRANCH   1   4
BRANCH   2   9
HETATM    9  C7  UNL     1       3.161  14.719 -41.834  1.00  0.00     0.221 C
HETATM   10  O1  UNL     1       3.045  13.453 -41.889  1.00  0.00    -0.643 OA
HETATM   11  O2  UNL     1       2.392  15.480 -42.658  1.00  0.00    -0.643 OA
ENDBRANCH   2   9
TORSDOF 3
ENDMDL