MODEL 3
REMARK VINA RESULT: -5.734171971      2.645      4.064
REMARK  3 active torsions:
REMARK  status: ('A' for Active; 'I' for Inactive)
REMARK    1  A    between atoms: C2_2  and  C3_3
REMARK    2  A    between atoms: C3_3  and  C4_4
REMARK    3  A    between atoms: C5_5  and  C6_6
ROOT
HETATM    1  C4  UNL     1       0.413  14.112 -42.154  1.00  0.00     0.036 C
HETATM    2  C5  UNL     1       0.466  12.757 -42.772  1.00  0.00     0.079 C
HETATM    3  C7  UNL     1      -0.473  11.834 -42.042  1.00  0.00     0.017 C
HETATM    4  C8  UNL     1      -1.812  12.541 -41.794  1.00  0.00     0.059 C
HETATM    5  C9  UNL     1      -1.548  13.534 -40.691  1.00  0.00     0.230 A
HETATM    6 CL2  UNL     1      -2.084  13.014 -39.074  1.00  0.00    -0.086 Cl
HETATM    7  N1  UNL     1      -1.592  14.937 -40.929  1.00  0.00    -0.042 N
ATOM      8  H11 UNL     1      -2.000  15.748 -40.463  1.00  0.00     0.280 HD
ATOM      9  H12 UNL     1      -2.046  15.554 -41.603  1.00  0.00     0.280 HD
HETATM   10  C10 UNL     1      -0.299  14.194 -40.854  1.00  0.00     0.244 A
ENDROOT
BRANCH   1  11
HETATM   11  C3  UNL     1       1.835  14.627 -41.947  1.00  0.00     0.034 C
BRANCH  11  12
HETATM   12  C2  UNL     1       1.855  16.091 -41.682  1.00  0.00    -0.036 C
HETATM   13  C1  UNL     1       2.994  16.662 -41.340  1.00  0.00     0.007 C
ENDBRANCH  11  12
ENDBRANCH   1  11
BRANCH   2  14
HETATM   14  C6  UNL     1       0.223  12.787 -44.229  1.00  0.00     0.223 C
HETATM   15  O1  UNL     1       0.421  11.804 -44.924  1.00  0.00    -0.279 OA
HETATM   16 CL1  UNL     1      -0.359  14.240 -45.017  1.00  0.00    -0.043 Cl
ENDBRANCH   2  14
TORSDOF 3
ENDMDL