MODEL 3
REMARK VINA RESULT: -5.051679647      1.732      1.785
REMARK  2 active torsions:
REMARK  status: ('A' for Active; 'I' for Inactive)
REMARK       I    between atoms: C1_2  and  N1_3
REMARK    1  A    between atoms: C1_2  and  C7_10
REMARK    2  A    between atoms: N1_3  and  C2_5
ROOT
HETATM    1  O1  UNL     1      -0.088  14.222 -42.503  1.00  0.00    -0.271 OA
HETATM    2  C1  UNL     1       0.104  14.054 -41.270  1.00  0.00     0.247 C
HETATM    3  N1  UNL     1       1.393  14.259 -40.747  1.00  0.00    -0.354 N
ATOM      4  H1  UNL     1       1.551  14.124 -39.748  1.00  0.00     0.162 HD
ENDROOT
BRANCH   3   5
HETATM    5  C2  UNL     1       2.497  14.653 -41.584  1.00  0.00     0.084 C
HETATM    6  C3  UNL     1       3.739  13.905 -41.218  1.00  0.00     0.025 C
HETATM    7  C4  UNL     1       4.531  14.917 -40.416  1.00  0.00     0.002 C
HETATM    8  C5  UNL     1       4.306  16.168 -41.269  1.00  0.00     0.002 C
HETATM    9  C6  UNL     1       2.809  16.135 -41.442  1.00  0.00     0.025 C
ENDBRANCH   3   5
BRANCH   2  10
HETATM   10  C7  UNL     1      -1.056  13.648 -40.438  1.00  0.00     0.245 C
HETATM   11 CL1  UNL     1      -2.328  14.898 -40.670  1.00  0.00    -0.103 Cl
HETATM   12 BR1  UNL     1      -1.763  11.940 -40.996  1.00  0.00    -0.064 Br
ENDBRANCH   2  10
TORSDOF 2
ENDMDL