MODEL 3
REMARK VINA RESULT: -5.386683472      1.039      1.045
REMARK  3 active torsions:
REMARK  status: ('A' for Active; 'I' for Inactive)
REMARK    1  A    between atoms: C4_7  and  C5_8
REMARK    2  A    between atoms: C5_8  and  C6_9
REMARK    3  A    between atoms: C8_12  and  C9_13
ROOT
HETATM    1  C1  UNL     1      -2.173  14.641 -40.571  1.00  0.00     0.048 C
HETATM    2  C2  UNL     1      -1.336  13.494 -41.141  1.00  0.00     0.136 C
HETATM    3  C3  UNL     1      -1.763  12.205 -40.446  1.00  0.00     0.048 C
HETATM    4  N1  UNL     1       0.054  13.701 -40.802  1.00  0.00    -0.061 N
ATOM      5  H11 UNL     1       0.580  12.830 -40.870  1.00  0.00     0.278 HD
ATOM      6  H12 UNL     1       0.163  13.884 -39.804  1.00  0.00     0.278 HD
HETATM    7  C4  UNL     1       0.675  14.744 -41.589  1.00  0.00     0.188 C
HETATM    8  C7  UNL     1       0.719  14.370 -43.049  1.00  0.00     0.046 C
HETATM    9  C8  UNL     1      -0.282  13.295 -43.402  1.00  0.00     0.070 C
HETATM   10  C10 UNL     1      -1.565  13.441 -42.615  1.00  0.00     0.128 C
HETATM   11 CL2  UNL     1      -2.617  12.076 -43.053  1.00  0.00    -0.122 Cl
ENDROOT
BRANCH   7  12
HETATM   12  C5  UNL     1       2.107  14.848 -41.108  1.00  0.00     0.048 C
BRANCH  12  13
HETATM   13  C6  UNL     1       2.783  16.110 -41.593  1.00  0.00     0.116 C
HETATM   14 CL1  UNL     1       4.547  15.816 -41.492  1.00  0.00    -0.130 Cl
ENDBRANCH  12  13
ENDBRANCH   7  12
BRANCH   9  15
HETATM   15  C9  UNL     1      -0.560  13.396 -44.848  1.00  0.00     0.237 C
HETATM   16  O1  UNL     1      -0.131  12.565 -45.610  1.00  0.00    -0.306 OA
ENDBRANCH   9  15
TORSDOF 3
ENDMDL