MODEL 3
REMARK VINA RESULT: -6.033233528      1.077      1.379
REMARK  3 active torsions:
REMARK  status: ('A' for Active; 'I' for Inactive)
REMARK    1  A    between atoms: C3_3  and  N1_4
REMARK       I    between atoms: N1_4  and  C4_6
REMARK    2  A    between atoms: C4_6  and  C5_8
REMARK    3  A    between atoms: C6_9  and  C7_10
ROOT
HETATM    1  N1  UNL     1       0.166  13.458 -41.325  1.00  0.00    -0.349 N
ATOM      2  H1  UNL     1       0.225  13.752 -40.350  1.00  0.00     0.163 HD
HETATM    3  C4  UNL     1       1.314  13.498 -42.137  1.00  0.00     0.241 C
HETATM    4  O1  UNL     1       1.265  13.133 -43.369  1.00  0.00    -0.269 OA
ENDROOT
BRANCH   1   5
HETATM    5  C3  UNL     1      -1.087  13.008 -41.859  1.00  0.00     0.130 A
HETATM    6  C2  UNL     1      -2.369  13.643 -41.495  1.00  0.00     0.048 A
HETATM    7  C1  UNL     1      -2.425  14.912 -40.681  1.00  0.00     0.015 C
HETATM    8  C10 UNL     1      -2.006  12.396 -40.776  1.00  0.00     0.139 A
HETATM    9 CL1  UNL     1      -1.524  12.578 -39.085  1.00  0.00    -0.099 Cl
HETATM   10 CL2  UNL     1      -2.785  10.863 -41.204  1.00  0.00    -0.099 Cl
ENDBRANCH   1   5
BRANCH   3  11
HETATM   11  C5  UNL     1       2.599  13.943 -41.649  1.00  0.00     0.070 C
HETATM   12  C6  UNL     1       2.783  15.075 -41.028  1.00  0.00    -0.017 C
BRANCH  12  13
HETATM   13  C7  UNL     1       4.112  15.517 -40.531  1.00  0.00     0.008 A
HETATM   14  C8  UNL     1       4.387  16.981 -40.778  1.00  0.00     0.009 A
HETATM   15  C9  UNL     1       5.209  15.902 -41.438  1.00  0.00     0.009 A
ENDBRANCH  12  13
ENDBRANCH   3  11
TORSDOF 3
ENDMDL