MODEL 3
REMARK VINA RESULT: -4.991012220      1.849      2.660
REMARK  3 active torsions:
REMARK  status: ('A' for Active; 'I' for Inactive)
REMARK    1  A    between atoms: C2_2  and  C3_3
REMARK    2  A    between atoms: C5_7  and  C7_9
REMARK       I    between atoms: C7_9  and  N1_11
REMARK    3  A    between atoms: N1_11  and  C8_13
ROOT
HETATM    1  C3  UNL     1      -3.027  12.341 -41.361  1.00  0.00     0.046 A
HETATM    2  C4  UNL     1      -3.204  13.700 -42.036  1.00  0.00     0.134 A
HETATM    3 CL1  UNL     1      -2.752  13.824 -43.752  1.00  0.00    -0.100 Cl
HETATM    4 CL2  UNL     1      -4.520  14.754 -41.548  1.00  0.00    -0.100 Cl
HETATM    5  C5  UNL     1      -2.091  13.397 -41.037  1.00  0.00     0.079 A
HETATM    6  C6  UNL     1      -2.318  14.084 -39.677  1.00  0.00     0.029 C
ENDROOT
BRANCH   5   7
HETATM    7  C7  UNL     1      -0.746  13.581 -41.563  1.00  0.00     0.230 C
HETATM    8  O1  UNL     1      -0.085  12.613 -42.008  1.00  0.00    -0.273 OA
HETATM    9  N1  UNL     1      -0.083  14.851 -41.612  1.00  0.00    -0.356 N
ATOM     10  H1  UNL     1      -0.588  15.663 -41.258  1.00  0.00     0.162 HD
BRANCH   9  11
HETATM   11  C8  UNL     1       1.227  15.057 -42.119  1.00  0.00     0.084 A
HETATM   12  C9  UNL     1       2.448  14.877 -41.308  1.00  0.00     0.027 A
HETATM   13  C10 UNL     1       2.020  16.282 -41.654  1.00  0.00     0.027 A
ENDBRANCH   9  11
ENDBRANCH   5   7
BRANCH   1  14
HETATM   14  C2  UNL     1      -2.828  11.224 -42.321  1.00  0.00     0.004 C
HETATM   15  C1  UNL     1      -3.615  10.006 -41.814  1.00  0.00     0.005 C
ENDBRANCH   1  14
TORSDOF 3
ENDMDL