MODEL 1
REMARK VINA RESULT: -4.948929747      0.000      0.000
REMARK  3 active torsions:
REMARK  status: ('A' for Active; 'I' for Inactive)
REMARK    1  A    between atoms: C2_2  and  C3_3
REMARK    2  A    between atoms: N1_7  and  C7_8
REMARK    3  A    between atoms: C7_8  and  C8_9
ROOT
HETATM    1  C3  UNL     1       2.583  15.741 -41.908  1.00  0.00     0.032 C
HETATM    2  C4  UNL     1       2.488  17.020 -41.090  1.00  0.00     0.013 C
HETATM    3  C5  UNL     1       3.866  17.632 -41.050  1.00  0.00     0.045 C
HETATM    4  C6  UNL     1       4.928  16.686 -40.601  1.00  0.00     0.060 C
HETATM    5  N1  UNL     1       4.787  15.353 -41.034  1.00  0.00    -0.374 N
HETATM    6  C9  UNL     1       3.481  14.821 -41.119  1.00  0.00     0.185 C
HETATM    7 CL2  UNL     1       3.489  13.186 -41.797  1.00  0.00    -0.102 Cl
ENDROOT
BRANCH   1   8
HETATM    8  C2  UNL     1       1.220  15.130 -42.128  1.00  0.00    -0.037 A
HETATM    9  C1  UNL     1       0.865  14.688 -43.537  1.00  0.00     0.015 C
HETATM   10  C10 UNL     1       0.729  14.238 -41.031  1.00  0.00     0.010 A
HETATM   11  C11 UNL     1       0.102  15.600 -41.261  1.00  0.00     0.010 A
ENDBRANCH   1   8
BRANCH   5  12
HETATM   12  C7  UNL     1       5.810  14.440 -40.683  1.00  0.00     0.138 C
BRANCH  12  13
HETATM   13  C8  UNL     1       6.538  14.760 -39.418  1.00  0.00     0.134 C
HETATM   14 CL1  UNL     1       5.602  14.218 -38.021  1.00  0.00    -0.129 Cl
ENDBRANCH  12  13
ENDBRANCH   5  12
TORSDOF 3
ENDMDL