MODEL 1
REMARK VINA RESULT: -5.979277274      0.000      0.000
REMARK  3 active torsions:
REMARK  status: ('A' for Active; 'I' for Inactive)
REMARK    1  A    between atoms: C4_6  and  N1_7
REMARK       I    between atoms: N1_7  and  C5_8
REMARK    2  A    between atoms: C5_8  and  C6_10
REMARK    3  A    between atoms: C6_10  and  C7_11
ROOT
HETATM    1  N1  UNL     1       2.473  13.757 -42.033  1.00  0.00    -0.406 NA
HETATM    2  C5  UNL     1       1.290  13.538 -42.685  1.00  0.00     0.287 C
HETATM    3  O1  UNL     1       1.120  12.764 -43.669  1.00  0.00    -0.258 OA
ENDROOT
BRANCH   1   4
HETATM    4  C4  UNL     1       3.657  13.976 -41.379  1.00  0.00     0.211 A
HETATM    5  C2  UNL     1       3.990  15.476 -41.125  1.00  0.00     0.087 A
HETATM    6  C1  UNL     1       5.366  15.903 -41.566  1.00  0.00     0.037 C
HETATM    7 CL1  UNL     1       2.726  16.670 -41.518  1.00  0.00    -0.115 Cl
HETATM    8  C3  UNL     1       3.743  14.566 -40.009  1.00  0.00     0.146 A
HETATM    9 CL2  UNL     1       5.125  14.062 -39.017  1.00  0.00    -0.119 Cl
ENDBRANCH   1   4
BRANCH   2  10
HETATM   10  C6  UNL     1      -0.010  14.222 -42.286  1.00  0.00     0.123 C
BRANCH  10  11
HETATM   11  C7  UNL     1      -0.524  13.648 -41.018  1.00  0.00    -0.005 C
HETATM   12  C8  UNL     1      -1.805  14.262 -40.489  1.00  0.00     0.005 C
HETATM   13  C9  UNL     1      -2.159  12.860 -39.983  1.00  0.00     0.001 C
HETATM   14  C10 UNL     1      -1.304  12.348 -41.148  1.00  0.00     0.005 C
ENDBRANCH  10  11
ENDBRANCH   2  10
TORSDOF 3
ENDMDL