MODEL 2
REMARK VINA RESULT: -5.859501712      3.360      6.054
REMARK  3 active torsions:
REMARK  status: ('A' for Active; 'I' for Inactive)
REMARK    1  A    between atoms: C2_2  and  C3_3
REMARK       I    between atoms: C3_3  and  N1_5
REMARK    2  A    between atoms: N1_5  and  C4_7
REMARK    3  A    between atoms: C4_7  and  C5_8
ROOT
HETATM    1  C3  UNL     1       0.712  13.739 -42.262  1.00  0.00     0.229 C
HETATM    2  O1  UNL     1       1.096  14.202 -43.355  1.00  0.00    -0.273 OA
HETATM    3  N1  UNL     1       1.410  14.124 -41.103  1.00  0.00    -0.360 N
ATOM      4  H1  UNL     1       1.087  13.739 -40.215  1.00  0.00     0.162 HD
ENDROOT
BRANCH   1   5
HETATM    5  C2  UNL     1      -0.420  12.833 -42.210  1.00  0.00     0.075 A
HETATM    6  C1  UNL     1      -0.078  11.359 -42.432  1.00  0.00     0.029 C
HETATM    7  C9  UNL     1      -1.652  13.259 -43.006  1.00  0.00     0.065 A
HETATM    8  C10 UNL     1      -1.679  13.110 -41.502  1.00  0.00     0.130 A
HETATM    9 CL1  UNL     1      -2.541  11.709 -40.821  1.00  0.00    -0.100 Cl
HETATM   10 CL2  UNL     1      -1.948  14.617 -40.621  1.00  0.00    -0.100 Cl
ENDBRANCH   1   5
BRANCH   3  11
HETATM   11  C4  UNL     1       2.535  15.008 -41.061  1.00  0.00     0.127 C
BRANCH  11  12
HETATM   12  C5  UNL     1       3.860  14.304 -40.832  1.00  0.00     0.003 C
HETATM   13  C6  UNL     1       4.999  15.005 -41.557  1.00  0.00     0.006 C
HETATM   14  C7  UNL     1       5.728  15.079 -40.235  1.00  0.00     0.001 C
HETATM   15  C8  UNL     1       4.505  14.640 -39.501  1.00  0.00     0.006 C
ENDBRANCH  11  12
ENDBRANCH   3  11
TORSDOF 3
ENDMDL