MODEL 4
REMARK VINA RESULT: -6.247966595      1.915      5.720
REMARK  9 active torsions:
REMARK  status: ('A' for Active; 'I' for Inactive)
REMARK    1  A    between atoms: N1_1  and  C1_5
REMARK    2  A    between atoms: C1_5  and  C2_6
REMARK    3  A    between atoms: C2_6  and  C3_7
REMARK    4  A    between atoms: C3_7  and  C4_8
REMARK    5  A    between atoms: C4_8  and  N2_9
REMARK    6  A    between atoms: N2_9  and  C5_11
REMARK    7  A    between atoms: C5_11  and  C6_12
REMARK    8  A    between atoms: C9_15  and  C10_16
REMARK    9  A    between atoms: C10_16  and  C11_17
ROOT
HETATM    1  C6  UNL     1      25.962  -9.581  14.562  1.00  0.00     0.047 A
HETATM    2  C7  UNL     1      26.751 -10.655  14.164  1.00  0.00     0.021 A
HETATM    3  C8  UNL     1      27.919 -10.866  14.844  1.00  0.00     0.030 A
HETATM    4  C9  UNL     1      28.364 -10.089  15.894  1.00  0.00     0.035 A
HETATM    5  N3  UNL     1      27.580  -9.056  16.259  1.00  0.00    -0.323 N
ATOM      6  H3  UNL     1      27.862  -8.450  17.029  1.00  0.00     0.169 HD
HETATM    7  C17 UNL     1      26.427  -8.822  15.610  1.00  0.00     0.257 A
HETATM    8  O1  UNL     1      25.700  -7.838  15.972  1.00  0.00    -0.267 OA
ENDROOT
BRANCH   1   9
HETATM    9  C5  UNL     1      24.834  -9.365  13.917  1.00  0.00     0.100 C
BRANCH   9  10
HETATM   10  N2  UNL     1      24.776  -9.646  12.531  1.00  0.00    -0.398 N
ATOM     11  H2  UNL     1      24.564 -10.582  12.184  1.00  0.00     0.158 HD
BRANCH  10  12
HETATM   12  C4  UNL     1      25.031  -8.537  11.624  1.00  0.00     0.119 C
BRANCH  12  13
HETATM   13  C3  UNL     1      26.405  -8.676  11.008  1.00  0.00     0.021 C
BRANCH  13  14
HETATM   14  C2  UNL     1      27.334  -7.663  11.660  1.00  0.00     0.029 C
BRANCH  14  15
HETATM   15  C1  UNL     1      28.631  -8.317  12.087  1.00  0.00     0.229 C
BRANCH  15  16
HETATM   16  N1  UNL     1      29.148  -7.712  13.294  1.00  0.00    -0.079 N
ATOM     17  H13 UNL     1      29.603  -6.820  13.101  1.00  0.00     0.274 HD
ATOM     18  H12 UNL     1      28.397  -7.378  13.898  1.00  0.00     0.274 HD
ATOM     19  H11 UNL     1      29.770  -8.352  13.789  1.00  0.00     0.274 HD
ENDBRANCH  15  16
ENDBRANCH  14  15
ENDBRANCH  13  14
ENDBRANCH  12  13
ENDBRANCH  10  12
ENDBRANCH   9  10
ENDBRANCH   1   9
BRANCH   4  20
HETATM   20  C10 UNL     1      29.503 -10.368  16.490  1.00  0.00     0.041 C
BRANCH  20  21
HETATM   21  C11 UNL     1      30.811 -10.213  15.859  1.00  0.00    -0.034 A
HETATM   22  C12 UNL     1      31.417 -11.279  15.268  1.00  0.00     0.011 A
HETATM   23  C13 UNL     1      32.653 -11.171  14.668  1.00  0.00     0.001 A
HETATM   24  C14 UNL     1      33.273  -9.939  14.679  1.00  0.00     0.000 A
HETATM   25  C15 UNL     1      32.678  -8.849  15.271  1.00  0.00     0.001 A
HETATM   26  C16 UNL     1      31.434  -8.998  15.864  1.00  0.00     0.011 A
ENDBRANCH  20  21
ENDBRANCH   4  20
TORSDOF 9
ENDMDL