MODEL 1
REMARK VINA RESULT: -6.063587882      0.000      0.000
REMARK  9 active torsions:
REMARK  status: ('A' for Active; 'I' for Inactive)
REMARK    1  A    between atoms: N1_1  and  C1_4
REMARK    2  A    between atoms: C2_7  and  C3_8
REMARK    3  A    between atoms: C4_9  and  C5_10
REMARK    4  A    between atoms: C5_10  and  O1_11
REMARK    5  A    between atoms: O1_11  and  C6_12
REMARK    6  A    between atoms: C6_12  and  C7_13
REMARK    7  A    between atoms: C7_13  and  C8_14
REMARK    8  A    between atoms: C8_14  and  C9_15
REMARK    9  A    between atoms: C9_15  and  N3_16
ROOT
HETATM    1  C3  UNL     1      30.300  -8.315  13.706  1.00  0.00    -0.043 C
HETATM    2  C4  UNL     1      29.246  -8.033  13.201  1.00  0.00    -0.073 C
ENDROOT
BRANCH   1   3
HETATM    3  C2  UNL     1      31.562  -8.663  14.285  1.00  0.00     0.144 A
HETATM    4  N2  UNL     1      32.531  -9.478  13.805  1.00  0.00    -0.181 N
HETATM    5  C1  UNL     1      33.556  -9.533  14.660  1.00  0.00     0.678 A
ATOM      6  H2  UNL     1      32.484  -9.978  12.918  1.00  0.00     0.185 HD
HETATM    7  N5  UNL     1      33.240  -8.742  15.700  1.00  0.00    -0.176 N
HETATM    8  C13 UNL     1      32.015  -8.194  15.491  1.00  0.00     0.167 A
ATOM      9  H5  UNL     1      33.828  -8.579  16.517  1.00  0.00     0.185 HD
HETATM   10  N4  UNL     1      31.295  -7.304  16.327  1.00  0.00    -0.079 NA
BRANCH   5  11
HETATM   11  N1  UNL     1      34.671 -10.192  14.578  1.00  0.00    -0.234 N
ATOM     12  H12 UNL     1      34.837 -11.077  15.057  1.00  0.00     0.174 HD
ATOM     13  H11 UNL     1      35.524  -9.970  14.063  1.00  0.00     0.174 HD
ENDBRANCH   5  11
ENDBRANCH   1   3
BRANCH   2  14
HETATM   14  C5  UNL     1      27.926  -7.696  12.591  1.00  0.00     0.261 C
BRANCH  14  15
HETATM   15  O1  UNL     1      26.953  -7.608  13.543  1.00  0.00    -0.379 OA
BRANCH  15  16
HETATM   16  C6  UNL     1      26.338  -8.746  13.954  1.00  0.00     0.168 C
BRANCH  16  17
HETATM   17  C7  UNL     1      26.233  -8.774  15.462  1.00  0.00     0.028 C
BRANCH  17  18
HETATM   18  C8  UNL     1      27.019  -9.914  16.017  1.00  0.00     0.022 C
BRANCH  18  19
HETATM   19  C9  UNL     1      28.293  -9.560  16.683  1.00  0.00     0.128 C
BRANCH  19  20
HETATM   20  N3  UNL     1      29.365 -10.566  16.446  1.00  0.00    -0.360 N
HETATM   21  C10 UNL     1      30.387 -10.736  17.231  1.00  0.00     0.098 A
HETATM   22  C11 UNL     1      31.310 -11.694  16.889  1.00  0.00     0.068 A
HETATM   23  S1  UNL     1      30.660 -12.313  15.443  1.00  0.00    -0.095 SA
HETATM   24  C12 UNL     1      29.270 -11.333  15.352  1.00  0.00     0.140 A
ENDBRANCH  19  20
ENDBRANCH  18  19
ENDBRANCH  17  18
ENDBRANCH  16  17
ENDBRANCH  15  16
ENDBRANCH  14  15
ENDBRANCH   2  14
TORSDOF 9
ENDMDL