MODEL 5
REMARK VINA RESULT: -6.700887224      1.101      1.241
REMARK  9 active torsions:
REMARK  status: ('A' for Active; 'I' for Inactive)
REMARK    1  A    between atoms: N1_2  and  C3_4
REMARK    2  A    between atoms: C3_4  and  C4_5
REMARK    3  A    between atoms: C4_5  and  N2_6
REMARK    4  A    between atoms: N2_6  and  C5_8
REMARK    5  A    between atoms: C8_13  and  N4_14
REMARK    6  A    between atoms: N4_14  and  C9_16
REMARK    7  A    between atoms: C9_16  and  C10_17
REMARK    8  A    between atoms: C10_17  and  C11_18
REMARK    9  A    between atoms: C11_18  and  C12_19
ROOT
HETATM    1  C5  UNL     1      31.592  -7.639  13.789  1.00  0.00     0.679 A
HETATM    2  N3  UNL     1      32.688  -8.391  13.626  1.00  0.00    -0.202 N
ATOM      3  H3  UNL     1      33.245  -8.310  12.776  1.00  0.00     0.183 HD
HETATM    4  C6  UNL     1      33.045  -9.251  14.587  1.00  0.00     0.110 A
HETATM    5  C7  UNL     1      32.309  -9.381  15.745  1.00  0.00     0.066 A
HETATM    6  C8  UNL     1      31.183  -8.584  15.872  1.00  0.00     0.118 A
HETATM    7  N6  UNL     1      30.833  -7.729  14.910  1.00  0.00    -0.177 N
ATOM      8  H6  UNL     1      30.002  -7.148  15.017  1.00  0.00     0.185 HD
ENDROOT
BRANCH   6   9
HETATM    9  N4  UNL     1      30.480  -8.684  16.937  1.00  0.00    -0.376 N
ATOM     10  H4  UNL     1      30.442  -7.882  17.566  1.00  0.00     0.161 HD
BRANCH   9  11
HETATM   11  C9  UNL     1      29.746  -9.857  17.292  1.00  0.00     0.121 C
BRANCH  11  12
HETATM   12  C10 UNL     1      28.626 -10.161  16.321  1.00  0.00     0.024 C
BRANCH  12  13
HETATM   13  C11 UNL     1      27.360  -9.409  16.644  1.00  0.00     0.041 C
BRANCH  13  14
HETATM   14  C12 UNL     1      26.658  -9.159  15.355  1.00  0.00    -0.041 A
HETATM   15  C13 UNL     1      25.344  -9.398  15.012  1.00  0.00     0.025 A
HETATM   16  C14 UNL     1      25.097  -9.023  13.713  1.00  0.00     0.088 A
HETATM   17  N5  UNL     1      26.268  -8.540  13.233  1.00  0.00    -0.375 N
HETATM   18  C15 UNL     1      27.220  -8.611  14.196  1.00  0.00     0.094 A
ATOM     19  H5  UNL     1      26.411  -8.179  12.291  1.00  0.00     0.164 HD
ENDBRANCH  13  14
ENDBRANCH  12  13
ENDBRANCH  11  12
ENDBRANCH   9  11
ENDBRANCH   6   9
BRANCH   1  20
HETATM   20  N2  UNL     1      31.203  -6.799  12.903  1.00  0.00    -0.224 N
ATOM     21  H2  UNL     1      31.733  -5.948  12.717  1.00  0.00     0.177 HD
BRANCH  20  22
HETATM   22  C4  UNL     1      29.988  -7.096  12.173  1.00  0.00     0.168 C
BRANCH  22  23
HETATM   23  C3  UNL     1      30.107  -6.497  10.786  1.00  0.00     0.291 C
BRANCH  23  24
HETATM   24  N1  UNL     1      29.068  -5.514  10.636  1.00  0.00     0.081 N
HETATM   25  C1  UNL     1      27.835  -5.963  11.231  1.00  0.00     0.309 C
HETATM   26  C2  UNL     1      28.883  -5.253   9.234  1.00  0.00     0.309 C
ENDBRANCH  23  24
ENDBRANCH  22  23
ENDBRANCH  20  22
ENDBRANCH   1  20
TORSDOF 9
ENDMDL