MODEL 2
REMARK VINA RESULT: -7.062391003      2.036      3.619
REMARK  7 active torsions:
REMARK  status: ('A' for Active; 'I' for Inactive)
REMARK    1  A    between atoms: C4_4  and  N1_5
REMARK    2  A    between atoms: N1_5  and  C5_7
REMARK    3  A    between atoms: C5_7  and  C6_8
REMARK    4  A    between atoms: C6_8  and  C7_9
REMARK    5  A    between atoms: C7_9  and  N2_10
REMARK    6  A    between atoms: N6_17  and  C9_18
REMARK    7  A    between atoms: C9_18  and  C10_19
ROOT
HETATM    1  C1  UNL     1      26.829 -11.846  14.562  1.00  0.00     0.070 C
HETATM    2  C2  UNL     1      27.856 -10.954  15.156  1.00  0.00     0.028 A
HETATM    3  C3  UNL     1      29.099 -11.399  15.593  1.00  0.00     0.075 A
HETATM    4  C4  UNL     1      29.743 -10.280  16.067  1.00  0.00     0.117 A
HETATM    5  N5  UNL     1      28.898  -9.254  15.904  1.00  0.00    -0.283 N
ATOM      6  H5  UNL     1      29.107  -8.292  16.170  1.00  0.00     0.189 HD
HETATM    7  N6  UNL     1      27.756  -9.641  15.356  1.00  0.00    -0.291 N
ENDROOT
BRANCH   4   8
HETATM    8  N1  UNL     1      30.937 -10.278  16.567  1.00  0.00    -0.375 N
ATOM      9  H1  UNL     1      31.135  -9.640  17.337  1.00  0.00     0.161 HD
BRANCH   8  10
HETATM   10  C5  UNL     1      31.994 -11.118  16.100  1.00  0.00     0.123 C
BRANCH  10  11
HETATM   11  C6  UNL     1      32.475 -10.696  14.713  1.00  0.00     0.039 C
BRANCH  11  12
HETATM   12  C7  UNL     1      33.117  -9.340  14.749  1.00  0.00     0.123 C
BRANCH  12  13
HETATM   13  N2  UNL     1      32.508  -8.520  13.726  1.00  0.00    -0.367 N
HETATM   14  C8  UNL     1      31.715  -7.580  14.060  1.00  0.00     0.196 C
HETATM   15  N3  UNL     1      31.433  -7.342  15.418  1.00  0.00    -0.067 NA
HETATM   16  N4  UNL     1      31.102  -6.759  13.077  1.00  0.00    -0.067 NA
ATOM     17  H2  UNL     1      32.713  -8.693  12.742  1.00  0.00     0.161 HD
ENDBRANCH  12  13
ENDBRANCH  11  12
ENDBRANCH  10  11
ENDBRANCH   8  10
ENDBRANCH   4   8
BRANCH   7  18
HETATM   18  C9  UNL     1      26.645  -8.760  15.057  1.00  0.00     0.187 C
BRANCH  18  19
HETATM   19  C10 UNL     1      26.461  -8.543  13.600  1.00  0.00    -0.038 A
HETATM   20  C11 UNL     1      25.281  -8.899  12.982  1.00  0.00     0.009 A
HETATM   21  C12 UNL     1      25.051  -8.719  11.631  1.00  0.00     0.001 A
HETATM   22  C13 UNL     1      26.046  -8.159  10.855  1.00  0.00     0.000 A
HETATM   23  C14 UNL     1      27.225  -7.796  11.438  1.00  0.00     0.001 A
HETATM   24  C15 UNL     1      27.438  -7.986  12.802  1.00  0.00     0.009 A
ENDBRANCH  18  19
ENDBRANCH   7  18
TORSDOF 7
ENDMDL