MODEL 3
REMARK VINA RESULT: -6.435558426      0.968      1.069
REMARK  8 active torsions:
REMARK  status: ('A' for Active; 'I' for Inactive)
REMARK    1  A    between atoms: N1_1  and  N2_4
REMARK    2  A    between atoms: N2_4  and  C1_5
REMARK    3  A    between atoms: C1_5  and  C2_6
REMARK    4  A    between atoms: C2_6  and  N3_7
REMARK       I    between atoms: N3_7  and  C3_9
REMARK       I    between atoms: C3_9  and  N7_20
REMARK    5  A    between atoms: N4_10  and  C4_12
REMARK    6  A    between atoms: C4_12  and  C5_13
REMARK    7  A    between atoms: N7_20  and  C8_22
REMARK    8  A    between atoms: C8_22  and  C9_23
ROOT
HETATM    1  N3  UNL     1      29.106  -8.138  11.272  1.00  0.00    -0.221 N
ATOM      2  H3  UNL     1      29.769  -8.362  10.530  1.00  0.00     0.178 HD
HETATM    3  C3  UNL     1      28.441  -9.233  11.897  1.00  0.00     0.670 C
HETATM    4  N4  UNL     1      27.233  -9.463  11.573  1.00  0.00    -0.221 N
ATOM      5  H4  UNL     1      26.779  -8.865  10.883  1.00  0.00     0.178 HD
HETATM    6  N7  UNL     1      29.141 -10.024  12.845  1.00  0.00    -0.222 N
ATOM      7  H7  UNL     1      28.956 -11.023  12.936  1.00  0.00     0.178 HD
ENDROOT
BRANCH   1   8
HETATM    8  C2  UNL     1      28.931  -6.763  11.590  1.00  0.00     0.199 C
BRANCH   8   9
HETATM    9  C1  UNL     1      29.495  -5.922  10.522  1.00  0.00     0.201 C
BRANCH   9  10
HETATM   10  N2  UNL     1      30.598  -6.201  10.019  1.00  0.00    -0.348 NA
BRANCH  10  11
HETATM   11  N1  UNL     1      31.469  -6.711   9.283  1.00  0.00    -0.281 N
ATOM     12  H12 UNL     1      30.813  -7.171   8.651  1.00  0.00     0.191 HD
ATOM     13  H11 UNL     1      32.375  -6.973   8.896  1.00  0.00     0.191 HD
ENDBRANCH  10  11
ENDBRANCH   9  10
ENDBRANCH   8   9
ENDBRANCH   1   8
BRANCH   4  14
HETATM   14  C4  UNL     1      26.489 -10.553  12.161  1.00  0.00     0.196 C
BRANCH  14  15
HETATM   15  C5  UNL     1      25.878 -10.003  13.412  1.00  0.00     0.044 A
HETATM   16  C6  UNL     1      26.035 -10.618  14.629  1.00  0.00     0.115 A
HETATM   17  N5  UNL     1      25.380  -9.906  15.559  1.00  0.00    -0.360 N
HETATM   18  C7  UNL     1      24.824  -8.862  14.922  1.00  0.00     0.180 A
ATOM     19  H5  UNL     1      25.317 -10.116  16.555  1.00  0.00     0.166 HD
HETATM   20  N6  UNL     1      25.127  -8.918  13.605  1.00  0.00    -0.353 N
ATOM     21  H6  UNL     1      24.835  -8.252  12.890  1.00  0.00     0.166 HD
ENDBRANCH  14  15
ENDBRANCH   4  14
BRANCH   6  22
HETATM   22  C8  UNL     1      30.115  -9.375  13.669  1.00  0.00     0.176 C
BRANCH  22  23
HETATM   23  C9  UNL     1      30.497 -10.234  14.801  1.00  0.00    -0.040 A
HETATM   24  C10 UNL     1      31.400 -11.261  14.552  1.00  0.00     0.009 A
HETATM   25  C11 UNL     1      31.775 -12.062  15.602  1.00  0.00     0.001 A
HETATM   26  C12 UNL     1      31.302 -11.899  16.883  1.00  0.00     0.000 A
HETATM   27  C13 UNL     1      30.403 -10.859  17.074  1.00  0.00     0.001 A
HETATM   28  C14 UNL     1      29.991 -10.024  16.058  1.00  0.00     0.009 A
ENDBRANCH  22  23
ENDBRANCH   6  22
TORSDOF 8
ENDMDL