MODEL 4
REMARK VINA RESULT: -6.060326668      1.196      2.231
REMARK  8 active torsions:
REMARK  status: ('A' for Active; 'I' for Inactive)
REMARK    1  A    between atoms: C4_5  and  C5_6
REMARK    2  A    between atoms: C6_7  and  C7_8
REMARK    3  A    between atoms: C7_8  and  C8_9
REMARK    4  A    between atoms: C8_9  and  C9_10
REMARK    5  A    between atoms: C9_10  and  C10_11
REMARK    6  A    between atoms: C10_11  and  N2_12
REMARK    7  A    between atoms: N6_20  and  C13_22
REMARK    8  A    between atoms: C13_22  and  C14_23
ROOT
HETATM    1  C1  UNL     1      31.712  -7.849  16.086  1.00  0.00     0.038 C
HETATM    2  C2  UNL     1      31.030  -8.384  15.253  1.00  0.00     0.022 C
HETATM    3  N1  UNL     1      30.221  -8.979  14.275  1.00  0.00    -0.113 N
HETATM    4  C3  UNL     1      29.233  -8.340  13.592  1.00  0.00     0.164 A
HETATM    5  C4  UNL     1      28.619  -9.186  12.701  1.00  0.00     0.120 A
HETATM    6  N5  UNL     1      29.247 -10.357  12.849  1.00  0.00    -0.181 N
ATOM      7  H5  UNL     1      29.034 -11.209  12.331  1.00  0.00     0.185 HD
HETATM    8  C12 UNL     1      30.227 -10.235  13.810  1.00  0.00     0.697 A
HETATM    9  N6  UNL     1      30.948 -11.200  14.121  1.00  0.00    -0.201 N
ATOM     10  H6  UNL     1      30.706 -12.030  13.581  1.00  0.00     0.183 HD
ENDROOT
BRANCH   5  11
HETATM   11  C5  UNL     1      27.530  -8.874  11.802  1.00  0.00    -0.047 C
HETATM   12  C6  UNL     1      26.620  -8.632  11.047  1.00  0.00    -0.100 C
BRANCH  12  13
HETATM   13  C7  UNL     1      25.499  -8.359  10.118  1.00  0.00     0.094 C
BRANCH  13  14
HETATM   14  C8  UNL     1      25.586  -6.924   9.648  1.00  0.00     0.014 C
BRANCH  14  15
HETATM   15  C9  UNL     1      26.920  -6.677   9.010  1.00  0.00     0.021 C
BRANCH  15  16
HETATM   16  C10 UNL     1      27.474  -5.339   9.448  1.00  0.00     0.122 C
BRANCH  16  17
HETATM   17  N2  UNL     1      28.801  -5.551   9.986  1.00  0.00    -0.367 N
HETATM   18  C11 UNL     1      29.027  -5.486  11.243  1.00  0.00     0.196 C
HETATM   19  N3  UNL     1      27.975  -5.203  12.128  1.00  0.00    -0.067 NA
HETATM   20  N4  UNL     1      30.335  -5.699  11.729  1.00  0.00    -0.067 NA
ATOM     21  H2  UNL     1      29.570  -5.758   9.349  1.00  0.00     0.161 HD
ENDBRANCH  16  17
ENDBRANCH  15  16
ENDBRANCH  14  15
ENDBRANCH  13  14
ENDBRANCH  12  13
ENDBRANCH   5  11
BRANCH   9  22
HETATM   22  C13 UNL     1      31.996 -11.459  15.004  1.00  0.00     0.105 C
BRANCH  22  23
HETATM   23  C14 UNL     1      31.583 -12.139  16.268  1.00  0.00     0.007 C
HETATM   24  C15 UNL     1      30.524 -12.922  16.335  1.00  0.00     0.012 C
ENDBRANCH  22  23
ENDBRANCH   9  22
TORSDOF 8
ENDMDL