MODEL 3
REMARK VINA RESULT: -6.555276109      2.037      5.365
REMARK  9 active torsions:
REMARK  status: ('A' for Active; 'I' for Inactive)
REMARK    1  A    between atoms: C7_7  and  C8_8
REMARK    2  A    between atoms: C8_8  and  C9_9
REMARK    3  A    between atoms: C9_9  and  C10_10
REMARK    4  A    between atoms: C10_10  and  N1_11
REMARK    5  A    between atoms: N1_11  and  C11_13
REMARK    6  A    between atoms: C14_18  and  N3_19
REMARK    7  A    between atoms: N3_19  and  C15_21
REMARK    8  A    between atoms: C15_21  and  C16_22
REMARK    9  A    between atoms: C16_22  and  N4_23
ROOT
HETATM    1  C1  UNL     1      29.325  -7.232  10.555  1.00  0.00     0.018 C
HETATM    2  C2  UNL     1      28.552  -7.975  11.106  1.00  0.00    -0.078 C
HETATM    3  C3  UNL     1      27.612  -8.850  11.751  1.00  0.00     0.017 A
HETATM    4  C4  UNL     1      27.496 -10.142  11.280  1.00  0.00     0.020 A
HETATM    5  C5  UNL     1      26.599 -11.004  11.882  1.00  0.00     0.002 A
HETATM    6  C6  UNL     1      25.832 -10.559  12.947  1.00  0.00     0.007 A
HETATM    7  C7  UNL     1      25.941  -9.281  13.420  1.00  0.00    -0.057 A
HETATM    8  C17 UNL     1      26.851  -8.404  12.811  1.00  0.00     0.027 A
ENDROOT
BRANCH   7   9
HETATM    9  C8  UNL     1      25.130  -8.832  14.551  1.00  0.00     0.040 C
BRANCH   9  10
HETATM   10  C9  UNL     1      25.869  -8.381  15.755  1.00  0.00     0.024 C
BRANCH  10  11
HETATM   11  C10 UNL     1      26.812  -9.379  16.358  1.00  0.00     0.121 C
BRANCH  11  12
HETATM   12  N1  UNL     1      28.180  -9.083  16.090  1.00  0.00    -0.376 N
ATOM     13  H1  UNL     1      28.448  -8.101  16.030  1.00  0.00     0.161 HD
BRANCH  12  14
HETATM   14  C11 UNL     1      29.104  -9.963  15.918  1.00  0.00     0.118 A
HETATM   15  C12 UNL     1      28.818 -11.208  15.397  1.00  0.00     0.066 A
HETATM   16  C13 UNL     1      29.839 -12.112  15.234  1.00  0.00     0.110 A
HETATM   17  N2  UNL     1      31.109 -11.783  15.579  1.00  0.00    -0.202 N
HETATM   18  C14 UNL     1      31.370 -10.564  16.085  1.00  0.00     0.679 A
ATOM     19  H2  UNL     1      31.864 -12.458  15.456  1.00  0.00     0.183 HD
HETATM   20  N5  UNL     1      30.376  -9.676  16.248  1.00  0.00    -0.177 N
ATOM     21  H5  UNL     1      30.591  -8.757  16.634  1.00  0.00     0.185 HD
BRANCH  18  22
HETATM   22  N3  UNL     1      32.573 -10.213  16.428  1.00  0.00    -0.224 N
ATOM     23  H3  UNL     1      33.080 -10.728  17.147  1.00  0.00     0.177 HD
BRANCH  22  24
HETATM   24  C15 UNL     1      33.177  -9.077  15.770  1.00  0.00     0.165 C
BRANCH  24  25
HETATM   25  C16 UNL     1      33.659  -9.563  14.411  1.00  0.00     0.249 C
BRANCH  25  26
HETATM   26  N4  UNL     1      33.297  -8.539  13.433  1.00  0.00    -0.078 N
ATOM     27  H43 UNL     1      32.521  -8.817  12.833  1.00  0.00     0.274 HD
ATOM     28  H42 UNL     1      32.852  -7.724  13.855  1.00  0.00     0.274 HD
ATOM     29  H41 UNL     1      34.142  -8.308  12.911  1.00  0.00     0.274 HD
ENDBRANCH  25  26
ENDBRANCH  24  25
ENDBRANCH  22  24
ENDBRANCH  18  22
ENDBRANCH  12  14
ENDBRANCH  11  12
ENDBRANCH  10  11
ENDBRANCH   9  10
ENDBRANCH   7   9
TORSDOF 9
ENDMDL