MODEL 5
REMARK VINA RESULT: -7.137560630      1.116      1.317
REMARK  7 active torsions:
REMARK  status: ('A' for Active; 'I' for Inactive)
REMARK    1  A    between atoms: C3_3  and  C4_4
REMARK    2  A    between atoms: C4_4  and  N1_5
REMARK    3  A    between atoms: N1_5  and  C5_7
REMARK    4  A    between atoms: C7_14  and  N4_15
REMARK    5  A    between atoms: N4_15  and  C8_17
REMARK    6  A    between atoms: C8_17  and  C9_18
REMARK    7  A    between atoms: C9_18  and  C10_19
ROOT
HETATM    1  C1  UNL     1      27.260  -5.723   9.929  1.00  0.00     0.012 C
HETATM    2  C2  UNL     1      28.374  -5.923  10.343  1.00  0.00    -0.116 C
HETATM    3  C3  UNL     1      29.729  -6.148  10.822  1.00  0.00     0.113 C
ENDROOT
BRANCH   3   4
HETATM    4  C4  UNL     1      29.784  -7.134  11.989  1.00  0.00     0.150 C
BRANCH   4   5
HETATM    5  N1  UNL     1      30.885  -6.897  12.864  1.00  0.00    -0.225 N
ATOM      6  H1  UNL     1      31.358  -5.997  12.773  1.00  0.00     0.177 HD
BRANCH   5   7
HETATM    7  C5  UNL     1      31.338  -7.694  13.746  1.00  0.00     0.696 A
HETATM    8  N2  UNL     1      32.546  -8.259  13.617  1.00  0.00    -0.140 N
HETATM    9  C6  UNL     1      33.044  -9.108  14.548  1.00  0.00     0.352 A
ATOM     10  H2  UNL     1      33.107  -8.044  12.792  1.00  0.00     0.189 HD
HETATM   11  O1  UNL     1      34.188  -9.601  14.357  1.00  0.00    -0.246 OA
HETATM   12  N3  UNL     1      32.301  -9.381  15.620  1.00  0.00    -0.140 N
HETATM   13  C7  UNL     1      31.100  -8.848  15.797  1.00  0.00     0.696 A
ATOM     14  H3  UNL     1      32.667 -10.019  16.325  1.00  0.00     0.189 HD
HETATM   15  N5  UNL     1      30.627  -8.008  14.860  1.00  0.00    -0.022 N
ATOM     16  H5  UNL     1      29.704  -7.593  14.989  1.00  0.00     0.203 HD
BRANCH  13  17
HETATM   17  N4  UNL     1      30.349  -9.083  16.816  1.00  0.00    -0.225 N
ATOM     18  H4  UNL     1      30.450  -8.475  17.628  1.00  0.00     0.177 HD
BRANCH  17  19
HETATM   19  C8  UNL     1      29.379 -10.140  16.892  1.00  0.00     0.142 C
BRANCH  19  20
HETATM   20  C9  UNL     1      28.037  -9.525  17.315  1.00  0.00     0.058 C
BRANCH  20  21
HETATM   21  C10 UNL     1      27.168  -9.586  16.110  1.00  0.00    -0.057 A
HETATM   22  C11 UNL     1      26.154  -8.656  16.016  1.00  0.00     0.007 A
HETATM   23  C12 UNL     1      25.320  -8.674  14.911  1.00  0.00     0.001 A
HETATM   24  C13 UNL     1      25.494  -9.605  13.912  1.00  0.00     0.000 A
HETATM   25  C14 UNL     1      26.517 -10.511  14.052  1.00  0.00     0.001 A
HETATM   26  C15 UNL     1      27.376 -10.536  15.132  1.00  0.00     0.007 A
ENDBRANCH  20  21
ENDBRANCH  19  20
ENDBRANCH  17  19
ENDBRANCH  13  17
ENDBRANCH   5   7
ENDBRANCH   4   5
ENDBRANCH   3   4
TORSDOF 7
ENDMDL