MODEL 4
REMARK VINA RESULT: -6.875876874      1.685      4.671
REMARK  7 active torsions:
REMARK  status: ('A' for Active; 'I' for Inactive)
REMARK    1  A    between atoms: C1_4  and  C2_6
REMARK    2  A    between atoms: N3_10  and  C6_11
REMARK    3  A    between atoms: C6_11  and  C7_12
REMARK    4  A    between atoms: C7_12  and  C8_13
REMARK    5  A    between atoms: C8_13  and  N4_14
REMARK    6  A    between atoms: C11_17  and  C12_18
REMARK    7  A    between atoms: N5_19  and  O1_21
ROOT
HETATM    1  C7  UNL     1      28.415 -13.307  15.267  1.00  0.00     0.040 C
ENDROOT
BRANCH   1   2
HETATM    2  C6  UNL     1      27.793 -12.671  14.109  1.00  0.00     0.129 C
BRANCH   2   3
HETATM    3  N3  UNL     1      27.329 -11.321  14.231  1.00  0.00    -0.365 N
HETATM    4  C5  UNL     1      26.337 -10.943  15.023  1.00  0.00     0.090 A
HETATM    5  C4  UNL     1      25.936  -9.608  15.125  1.00  0.00     0.018 A
HETATM    6  C3  UNL     1      26.578  -8.635  14.389  1.00  0.00     0.017 A
HETATM    7  C2  UNL     1      27.611  -9.007  13.559  1.00  0.00     0.020 A
HETATM    8  C15 UNL     1      27.947 -10.346  13.514  1.00  0.00     0.105 A
BRANCH   7   9
HETATM    9  C1  UNL     1      28.348  -8.048  12.741  1.00  0.00     0.121 C
HETATM   10  N1  UNL     1      29.368  -8.388  12.079  1.00  0.00    -0.387 N
ATOM     11  H12 UNL     1      29.883  -7.718  11.508  1.00  0.00     0.157 HD
ATOM     12  H11 UNL     1      29.681  -9.358  12.120  1.00  0.00     0.157 HD
HETATM   13  N2  UNL     1      27.911  -6.694  12.683  1.00  0.00    -0.082 NA
ENDBRANCH   7   9
ENDBRANCH   2   3
ENDBRANCH   1   2
BRANCH   1  14
HETATM   14  C8  UNL     1      29.814 -13.147  15.653  1.00  0.00     0.129 C
BRANCH  14  15
HETATM   15  N4  UNL     1      30.228 -11.776  15.790  1.00  0.00    -0.366 N
HETATM   16  C9  UNL     1      29.801 -10.871  16.660  1.00  0.00     0.091 A
HETATM   17  C10 UNL     1      30.290  -9.588  16.730  1.00  0.00     0.030 A
HETATM   18  C11 UNL     1      31.298  -9.137  15.865  1.00  0.00    -0.016 A
HETATM   19  C13 UNL     1      31.738 -10.071  14.965  1.00  0.00     0.030 A
HETATM   20  C14 UNL     1      31.213 -11.340  14.941  1.00  0.00     0.091 A
BRANCH  18  21
HETATM   21  C12 UNL     1      31.774  -7.777  15.983  1.00  0.00     0.125 C
HETATM   22  N5  UNL     1      31.831  -6.910  15.100  1.00  0.00    -0.280 N
ATOM     23  H5  UNL     1      32.206  -6.014  15.410  1.00  0.00     0.193 HD
BRANCH  22  24
HETATM   24  O1  UNL     1      31.486  -6.950  13.824  1.00  0.00    -0.290 OA
ATOM     25  H1  UNL     1      30.648  -6.808  13.401  1.00  0.00     0.244 HD
ENDBRANCH  22  24
ENDBRANCH  18  21
ENDBRANCH  14  15
ENDBRANCH   1  14
TORSDOF 7
ENDMDL