MODEL 4
REMARK VINA RESULT: -6.689481379      2.063      4.637
REMARK  7 active torsions:
REMARK  status: ('A' for Active; 'I' for Inactive)
REMARK    1  A    between atoms: N1_1  and  C1_5
REMARK    2  A    between atoms: C1_5  and  C2_6
REMARK    3  A    between atoms: C3_7  and  C4_8
REMARK    4  A    between atoms: N3_14  and  C7_15
REMARK    5  A    between atoms: C7_15  and  C8_16
REMARK    6  A    between atoms: C8_16  and  N4_17
REMARK    7  A    between atoms: N4_17  and  C9_19
ROOT
HETATM    1  C4  UNL     1      28.432 -11.478  13.964  1.00  0.00     0.127 C
HETATM    2  C5  UNL     1      27.338 -12.249  14.587  1.00  0.00     0.151 C
HETATM    3  N2  UNL     1      26.140 -11.421  14.444  1.00  0.00    -0.365 N
ATOM      4  H2  UNL     1      25.169 -11.733  14.417  1.00  0.00     0.161 HD
HETATM    5  C6  UNL     1      26.627 -10.077  14.351  1.00  0.00     0.170 C
HETATM    6  S1  UNL     1      25.915  -8.745  14.933  1.00  0.00    -0.041 SA
HETATM    7  N3  UNL     1      27.846 -10.151  13.643  1.00  0.00    -0.347 N
ENDROOT
BRANCH   7   8
HETATM    8  C7  UNL     1      28.522  -9.302  12.723  1.00  0.00     0.145 C
BRANCH   8   9
HETATM    9  C8  UNL     1      28.933  -7.944  13.110  1.00  0.00     0.141 C
BRANCH   9  10
HETATM   10  N4  UNL     1      30.359  -7.809  13.088  1.00  0.00    -0.375 N
ATOM     11  H4  UNL     1      30.781  -7.498  12.214  1.00  0.00     0.161 HD
BRANCH  10  12
HETATM   12  C9  UNL     1      31.160  -8.045  14.074  1.00  0.00     0.100 A
HETATM   13  C10 UNL     1      32.097  -9.019  13.961  1.00  0.00     0.048 A
HETATM   14  C11 UNL     1      32.979  -9.303  15.008  1.00  0.00     0.005 A
HETATM   15  C12 UNL     1      32.895  -8.582  16.173  1.00  0.00     0.017 A
HETATM   16  C13 UNL     1      31.927  -7.605  16.235  1.00  0.00     0.089 A
HETATM   17  N5  UNL     1      31.100  -7.356  15.220  1.00  0.00    -0.353 N
ATOM     18  H5  UNL     1      30.401  -6.620  15.319  1.00  0.00     0.166 HD
ENDBRANCH  10  12
ENDBRANCH   9  10
ENDBRANCH   8   9
ENDBRANCH   7   8
BRANCH   1  19
HETATM   19  C3  UNL     1      29.678 -11.316  14.734  1.00  0.00    -0.003 C
HETATM   20  C2  UNL     1      29.774 -11.041  16.147  1.00  0.00    -0.002 C
BRANCH  20  21
HETATM   21  C1  UNL     1      29.205  -9.917  16.882  1.00  0.00     0.256 C
BRANCH  21  22
HETATM   22  N1  UNL     1      29.705  -9.711  18.200  1.00  0.00    -0.076 N
ATOM     23  H13 UNL     1      30.358 -10.456  18.442  1.00  0.00     0.274 HD
ATOM     24  H12 UNL     1      30.330  -8.906  18.210  1.00  0.00     0.274 HD
ATOM     25  H11 UNL     1      29.006  -9.614  18.937  1.00  0.00     0.274 HD
ENDBRANCH  21  22
ENDBRANCH  20  21
ENDBRANCH   1  19
TORSDOF 7
ENDMDL