MODEL 1
REMARK VINA RESULT: -7.729623495      0.000      0.000
REMARK  9 active torsions:
REMARK  status: ('A' for Active; 'I' for Inactive)
REMARK    1  A    between atoms: N1_2  and  C2_4
REMARK    2  A    between atoms: C4_10  and  N4_11
REMARK    3  A    between atoms: N5_14  and  C7_15
REMARK    4  A    between atoms: C7_15  and  C8_16
REMARK    5  A    between atoms: C8_16  and  O1_17
REMARK    6  A    between atoms: C11_23  and  N7_24
REMARK    7  A    between atoms: N7_24  and  N8_26
REMARK    8  A    between atoms: C12_28  and  C14_30
REMARK    9  A    between atoms: C14_30  and  C15_31
ROOT
HETATM    1  C2  UNL     1      -1.443   4.547  12.021  1.00  0.00     0.146 A
HETATM    2  N2  UNL     1      -0.151   4.690  12.287  1.00  0.00    -0.321 N
ATOM      3  H2  UNL     1       0.153   5.190  13.122  1.00  0.00     0.169 HD
HETATM    4  C3  UNL     1       0.723   4.181  11.461  1.00  0.00     0.144 A
HETATM    5  N3  UNL     1       2.092   4.219  11.551  1.00  0.00    -0.175 N
ATOM      6  H3  UNL     1       2.509   4.697  12.351  1.00  0.00     0.186 HD
HETATM    7  C4  UNL     1       2.905   3.668  10.653  1.00  0.00     0.683 A
HETATM    8  N6  UNL     1       2.447   3.016   9.562  1.00  0.00    -0.174 N
ATOM      9  H6  UNL     1       3.083   2.598   8.882  1.00  0.00     0.186 HD
HETATM   10  C11 UNL     1       1.115   2.944   9.415  1.00  0.00     0.156 A
HETATM   11  C22 UNL     1       0.252   3.523  10.358  1.00  0.00     0.099 A
HETATM   12  S1  UNL     1      -1.438   3.663  10.555  1.00  0.00    -0.047 SA
ENDROOT
BRANCH  10  13
HETATM   13  N7  UNL     1       0.570   2.350   8.422  1.00  0.00    -0.284 N
ATOM     14  H7  UNL     1      -0.271   1.814   8.638  1.00  0.00     0.188 HD
BRANCH  13  15
HETATM   15  N8  UNL     1       0.957   2.332   7.113  1.00  0.00    -0.307 N
HETATM   16  C12 UNL     1       1.255   1.296   6.424  1.00  0.00     0.004 C
HETATM   17  C13 UNL     1       1.653   1.472   5.015  1.00  0.00     0.065 C
ATOM     18  H8  UNL     1       1.013   3.232   6.637  1.00  0.00     0.186 HD
BRANCH  16  19
HETATM   19  C14 UNL     1       1.199  -0.029   7.026  1.00  0.00     0.087 C
BRANCH  19  20
HETATM   20  C15 UNL     1       2.398  -0.406   7.795  1.00  0.00    -0.078 C
HETATM   21  C16 UNL     1       2.162  -0.632   9.085  1.00  0.00    -0.024 C
HETATM   22  C17 UNL     1       3.037  -1.023  10.204  1.00  0.00     0.027 C
HETATM   23  C18 UNL     1       4.322  -0.229  10.250  1.00  0.00     0.004 C
HETATM   24  C19 UNL     1       5.194  -0.736   9.116  1.00  0.00     0.001 C
HETATM   25  C20 UNL     1       4.841   0.088   7.899  1.00  0.00     0.004 C
HETATM   26  C21 UNL     1       3.701  -0.500   7.110  1.00  0.00     0.034 C
ENDBRANCH  19  20
ENDBRANCH  16  19
ENDBRANCH  13  15
ENDBRANCH  10  13
BRANCH   7  27
HETATM   27  N4  UNL     1       4.342   3.764  10.826  1.00  0.00    -0.214 N
HETATM   28  C5  UNL     1       5.189   3.225   9.788  1.00  0.00     0.161 C
HETATM   29  C6  UNL     1       6.511   2.809  10.446  1.00  0.00     0.142 C
HETATM   30  N5  UNL     1       7.151   3.942  11.013  1.00  0.00    -0.388 N
HETATM   31  C9  UNL     1       6.352   4.789  11.818  1.00  0.00     0.142 C
HETATM   32  C10 UNL     1       4.910   4.368  11.974  1.00  0.00     0.161 C
BRANCH  30  33
HETATM   33  C7  UNL     1       8.525   3.847  11.313  1.00  0.00     0.084 C
BRANCH  33  34
HETATM   34  C8  UNL     1       9.291   2.988  10.342  1.00  0.00     0.208 C
BRANCH  34  35
HETATM   35  O1  UNL     1      10.587   3.410  10.185  1.00  0.00    -0.396 OA
ATOM     36  H1  UNL     1      11.113   2.785   9.700  1.00  0.00     0.209 HD
ENDBRANCH  34  35
ENDBRANCH  33  34
ENDBRANCH  30  33
ENDBRANCH   7  27
BRANCH   1  37
HETATM   37  N1  UNL     1      -2.471   4.978  12.716  1.00  0.00    -0.375 N
HETATM   38  C1  UNL     1      -2.678   6.401  12.789  1.00  0.00     0.148 C
ATOM     39  H1  UNL     1      -3.100   4.328  13.188  1.00  0.00     0.161 HD
ENDBRANCH   1  37
TORSDOF 9
ENDMDL