MODEL 4
REMARK VINA RESULT: -6.764737526      2.195      4.120
REMARK  7 active torsions:
REMARK  status: ('A' for Active; 'I' for Inactive)
REMARK    1  A    between atoms: O1_2  and  C2_3
REMARK    2  A    between atoms: C2_3  and  C3_7
REMARK    3  A    between atoms: C8_15  and  C9_16
REMARK    4  A    between atoms: C9_16  and  C10_17
REMARK    5  A    between atoms: C10_17  and  O4_18
REMARK    6  A    between atoms: O4_18  and  C11_19
REMARK    7  A    between atoms: C14_22  and  C16_24
ROOT
HETATM    1  C3  UNL     1       2.700   3.208   8.797  1.00  0.00     0.237 C
HETATM    2  N2  UNL     1       2.397   1.845   8.498  1.00  0.00    -0.289 N
HETATM    3  C4  UNL     1       2.165   1.293   9.792  1.00  0.00     0.366 C
HETATM    4  O2  UNL     1       2.072   0.120  10.228  1.00  0.00    -0.238 OA
HETATM    5  O3  UNL     1       2.021   2.359  10.715  1.00  0.00    -0.289 OA
HETATM    6  C5  UNL     1       1.703   3.480   9.865  1.00  0.00     0.113 C
HETATM    7  C6  UNL     1       1.872   4.777  10.601  1.00  0.00     0.050 C
HETATM    8  C7  UNL     1       0.274   3.306   9.506  1.00  0.00     0.050 C
HETATM    9  C8  UNL     1       2.350   1.171   7.214  1.00  0.00     0.109 C
HETATM   10  C14 UNL     1       2.473   1.981   6.012  1.00  0.00     0.034 C
HETATM   11  C15 UNL     1       1.203   2.475   5.378  1.00  0.00     0.025 C
HETATM   12  C19 UNL     1       3.341   3.257   6.128  1.00  0.00     0.161 C
HETATM   13  S1  UNL     1       2.768   4.279   7.451  1.00  0.00     0.183 S
HETATM   14  O5  UNL     1       1.558   5.071   7.155  1.00  0.00    -0.225 OA
HETATM   15  O6  UNL     1       3.872   5.315   7.731  1.00  0.00    -0.225 OA
ENDROOT
BRANCH  10  16
HETATM   16  C16 UNL     1       3.292   1.217   4.983  1.00  0.00     0.053 A
HETATM   17  C17 UNL     1       3.206   1.443   3.614  1.00  0.00     0.132 A
HETATM   18  N3  UNL     1       4.018   0.614   2.952  1.00  0.00    -0.200 N
HETATM   19  C18 UNL     1       4.638  -0.156   3.899  1.00  0.00     0.675 A
ATOM     20  H3  UNL     1       4.151   0.565   1.942  1.00  0.00     0.183 HD
HETATM   21  N4  UNL     1       5.446  -1.059   3.748  1.00  0.00    -0.234 N
HETATM   22  N5  UNL     1       4.165   0.245   5.128  1.00  0.00    -0.194 N
ATOM     23  H42 UNL     1       5.795  -1.355   2.838  1.00  0.00     0.174 HD
ATOM     24  H41 UNL     1       5.907  -1.633   4.454  1.00  0.00     0.174 HD
ATOM     25  H5  UNL     1       4.451  -0.154   6.022  1.00  0.00     0.184 HD
ENDBRANCH  10  16
BRANCH   9  26
HETATM   26  C9  UNL     1       1.202   0.258   7.249  1.00  0.00     0.053 C
BRANCH  26  27
HETATM   27  C10 UNL     1       1.349  -1.237   7.156  1.00  0.00     0.170 C
BRANCH  27  28
HETATM   28  O4  UNL     1       2.674  -1.533   7.026  1.00  0.00    -0.387 OA
BRANCH  28  29
HETATM   29  C11 UNL     1       3.441  -2.163   7.876  1.00  0.00     0.113 C
HETATM   30  C12 UNL     1       4.676  -1.422   8.355  1.00  0.00     0.039 C
HETATM   31  C13 UNL     1       4.006  -3.402   7.126  1.00  0.00     0.039 C
ENDBRANCH  28  29
ENDBRANCH  27  28
ENDBRANCH  26  27
ENDBRANCH   9  26
BRANCH   1  32
HETATM   32  C2  UNL     1       4.052   3.209   9.466  1.00  0.00     0.159 C
HETATM   33  N1  UNL     1       4.331   4.057  10.375  1.00  0.00    -0.380 N
ATOM     34  H12 UNL     1       5.245   4.058  10.827  1.00  0.00     0.158 HD
ATOM     35  H11 UNL     1       3.605   4.727  10.629  1.00  0.00     0.158 HD
BRANCH  32  36
HETATM   36  O1  UNL     1       5.040   2.298   9.120  1.00  0.00    -0.342 OA
HETATM   37  C1  UNL     1       5.904   1.718  10.080  1.00  0.00     0.211 C
ENDBRANCH  32  36
ENDBRANCH   1  32
TORSDOF 7
ENDMDL