MODEL 4
REMARK VINA RESULT: -6.914935167      1.453      1.561
REMARK  8 active torsions:
REMARK  status: ('A' for Active; 'I' for Inactive)
REMARK    1  A    between atoms: C2_2  and  C3_3
REMARK    2  A    between atoms: N2_6  and  C4_7
REMARK    3  A    between atoms: C12_17  and  S2_18
REMARK    4  A    between atoms: S2_18  and  C13_19
REMARK    5  A    between atoms: C15_21  and  C16_22
REMARK       I    between atoms: C16_22  and  N3_24
REMARK    6  A    between atoms: N3_24  and  C17_26
REMARK    7  A    between atoms: C17_26  and  C18_27
REMARK    8  A    between atoms: C18_27  and  O3_28
ROOT
HETATM    1  C3  UNL     1       3.280   1.805   5.217  1.00  0.00     0.039 A
HETATM    2  N1  UNL     1       3.938   1.937   4.024  1.00  0.00    -0.298 N
ATOM      3  H1  UNL     1       3.925   2.838   3.546  1.00  0.00     0.187 HD
HETATM    4  N2  UNL     1       4.575   0.949   3.486  1.00  0.00    -0.248 N
HETATM    5  C8  UNL     1       4.590  -0.239   4.122  1.00  0.00     0.275 A
HETATM    6  O1  UNL     1       5.228  -1.154   3.548  1.00  0.00    -0.266 OA
HETATM    7  C9  UNL     1       3.931  -0.438   5.352  1.00  0.00     0.060 A
HETATM    8  C10 UNL     1       3.953  -1.627   6.024  1.00  0.00    -0.003 A
HETATM    9  C11 UNL     1       4.612  -2.929   5.645  1.00  0.00     0.057 C
HETATM   10  S1  UNL     1       3.054  -1.328   7.417  1.00  0.00    -0.086 SA
HETATM   11  C12 UNL     1       2.654   0.334   7.118  1.00  0.00     0.055 A
HETATM   12  C21 UNL     1       3.260   0.584   5.921  1.00  0.00     0.028 A
ENDROOT
BRANCH  11  13
HETATM   13  S2  UNL     1       1.668   1.371   8.224  1.00  0.00    -0.115 SA
BRANCH  13  14
HETATM   14  C13 UNL     1       2.771   2.070   9.475  1.00  0.00     0.085 C
HETATM   15  C14 UNL     1       4.203   1.844   9.037  1.00  0.00     0.060 C
HETATM   16  C15 UNL     1       4.849   3.207   9.058  1.00  0.00     0.278 C
HETATM   17  N4  UNL     1       3.769   4.136   9.074  1.00  0.00    -0.057 N
HETATM   18  C19 UNL     1       2.657   3.507   9.747  1.00  0.00     0.197 C
ATOM     19  H42 UNL     1       4.024   5.034   9.486  1.00  0.00     0.278 HD
ATOM     20  H41 UNL     1       3.527   4.478   8.145  1.00  0.00     0.278 HD
HETATM   21  C20 UNL     1       2.767   3.851  11.231  1.00  0.00     0.041 C
BRANCH  16  22
HETATM   22  C16 UNL     1       5.878   3.381  10.070  1.00  0.00     0.248 C
HETATM   23  O2  UNL     1       5.987   4.517  10.641  1.00  0.00    -0.271 OA
HETATM   24  N3  UNL     1       6.781   2.355  10.475  1.00  0.00    -0.357 N
ATOM     25  H3  UNL     1       6.703   1.442  10.025  1.00  0.00     0.162 HD
BRANCH  24  26
HETATM   26  C17 UNL     1       7.789   2.527  11.471  1.00  0.00     0.148 C
BRANCH  26  27
HETATM   27  C18 UNL     1       9.069   3.004  10.802  1.00  0.00     0.183 C
BRANCH  27  28
HETATM   28  O3  UNL     1       9.033   4.417  10.744  1.00  0.00    -0.399 OA
ATOM     29  H3  UNL     1       9.908   4.724  10.540  1.00  0.00     0.209 HD
ENDBRANCH  27  28
ENDBRANCH  26  27
ENDBRANCH  24  26
ENDBRANCH  16  22
ENDBRANCH  13  14
ENDBRANCH  11  13
BRANCH   1  30
HETATM   30  C2  UNL     1       2.702   3.062   5.724  1.00  0.00     0.055 C
HETATM   31  C1  UNL     1       1.844   3.670   4.592  1.00  0.00     0.011 C
ENDBRANCH   1  30
BRANCH   4  32
HETATM   32  C4  UNL     1       5.268   1.098   2.207  1.00  0.00     0.046 C
HETATM   33  C5  UNL     1       4.469   0.507   1.095  1.00  0.00     0.040 C
HETATM   34  C6  UNL     1       5.495   2.565   1.936  1.00  0.00     0.040 C
HETATM   35  C7  UNL     1       6.620   0.406   2.253  1.00  0.00     0.040 C
ENDBRANCH   4  32
TORSDOF 8
ENDMDL