MODEL 4
REMARK VINA RESULT: -7.453371909      1.644      2.074
REMARK  11 active torsions:
REMARK  status: ('A' for Active; 'I' for Inactive)
REMARK    1  A    between atoms: C2_2  and  C3_3
REMARK    2  A    between atoms: C3_3  and  O1_4
REMARK    3  A    between atoms: O1_4  and  C4_5
REMARK    4  A    between atoms: C8_10  and  O3_11
REMARK    5  A    between atoms: O3_11  and  C9_12
REMARK    6  A    between atoms: C9_12  and  C10_14
REMARK    7  A    between atoms: C11_15  and  C13_17
REMARK    8  A    between atoms: C17_21  and  O5_22
REMARK    9  A    between atoms: C18_24  and  O6_25
REMARK   10  A    between atoms: C18_24  and  O7_27
REMARK   11  A    between atoms: C23_33  and  O8_35
ROOT
HETATM    1  C4  UNL     1       2.994  -0.891   7.601  1.00  0.00     0.158 C
HETATM    2  C5  UNL     1       2.563  -0.146   8.810  1.00  0.00     0.067 C
HETATM    3  C6  UNL     1       1.434   0.832   8.604  1.00  0.00     0.133 C
HETATM    4  O2  UNL     1       1.360   1.638   9.720  1.00  0.00    -0.377 OA
HETATM    5  C7  UNL     1       1.521   2.934   9.367  1.00  0.00     0.162 C
HETATM    6  C8  UNL     1       2.251   3.786  10.379  1.00  0.00     0.164 C
HETATM    7  C16 UNL     1       2.426   5.137   9.824  1.00  0.00     0.072 C
HETATM    8  C17 UNL     1       2.873   5.294   8.423  1.00  0.00     0.183 C
HETATM    9  C18 UNL     1       2.701   4.119   7.507  1.00  0.00     0.193 C
HETATM   10  C19 UNL     1       2.416   2.845   8.165  1.00  0.00     0.093 C
HETATM   11  C20 UNL     1       1.697   1.775   7.415  1.00  0.00    -0.004 C
HETATM   12  C21 UNL     1       0.347   2.161   6.892  1.00  0.00     0.018 C
HETATM   13  C22 UNL     1       2.502   1.123   6.347  1.00  0.00     0.052 C
HETATM   14  C23 UNL     1       2.359  -0.392   6.326  1.00  0.00     0.081 C
HETATM   15  C24 UNL     1       3.088  -0.888   5.096  1.00  0.00     0.049 C
ENDROOT
BRANCH   6  16
HETATM   16  O3  UNL     1       3.355   3.153  10.936  1.00  0.00    -0.310 OA
BRANCH  16  17
HETATM   17  C9  UNL     1       4.426   3.689  11.569  1.00  0.00     0.283 C
HETATM   18  O4  UNL     1       4.051   4.328  12.604  1.00  0.00    -0.260 OA
BRANCH  17  19
HETATM   19  C10 UNL     1       5.823   3.653  11.281  1.00  0.00     0.085 C
HETATM   20  C11 UNL     1       6.636   2.671  11.073  1.00  0.00    -0.075 C
HETATM   21  C12 UNL     1       8.069   2.942  10.790  1.00  0.00     0.044 C
BRANCH  20  22
HETATM   22  C13 UNL     1       6.234   1.267  11.100  1.00  0.00     0.006 C
HETATM   23  C14 UNL     1       6.157   0.663   9.702  1.00  0.00     0.014 C
HETATM   24  C15 UNL     1       7.236   0.448  11.941  1.00  0.00     0.014 C
ENDBRANCH  20  22
ENDBRANCH  17  19
ENDBRANCH  16  17
ENDBRANCH   6  16
BRANCH   8  25
HETATM   25  O5  UNL     1       2.251   6.385   7.783  1.00  0.00    -0.390 OA
ATOM     26  H5  UNL     1       2.793   6.758   7.097  1.00  0.00     0.210 HD
ENDBRANCH   8  25
BRANCH   9  27
HETATM   27  O6  UNL     1       1.781   4.391   6.454  1.00  0.00    -0.363 OA
ATOM     28  H6  UNL     1       0.937   3.980   6.602  1.00  0.00     0.213 HD
ENDBRANCH   9  27
BRANCH   9  29
HETATM   29  O7  UNL     1       3.918   3.974   6.791  1.00  0.00    -0.363 OA
ATOM     30  H7  UNL     1       4.459   3.371   7.288  1.00  0.00     0.213 HD
ENDBRANCH   9  29
BRANCH   1  31
HETATM   31  O1  UNL     1       2.844  -2.266   7.695  1.00  0.00    -0.379 OA
BRANCH  31  32
HETATM   32  C3  UNL     1       4.078  -2.919   7.766  1.00  0.00     0.195 C
BRANCH  32  33
HETATM   33  C2  UNL     1       4.066  -4.165   6.952  1.00  0.00    -0.011 C
HETATM   34  C1  UNL     1       4.814  -4.225   5.871  1.00  0.00     0.009 C
ENDBRANCH  32  33
ENDBRANCH  31  32
ENDBRANCH   1  31
BRANCH  14  35
HETATM   35  O8  UNL     1       1.034  -0.784   6.201  1.00  0.00    -0.388 OA
ATOM     36  H8  UNL     1       0.862  -1.233   5.382  1.00  0.00     0.210 HD
ENDBRANCH  14  35
TORSDOF 11
ENDMDL