MODEL 3
REMARK VINA RESULT: -7.816535428      1.014      1.340
REMARK  7 active torsions:
REMARK  status: ('A' for Active; 'I' for Inactive)
REMARK    1  A    between atoms: S1_2  and  C2_3
REMARK    2  A    between atoms: C4_8  and  C5_9
REMARK    3  A    between atoms: C5_9  and  C6_13
REMARK    4  A    between atoms: C6_13  and  N3_14
REMARK    5  A    between atoms: C8_16  and  C9_17
REMARK       I    between atoms: C9_17  and  N4_19
REMARK    6  A    between atoms: C13_27  and  N6_28
REMARK       I    between atoms: N6_28  and  C14_30
REMARK    7  A    between atoms: C14_30  and  C15_32
ROOT
HETATM    1  C2  UNL     1       7.314   2.569  10.731  1.00  0.00     0.148 A
HETATM    2  N1  UNL     1       7.399   1.408  10.097  1.00  0.00    -0.303 N
ATOM      3  H1  UNL     1       8.311   0.976   9.949  1.00  0.00     0.171 HD
HETATM    4  C3  UNL     1       6.269   0.787   9.640  1.00  0.00     0.263 A
HETATM    5  O1  UNL     1       6.416  -0.294   9.058  1.00  0.00    -0.267 OA
HETATM    6  C4  UNL     1       5.006   1.330   9.814  1.00  0.00     0.100 A
HETATM    7  C13 UNL     1       4.933   2.540  10.481  1.00  0.00     0.127 A
HETATM    8  N7  UNL     1       6.109   3.102  10.909  1.00  0.00    -0.322 N
ATOM      9  H7  UNL     1       6.056   3.996  11.399  1.00  0.00     0.169 HD
ENDROOT
BRANCH   6  10
HETATM   10  C5  UNL     1       3.834   0.676   9.252  1.00  0.00     0.041 C
HETATM   11  N2  UNL     1       3.406  -0.432   9.652  1.00  0.00    -0.400 N
ATOM     12  H22 UNL     1       3.937  -0.878  10.400  1.00  0.00     0.156 HD
ATOM     13  H21 UNL     1       2.584  -0.891   9.258  1.00  0.00     0.156 HD
BRANCH  10  14
HETATM   14  C6  UNL     1       3.049   1.336   8.144  1.00  0.00     0.188 C
BRANCH  14  15
HETATM   15  N3  UNL     1       3.098   0.494   6.908  1.00  0.00    -0.331 N
HETATM   16  C7  UNL     1       4.190   0.381   6.202  1.00  0.00     0.118 A
HETATM   17  C8  UNL     1       4.145  -0.392   5.075  1.00  0.00     0.091 A
HETATM   18  S2  UNL     1       2.519  -0.929   5.078  1.00  0.00    -0.047 SA
HETATM   19  C12 UNL     1       2.006  -0.144   6.497  1.00  0.00     0.145 A
HETATM   20  N5  UNL     1       0.827  -0.142   7.086  1.00  0.00    -0.379 N
ATOM     21  H52 UNL     1       0.519   0.329   7.937  1.00  0.00     0.158 HD
ATOM     22  H51 UNL     1      -0.010  -0.632   6.771  1.00  0.00     0.158 HD
BRANCH  17  23
HETATM   23  C9  UNL     1       5.228  -0.681   4.117  1.00  0.00     0.261 C
HETATM   24  O2  UNL     1       5.991  -1.645   4.435  1.00  0.00    -0.267 OA
HETATM   25  N4  UNL     1       5.427   0.043   2.932  1.00  0.00    -0.356 N
HETATM   26  C10 UNL     1       4.564   1.131   2.560  1.00  0.00     0.152 C
HETATM   27  C11 UNL     1       6.530  -0.319   2.069  1.00  0.00     0.152 C
ENDBRANCH  17  23
ENDBRANCH  14  15
ENDBRANCH  10  14
ENDBRANCH   6  10
BRANCH   7  28
HETATM   28  N6  UNL     1       3.712   3.134  10.828  1.00  0.00    -0.311 N
HETATM   29  C14 UNL     1       3.084   4.221  10.148  1.00  0.00     0.230 C
HETATM   30  O3  UNL     1       3.467   4.754   9.096  1.00  0.00    -0.272 OA
ATOM     31  H6  UNL     1       3.227   2.754  11.641  1.00  0.00     0.170 HD
BRANCH  29  32
HETATM   32  C15 UNL     1       1.830   4.820  10.724  1.00  0.00     0.030 C
HETATM   33  C16 UNL     1       1.514   6.097  10.043  1.00  0.00     0.025 C
HETATM   34  C17 UNL     1       0.700   3.857  10.819  1.00  0.00     0.025 C
HETATM   35  C18 UNL     1       2.227   5.156  12.177  1.00  0.00     0.025 C
ENDBRANCH  29  32
ENDBRANCH   7  28
BRANCH   1  36
HETATM   36  S1  UNL     1       8.805   3.374  11.323  1.00  0.00    -0.098 SA
HETATM   37  C1  UNL     1      10.213   2.988  10.240  1.00  0.00     0.099 C
ENDBRANCH   1  36
TORSDOF 7
ENDMDL