MODEL 3
REMARK VINA RESULT: -7.404878592      2.642      7.740
REMARK  9 active torsions:
REMARK  status: ('A' for Active; 'I' for Inactive)
REMARK    1  A    between atoms: C2_2  and  C3_3
REMARK    2  A    between atoms: C3_3  and  C4_4
REMARK    3  A    between atoms: C5_5  and  C6_6
REMARK    4  A    between atoms: C16_18  and  C17_19
REMARK    5  A    between atoms: C17_19  and  O3_20
REMARK    6  A    between atoms: C18_23  and  C19_24
REMARK    7  A    between atoms: C19_24  and  O5_25
REMARK    8  A    between atoms: C20_27  and  O6_28
REMARK    9  A    between atoms: C21_30  and  O7_31
ROOT
HETATM    1  C6  UNL     1       5.259   2.434  10.034  1.00  0.00    -0.059 C
HETATM    2  C7  UNL     1       4.658   3.408  10.718  1.00  0.00    -0.016 C
HETATM    3  C8  UNL     1       3.421   4.139  10.760  1.00  0.00     0.057 C
HETATM    4  C9  UNL     1       2.208   3.501  10.244  1.00  0.00     0.014 C
HETATM    5  C10 UNL     1       1.763   2.359   9.688  1.00  0.00     0.072 C
HETATM    6  O1  UNL     1       2.439   1.194   9.361  1.00  0.00    -0.335 OA
HETATM    7  C11 UNL     1       3.692   0.630   9.284  1.00  0.00     0.122 C
HETATM    8  C12 UNL     1       4.081  -0.345  10.331  1.00  0.00     0.210 C
HETATM    9  O2  UNL     1       4.745  -1.070   9.368  1.00  0.00    -0.376 OA
HETATM   10  C13 UNL     1       3.855  -0.552   8.422  1.00  0.00     0.181 C
HETATM   11  C14 UNL     1       2.691  -1.402   8.183  1.00  0.00     0.009 C
HETATM   12  C15 UNL     1       1.695  -1.275   7.366  1.00  0.00     0.042 C
HETATM   13  C16 UNL     1       1.346  -0.251   6.375  1.00  0.00     0.208 C
HETATM   14  O4  UNL     1       0.320  -0.718   5.549  1.00  0.00    -0.340 OA
HETATM   15  C18 UNL     1      -0.946  -0.630   6.009  1.00  0.00     0.183 C
HETATM   16  C20 UNL     1      -1.096   0.150   7.287  1.00  0.00     0.215 C
HETATM   17  C21 UNL     1      -0.098   1.335   7.266  1.00  0.00     0.214 C
HETATM   18  C22 UNL     1      -0.389   2.109   8.460  1.00  0.00     0.053 C
HETATM   19  C23 UNL     1       0.334   2.543   9.460  1.00  0.00    -0.027 C
HETATM   20  C24 UNL     1      -0.388   3.345  10.528  1.00  0.00     0.051 C
HETATM   21  O8  UNL     1       1.141   0.964   6.953  1.00  0.00    -0.307 OA
HETATM   22  C25 UNL     1       4.749   1.672   8.894  1.00  0.00     0.082 C
ENDROOT
BRANCH   1  23
HETATM   23  C5  UNL     1       6.587   2.152  10.527  1.00  0.00     0.003 C
HETATM   24  C4  UNL     1       7.383   1.192  10.105  1.00  0.00    -0.026 C
BRANCH  24  25
HETATM   25  C3  UNL     1       8.744   0.978  10.679  1.00  0.00     0.027 C
BRANCH  25  26
HETATM   26  C2  UNL     1       9.727   1.781   9.843  1.00  0.00    -0.001 C
HETATM   27  C1  UNL     1      10.039   3.110  10.494  1.00  0.00     0.005 C
ENDBRANCH  25  26
ENDBRANCH  24  25
ENDBRANCH   1  23
BRANCH  13  28
HETATM   28  C17 UNL     1       2.470  -0.003   5.342  1.00  0.00     0.237 C
BRANCH  28  29
HETATM   29  O3  UNL     1       2.685  -1.224   4.637  1.00  0.00    -0.395 OA
ATOM     30  H3  UNL     1       2.179  -1.900   5.072  1.00  0.00     0.209 HD
ENDBRANCH  28  29
ENDBRANCH  13  28
BRANCH  17  31
HETATM   31  O7  UNL     1      -0.583   2.087   6.145  1.00  0.00    -0.360 OA
ATOM     32  H7  UNL     1      -0.354   1.510   5.425  1.00  0.00     0.213 HD
ENDBRANCH  17  31
BRANCH  16  33
HETATM   33  O6  UNL     1      -2.361   0.735   7.323  1.00  0.00    -0.387 OA
ATOM     34  H6  UNL     1      -2.472   1.290   6.561  1.00  0.00     0.210 HD
ENDBRANCH  16  33
BRANCH  15  35
HETATM   35  C19 UNL     1      -1.686  -1.943   6.100  1.00  0.00     0.199 C
BRANCH  35  36
HETATM   36  O5  UNL     1      -1.866  -2.319   7.449  1.00  0.00    -0.398 OA
ATOM     37  H5  UNL     1      -2.587  -1.836   7.837  1.00  0.00     0.209 HD
ENDBRANCH  35  36
ENDBRANCH  15  35
TORSDOF 9
ENDMDL