MODEL 2
REMARK VINA RESULT: -7.658747245      1.126      1.367
REMARK  11 active torsions:
REMARK  status: ('A' for Active; 'I' for Inactive)
REMARK    1  A    between atoms: C2_2  and  O1_3
REMARK    2  A    between atoms: C2_2  and  C3_5
REMARK    3  A    between atoms: C3_5  and  C4_6
REMARK    4  A    between atoms: C9_11  and  O2_13
REMARK    5  A    between atoms: O2_13  and  C11_14
REMARK    6  A    between atoms: C13_17  and  O4_18
REMARK    7  A    between atoms: C14_20  and  O5_21
REMARK    8  A    between atoms: C15_23  and  O6_24
REMARK    9  A    between atoms: C20_30  and  C21_31
REMARK   10  A    between atoms: C21_31  and  O8_33
REMARK   11  A    between atoms: O8_33  and  C22_34
ROOT
HETATM    1  C4  UNL     1       4.321   0.339   9.603  1.00  0.00     0.003 C
HETATM    2  C5  UNL     1       3.967  -1.054   9.222  1.00  0.00     0.010 C
HETATM    3  C6  UNL     1       2.563  -1.081   8.664  1.00  0.00     0.035 C
HETATM    4  C7  UNL     1       2.510   0.001   7.617  1.00  0.00    -0.072 C
HETATM    5  C8  UNL     1       2.404  -0.295   6.331  1.00  0.00     0.014 C
HETATM    6  C9  UNL     1       2.352   0.748   5.286  1.00  0.00     0.078 C
HETATM    7  C10 UNL     1       1.033   1.383   5.051  1.00  0.00     0.051 C
HETATM    8  C16 UNL     1       3.337   1.809   5.722  1.00  0.00     0.043 C
HETATM    9  C17 UNL     1       3.235   2.258   7.129  1.00  0.00     0.018 C
HETATM   10  C18 UNL     1       2.575   1.379   8.114  1.00  0.00    -0.008 C
HETATM   11  C19 UNL     1       1.116   1.813   8.374  1.00  0.00     0.021 C
HETATM   12  C20 UNL     1       3.223   1.338   9.478  1.00  0.00     0.102 C
ENDROOT
BRANCH   6  13
HETATM   13  O2  UNL     1       2.826   0.289   4.058  1.00  0.00    -0.344 OA
BRANCH  13  14
HETATM   14  C11 UNL     1       4.101   0.740   3.761  1.00  0.00     0.292 C
HETATM   15  O3  UNL     1       3.961   1.586   2.655  1.00  0.00    -0.356 OA
HETATM   16  C12 UNL     1       5.140   2.204   2.302  1.00  0.00     0.205 C
HETATM   17  C13 UNL     1       6.028   1.175   1.649  1.00  0.00     0.173 C
HETATM   18  C14 UNL     1       5.464  -0.228   1.893  1.00  0.00     0.182 C
HETATM   19  C15 UNL     1       5.043  -0.373   3.350  1.00  0.00     0.204 C
BRANCH  17  20
HETATM   20  O4  UNL     1       7.279   1.267   2.253  1.00  0.00    -0.391 OA
ATOM     21  H4  UNL     1       7.897   0.816   1.690  1.00  0.00     0.210 HD
ENDBRANCH  17  20
BRANCH  18  22
HETATM   22  O5  UNL     1       6.511  -1.109   1.637  1.00  0.00    -0.390 OA
ATOM     23  H5  UNL     1       6.105  -1.920   1.353  1.00  0.00     0.210 HD
ENDBRANCH  18  22
BRANCH  19  24
HETATM   24  O6  UNL     1       6.245  -0.338   4.085  1.00  0.00    -0.388 OA
ATOM     25  H6  UNL     1       6.915   0.171   3.643  1.00  0.00     0.210 HD
ENDBRANCH  19  24
ENDBRANCH  13  14
ENDBRANCH   6  13
BRANCH  12  26
HETATM   26  C21 UNL     1       3.575   2.656  10.028  1.00  0.00     0.264 C
HETATM   27  O7  UNL     1       4.471   3.412   9.582  1.00  0.00    -0.265 OA
BRANCH  26  28
HETATM   28  O8  UNL     1       2.902   3.187  11.146  1.00  0.00    -0.316 OA
BRANCH  28  29
HETATM   29  C22 UNL     1       2.772   4.552  11.377  1.00  0.00     0.123 C
HETATM   30  C23 UNL     1       3.356   5.006  12.694  1.00  0.00     0.040 C
HETATM   31  C24 UNL     1       1.312   4.922  11.255  1.00  0.00     0.040 C
ENDBRANCH  28  29
ENDBRANCH  26  28
ENDBRANCH  12  26
BRANCH   1  32
HETATM   32  C3  UNL     1       5.630   0.748   8.977  1.00  0.00     0.037 C
BRANCH  32  33
HETATM   33  C2  UNL     1       6.701   0.948  10.034  1.00  0.00     0.114 C
HETATM   34  C1  UNL     1       6.362   0.092  11.235  1.00  0.00     0.039 C
BRANCH  33  35
HETATM   35  O1  UNL     1       7.914   0.510   9.472  1.00  0.00    -0.396 OA
ATOM     36  H1  UNL     1       8.411   1.259   9.166  1.00  0.00     0.210 HD
ENDBRANCH  33  35
ENDBRANCH  32  33
ENDBRANCH   1  32
TORSDOF 11
ENDMDL