MODEL 2
REMARK VINA RESULT: -7.330785119      1.699      2.111
REMARK  10 active torsions:
REMARK  status: ('A' for Active; 'I' for Inactive)
REMARK    1  A    between atoms: C2_2  and  O2_4
REMARK    2  A    between atoms: O2_4  and  C3_5
REMARK    3  A    between atoms: C8_10  and  O3_11
REMARK    4  A    between atoms: C11_15  and  C12_16
REMARK    5  A    between atoms: N1_17  and  O4_19
REMARK    6  A    between atoms: C17_26  and  C18_27
REMARK    7  A    between atoms: C19_28  and  C20_29
REMARK    8  A    between atoms: C20_29  and  O6_30
REMARK    9  A    between atoms: C20_29  and  C21_32
REMARK   10  A    between atoms: C21_32  and  C23_34
ROOT
HETATM    1  C3  UNL     1       4.395   1.374   8.472  1.00  0.00     0.140 C
HETATM    2  C4  UNL     1       4.281   1.647   6.988  1.00  0.00     0.039 C
HETATM    3  C5  UNL     1       3.453   0.599   6.337  1.00  0.00     0.011 C
HETATM    4  C6  UNL     1       2.178   0.281   7.101  1.00  0.00     0.063 C
HETATM    5  C7  UNL     1       1.348  -0.355   5.977  1.00  0.00     0.051 C
HETATM    6  C8  UNL     1       1.500   0.735   4.928  1.00  0.00     0.067 C
HETATM    7  C9  UNL     1       1.136   0.279   3.555  1.00  0.00     0.039 C
HETATM    8  C10 UNL     1       2.341  -0.469   3.095  1.00  0.00     0.013 C
HETATM    9  C11 UNL     1       3.500  -0.052   3.952  1.00  0.00     0.037 C
HETATM   10  C13 UNL     1       2.999   0.950   4.948  1.00  0.00    -0.000 C
HETATM   11  C14 UNL     1       3.347   2.370   4.565  1.00  0.00     0.019 C
HETATM   12  C15 UNL     1       2.477  -0.689   8.170  1.00  0.00     0.132 C
HETATM   13  O5  UNL     1       1.546  -1.475   8.366  1.00  0.00    -0.298 OA
HETATM   14  C16 UNL     1       3.620  -0.940   9.055  1.00  0.00     0.089 C
HETATM   15  C17 UNL     1       4.810  -0.061   8.756  1.00  0.00     0.044 C
ENDROOT
BRANCH  15  16
HETATM   16  C18 UNL     1       5.787  -0.083   9.875  1.00  0.00    -0.021 C
HETATM   17  C19 UNL     1       6.782   0.775   9.994  1.00  0.00     0.002 C
BRANCH  17  18
HETATM   18  C20 UNL     1       7.776   0.805  11.070  1.00  0.00     0.154 C
BRANCH  18  19
HETATM   19  O6  UNL     1       7.150   0.503  12.285  1.00  0.00    -0.391 OA
ATOM     20  H6  UNL     1       7.549  -0.274  12.659  1.00  0.00     0.210 HD
ENDBRANCH  18  19
BRANCH  18  21
HETATM   21  C21 UNL     1       8.424   2.156  11.210  1.00  0.00     0.115 C
HETATM   22  C22 UNL     1       9.442   2.370  10.108  1.00  0.00     0.024 C
BRANCH  21  23
HETATM   23  C23 UNL     1       7.397   3.232  11.190  1.00  0.00     0.179 C
HETATM   24  O7  UNL     1       7.572   4.215  10.439  1.00  0.00    -0.648 OA
HETATM   25  O8  UNL     1       6.276   3.144  11.985  1.00  0.00    -0.648 OA
ENDBRANCH  21  23
ENDBRANCH  18  21
ENDBRANCH  17  18
ENDBRANCH  15  16
BRANCH   1  26
HETATM   26  O2  UNL     1       3.249   1.740   9.183  1.00  0.00    -0.316 OA
BRANCH  26  27
HETATM   27  C2  UNL     1       3.057   2.911   9.861  1.00  0.00     0.255 C
HETATM   28  C1  UNL     1       3.967   4.051   9.586  1.00  0.00     0.126 C
HETATM   29  O1  UNL     1       2.113   2.965  10.694  1.00  0.00    -0.266 OA
ENDBRANCH  26  27
ENDBRANCH   1  26
BRANCH   6  30
HETATM   30  O3  UNL     1       0.807   1.865   5.338  1.00  0.00    -0.389 OA
ATOM     31  H3  UNL     1       0.114   2.051   4.715  1.00  0.00     0.210 HD
ENDBRANCH   6  30
BRANCH   9  32
HETATM   32  C12 UNL     1       4.653   0.431   3.207  1.00  0.00     0.092 C
HETATM   33  N1  UNL     1       5.834   0.040   3.510  1.00  0.00    -0.284 N
ATOM     34  H1  UNL     1       6.613   0.404   2.960  1.00  0.00     0.192 HD
BRANCH  33  35
HETATM   35  O4  UNL     1       6.119  -0.833   4.518  1.00  0.00    -0.291 OA
ATOM     36  H4  UNL     1       6.896  -0.784   5.063  1.00  0.00     0.244 HD
ENDBRANCH  33  35
ENDBRANCH   9  32
TORSDOF 10
ENDMDL