MODEL 1
REMARK VINA RESULT: -6.565211272      0.000      0.000
REMARK  10 active torsions:
REMARK  status: ('A' for Active; 'I' for Inactive)
REMARK    1  A    between atoms: C5_5  and  O1_6
REMARK    2  A    between atoms: C9_11  and  C10_12
REMARK    3  A    between atoms: C10_12  and  O2_13
REMARK    4  A    between atoms: C10_12  and  C11_15
REMARK    5  A    between atoms: C11_15  and  O3_16
REMARK    6  A    between atoms: C12_18  and  C13_19
REMARK    7  A    between atoms: C19_27  and  C20_28
REMARK    8  A    between atoms: C21_29  and  C22_30
REMARK    9  A    between atoms: C22_30  and  C23_31
REMARK   10  A    between atoms: C23_31  and  C24_33
ROOT
HETATM    1  C11 UNL     1       2.988   0.922   6.186  1.00  0.00     0.123 C
HETATM    2  C12 UNL     1       1.790   0.316   5.554  1.00  0.00     0.026 C
HETATM    3  C15 UNL     1       2.248  -0.670   4.450  1.00  0.00     0.210 C
HETATM    4  O5  UNL     1       3.584  -0.816   4.342  1.00  0.00    -0.376 OA
HETATM    5  C16 UNL     1       4.310  -1.019   5.458  1.00  0.00     0.064 C
HETATM    6  C17 UNL     1       4.053  -2.431   5.954  1.00  0.00     0.046 C
HETATM    7  C18 UNL     1       5.789  -1.030   5.024  1.00  0.00     0.046 C
HETATM    8  C19 UNL     1       4.109   0.021   6.580  1.00  0.00     0.083 C
ENDROOT
BRANCH   1   9
HETATM    9  C10 UNL     1       2.938   2.314   6.713  1.00  0.00     0.166 C
BRANCH   9  10
HETATM   10  C9  UNL     1       2.594   2.695   8.056  1.00  0.00     0.056 C
HETATM   11  C2  UNL     1       1.289   2.429   8.679  1.00  0.00    -0.082 C
HETATM   12  C1  UNL     1       0.085   2.553   8.204  1.00  0.00     0.015 C
HETATM   13  C3  UNL     1       1.359   2.013  10.149  1.00  0.00     0.036 C
HETATM   14  C4  UNL     1       2.278   3.102  10.729  1.00  0.00     0.037 C
HETATM   15  C5  UNL     1       2.206   4.322   9.886  1.00  0.00     0.127 C
HETATM   16  C6  UNL     1       2.826   4.157   8.482  1.00  0.00    -0.012 C
HETATM   17  C7  UNL     1       4.260   4.526   8.676  1.00  0.00     0.018 C
HETATM   18  C8  UNL     1       2.154   5.145   7.605  1.00  0.00     0.018 C
BRANCH  15  19
HETATM   19  O1  UNL     1       0.955   4.923   9.839  1.00  0.00    -0.395 OA
ATOM     20  H1  UNL     1       0.906   5.772  10.264  1.00  0.00     0.210 HD
ENDBRANCH  15  19
ENDBRANCH   9  10
BRANCH   9  21
HETATM   21  O2  UNL     1       4.324   2.790   6.594  1.00  0.00    -0.391 OA
ATOM     22  H2  UNL     1       4.232   3.547   6.027  1.00  0.00     0.210 HD
ENDBRANCH   9  21
ENDBRANCH   1   9
BRANCH   1  23
HETATM   23  O3  UNL     1       3.599   1.342   4.864  1.00  0.00    -0.382 OA
ATOM     24  H3  UNL     1       2.811   1.150   4.370  1.00  0.00     0.211 HD
ENDBRANCH   1  23
BRANCH   2  25
HETATM   25  C13 UNL     1       0.627  -0.205   6.189  1.00  0.00     0.153 C
HETATM   26  C14 UNL     1       0.424  -1.072   7.363  1.00  0.00     0.096 C
HETATM   27  O4  UNL     1      -0.514   0.077   5.721  1.00  0.00    -0.293 OA
ENDBRANCH   2  25
BRANCH   8  28
HETATM   28  C20 UNL     1       4.064  -0.742   7.802  1.00  0.00    -0.019 C
HETATM   29  C21 UNL     1       4.640  -0.400   8.920  1.00  0.00    -0.022 C
BRANCH  29  30
HETATM   30  C22 UNL     1       5.453   0.783   9.233  1.00  0.00     0.117 C
BRANCH  30  31
HETATM   31  C23 UNL     1       6.388   0.420  10.349  1.00  0.00     0.228 C
HETATM   32  O6  UNL     1       6.032  -0.404  11.214  1.00  0.00    -0.285 OA
BRANCH  31  33
HETATM   33  C24 UNL     1       7.692   1.025  10.418  1.00  0.00     0.247 C
HETATM   34  O7  UNL     1       7.963   1.839  11.329  1.00  0.00    -0.642 OA
HETATM   35  O8  UNL     1       8.674   0.727   9.489  1.00  0.00    -0.642 OA
ENDBRANCH  31  33
ENDBRANCH  30  31
ENDBRANCH  29  30
ENDBRANCH   8  28
TORSDOF 10
ENDMDL