MODEL 5
REMARK VINA RESULT: -6.079367007      2.402      2.757
REMARK  8 active torsions:
REMARK  status: ('A' for Active; 'I' for Inactive)
REMARK    1  A    between atoms: N1_1  and  C1_5
REMARK    2  A    between atoms: C1_5  and  C2_6
REMARK    3  A    between atoms: C2_6  and  C3_7
REMARK    4  A    between atoms: C3_7  and  N2_8
REMARK    5  A    between atoms: C6_13  and  S1_14
REMARK    6  A    between atoms: S1_14  and  C7_16
REMARK    7  A    between atoms: C11_20  and  C12_21
REMARK    8  A    between atoms: C12_21  and  O2_22
ROOT
HETATM    1  N2  UNL     1      24.226  23.228 -41.986  1.00  0.00    -0.334 N
HETATM    2  C4  UNL     1      24.384  24.518 -41.585  1.00  0.00     0.110 A
HETATM    3  C5  UNL     1      23.684  25.283 -42.483  1.00  0.00     0.107 A
HETATM    4  N3  UNL     1      23.121  24.483 -43.401  1.00  0.00    -0.343 N
ATOM      5  H3  UNL     1      22.544  24.777 -44.190  1.00  0.00     0.167 HD
HETATM    6  C6  UNL     1      23.460  23.215 -43.085  1.00  0.00     0.181 A
ENDROOT
BRANCH   6   7
HETATM    7  S1  UNL     1      22.974  21.784 -43.978  1.00  0.00     0.119 S
HETATM    8  O1  UNL     1      22.597  22.275 -45.540  1.00  0.00    -0.244 OA
BRANCH   7   9
HETATM    9  C7  UNL     1      21.575  21.037 -43.293  1.00  0.00     0.040 A
HETATM   10  C8  UNL     1      20.286  21.485 -43.490  1.00  0.00     0.021 A
HETATM   11  C9  UNL     1      19.231  20.823 -42.902  1.00  0.00     0.002 A
HETATM   12  C10 UNL     1      19.405  19.708 -42.108  1.00  0.00     0.009 A
HETATM   13  C11 UNL     1      20.699  19.250 -41.905  1.00  0.00    -0.034 A
HETATM   14  C13 UNL     1      21.744  19.921 -42.498  1.00  0.00     0.030 A
BRANCH  13  15
HETATM   15  C12 UNL     1      20.955  18.051 -41.059  1.00  0.00     0.202 C
BRANCH  15  16
HETATM   16  O2  UNL     1      20.219  16.996 -41.614  1.00  0.00    -0.396 OA
ATOM     17  H2  UNL     1      20.372  16.235 -41.066  1.00  0.00     0.209 HD
ENDBRANCH  15  16
ENDBRANCH  13  15
ENDBRANCH   7   9
ENDBRANCH   6   7
BRANCH   1  18
HETATM   18  C3  UNL     1      24.766  22.047 -41.372  1.00  0.00     0.132 C
BRANCH  18  19
HETATM   19  C2  UNL     1      26.183  21.757 -41.735  1.00  0.00     0.047 C
BRANCH  19  20
HETATM   20  C1  UNL     1      26.211  20.330 -42.298  1.00  0.00     0.231 C
BRANCH  20  21
HETATM   21  N1  UNL     1      25.205  19.498 -41.684  1.00  0.00    -0.079 N
ATOM     22  H13 UNL     1      25.626  18.759 -41.120  1.00  0.00     0.274 HD
ATOM     23  H12 UNL     1      24.709  19.997 -40.945  1.00  0.00     0.274 HD
ATOM     24  H11 UNL     1      24.559  19.116 -42.376  1.00  0.00     0.274 HD
ENDBRANCH  20  21
ENDBRANCH  19  20
ENDBRANCH  18  19
ENDBRANCH   1  18
TORSDOF 8
ENDMDL