MODEL 3
REMARK VINA RESULT: -6.469963638      1.906      2.702
REMARK  10 active torsions:
REMARK  status: ('A' for Active; 'I' for Inactive)
REMARK    1  A    between atoms: N1_1  and  C1_5
REMARK    2  A    between atoms: C1_5  and  C2_6
REMARK    3  A    between atoms: C1_5  and  C13_22
REMARK    4  A    between atoms: C2_6  and  C3_7
REMARK    5  A    between atoms: N3_19  and  O1_20
REMARK    6  A    between atoms: C13_22  and  C14_23
REMARK    7  A    between atoms: C14_23  and  O2_24
REMARK    8  A    between atoms: O2_24  and  C15_25
REMARK    9  A    between atoms: C15_25  and  C16_26
REMARK   10  A    between atoms: C16_26  and  O3_27
ROOT
HETATM    1  C3  UNL     1      20.648  22.152 -42.982  1.00  0.00    -0.036 A
HETATM    2  C4  UNL     1      21.420  22.684 -41.980  1.00  0.00     0.012 A
HETATM    3  C5  UNL     1      22.703  23.171 -42.242  1.00  0.00     0.017 A
HETATM    4  C6  UNL     1      23.224  23.132 -43.511  1.00  0.00     0.022 A
HETATM    5  C7  UNL     1      24.432  23.531 -44.052  1.00  0.00     0.101 A
HETATM    6  C8  UNL     1      24.404  23.243 -45.406  1.00  0.00     0.064 A
HETATM    7  N2  UNL     1      23.198  22.686 -45.637  1.00  0.00    -0.354 N
ATOM      8  H2  UNL     1      22.885  22.366 -46.553  1.00  0.00     0.166 HD
HETATM    9  C9  UNL     1      22.457  22.601 -44.522  1.00  0.00     0.046 A
HETATM   10  C10 UNL     1      21.175  22.115 -44.254  1.00  0.00     0.041 A
HETATM   11  C11 UNL     1      25.556  23.618 -45.949  1.00  0.00     0.051 A
HETATM   12  C12 UNL     1      26.390  24.185 -44.902  1.00  0.00     0.126 A
HETATM   13  N3  UNL     1      25.706  24.118 -43.816  1.00  0.00    -0.233 N
ENDROOT
BRANCH   1  14
HETATM   14  C2  UNL     1      19.412  21.678 -42.750  1.00  0.00     0.017 C
BRANCH  14  15
HETATM   15  C1  UNL     1      19.202  20.273 -42.373  1.00  0.00     0.209 C
BRANCH  15  16
HETATM   16  N1  UNL     1      18.976  20.222 -40.943  1.00  0.00    -0.072 N
ATOM     17  H13 UNL     1      19.836  20.087 -40.412  1.00  0.00     0.275 HD
ATOM     18  H12 UNL     1      18.715  21.127 -40.552  1.00  0.00     0.275 HD
ATOM     19  H11 UNL     1      18.281  19.498 -40.759  1.00  0.00     0.275 HD
ENDBRANCH  15  16
BRANCH  15  20
HETATM   20  C13 UNL     1      20.414  19.489 -42.802  1.00  0.00     0.063 C
BRANCH  20  21
HETATM   21  C14 UNL     1      20.444  18.176 -42.045  1.00  0.00     0.170 C
BRANCH  21  22
HETATM   22  O2  UNL     1      21.322  18.180 -40.999  1.00  0.00    -0.389 OA
BRANCH  22  23
HETATM   23  C15 UNL     1      22.289  19.136 -40.981  1.00  0.00     0.193 C
BRANCH  23  24
HETATM   24  C16 UNL     1      22.490  19.879 -39.706  1.00  0.00     0.190 C
BRANCH  24  25
HETATM   25  O3  UNL     1      21.373  20.503 -39.193  1.00  0.00    -0.399 OA
ATOM     26  H3  UNL     1      21.431  20.771 -38.284  1.00  0.00     0.209 HD
ENDBRANCH  24  25
ENDBRANCH  23  24
ENDBRANCH  22  23
ENDBRANCH  21  22
ENDBRANCH  20  21
ENDBRANCH  15  20
ENDBRANCH  14  15
ENDBRANCH   1  14
BRANCH  13  27
HETATM   27  O1  UNL     1      26.154  24.556 -42.599  1.00  0.00    -0.283 OA
ATOM     28  H1  UNL     1      26.048  25.439 -42.267  1.00  0.00     0.245 HD
ENDBRANCH  13  27
TORSDOF 10
ENDMDL