MODEL 3
REMARK VINA RESULT: -6.271243380      2.041      2.560
REMARK  6 active torsions:
REMARK  status: ('A' for Active; 'I' for Inactive)
REMARK    1  A    between atoms: N1_4  and  C4_5
REMARK    2  A    between atoms: C4_5  and  C5_6
REMARK    3  A    between atoms: C5_6  and  C6_7
REMARK    4  A    between atoms: C6_7  and  C7_8
REMARK    5  A    between atoms: C7_8  and  N2_9
REMARK    6  A    between atoms: C10_12  and  C11_13
ROOT
HETATM    1  N2  UNL     1      22.697  19.287 -41.200  1.00  0.00    -0.304 N
HETATM    2  C8  UNL     1      23.120  20.239 -42.052  1.00  0.00     0.111 A
HETATM    3  C9  UNL     1      24.436  20.670 -42.081  1.00  0.00     0.035 A
HETATM    4  C10 UNL     1      25.360  20.121 -41.219  1.00  0.00     0.023 A
HETATM    5  C12 UNL     1      24.891  19.145 -40.358  1.00  0.00     0.122 A
HETATM    6  N5  UNL     1      23.593  18.774 -40.386  1.00  0.00    -0.309 N
ATOM      7  H5  UNL     1      23.288  18.050 -39.734  1.00  0.00     0.186 HD
ENDROOT
BRANCH   1   8
HETATM    8  C7  UNL     1      21.313  18.854 -41.191  1.00  0.00     0.148 C
BRANCH   8   9
HETATM    9  C6  UNL     1      20.731  19.184 -42.526  1.00  0.00     0.023 C
BRANCH   9  10
HETATM   10  C5  UNL     1      19.391  19.882 -42.451  1.00  0.00     0.022 C
BRANCH  10  11
HETATM   11  C4  UNL     1      19.450  21.219 -43.122  1.00  0.00     0.128 C
BRANCH  11  12
HETATM   12  N1  UNL     1      20.340  22.157 -42.527  1.00  0.00    -0.366 N
HETATM   13  C3  UNL     1      21.264  22.742 -43.323  1.00  0.00     0.099 A
HETATM   14  C2  UNL     1      22.168  23.663 -42.832  1.00  0.00    -0.022 A
HETATM   15  C1  UNL     1      23.186  24.310 -43.701  1.00  0.00     0.052 C
HETATM   16  C15 UNL     1      22.156  24.019 -41.499  1.00  0.00     0.054 A
HETATM   17  C14 UNL     1      21.213  23.417 -40.700  1.00  0.00     0.044 A
HETATM   18  N6  UNL     1      23.074  24.966 -40.956  1.00  0.00    -0.102 NA
HETATM   19  C13 UNL     1      20.337  22.508 -41.236  1.00  0.00     0.092 A
ENDBRANCH  11  12
ENDBRANCH  10  11
ENDBRANCH   9  10
ENDBRANCH   8   9
ENDBRANCH   1   8
BRANCH   4  20
HETATM   20  C11 UNL     1      26.745  20.561 -41.237  1.00  0.00     0.121 C
HETATM   21  N3  UNL     1      27.567  20.273 -42.173  1.00  0.00    -0.387 N
ATOM     22  H32 UNL     1      27.225  19.703 -42.947  1.00  0.00     0.157 HD
ATOM     23  H31 UNL     1      28.539  20.581 -42.185  1.00  0.00     0.157 HD
HETATM   24  N4  UNL     1      27.219  21.350 -40.166  1.00  0.00    -0.082 NA
ENDBRANCH   4  20
TORSDOF 6
ENDMDL