MODEL 4
REMARK VINA RESULT: -6.359919928      1.777      6.112
REMARK  7 active torsions:
REMARK  status: ('A' for Active; 'I' for Inactive)
REMARK    1  A    between atoms: N1_1  and  C1_5
REMARK    2  A    between atoms: C1_5  and  C2_6
REMARK    3  A    between atoms: C2_6  and  C3_7
REMARK    4  A    between atoms: N2_9  and  C5_10
REMARK    5  A    between atoms: C5_10  and  C6_11
REMARK    6  A    between atoms: C7_12  and  C8_13
REMARK    7  A    between atoms: C8_13  and  N3_14
ROOT
HETATM    1  C3  UNL     1      21.824  23.674 -41.850  1.00  0.00    -0.017 A
HETATM    2  C4  UNL     1      21.190  22.604 -41.265  1.00  0.00     0.099 A
HETATM    3  N2  UNL     1      20.652  21.604 -42.010  1.00  0.00    -0.362 N
HETATM    4  C14 UNL     1      20.738  21.654 -43.350  1.00  0.00     0.092 A
HETATM    5  C15 UNL     1      21.362  22.702 -44.016  1.00  0.00     0.044 A
HETATM    6  C16 UNL     1      21.894  23.697 -43.226  1.00  0.00     0.055 A
HETATM    7  N5  UNL     1      22.541  24.784 -43.920  1.00  0.00    -0.102 NA
ENDROOT
BRANCH   3   8
HETATM    8  C5  UNL     1      19.988  20.482 -41.373  1.00  0.00     0.154 C
BRANCH   8   9
HETATM    9  C6  UNL     1      20.645  19.199 -41.665  1.00  0.00    -0.009 C
HETATM   10  C7  UNL     1      21.803  18.782 -41.205  1.00  0.00    -0.009 C
BRANCH  10  11
HETATM   11  C8  UNL     1      22.694  19.511 -40.299  1.00  0.00     0.154 C
BRANCH  11  12
HETATM   12  N3  UNL     1      23.977  19.803 -40.956  1.00  0.00    -0.361 N
HETATM   13  C9  UNL     1      23.994  20.532 -42.071  1.00  0.00     0.091 A
HETATM   14  C10 UNL     1      25.169  20.823 -42.708  1.00  0.00     0.019 A
HETATM   15  C11 UNL     1      26.347  20.347 -42.178  1.00  0.00     0.029 A
HETATM   16  C12 UNL     1      26.327  19.592 -41.023  1.00  0.00     0.061 A
HETATM   17  N4  UNL     1      27.516  19.084 -40.444  1.00  0.00    -0.101 NA
HETATM   18  C13 UNL     1      25.122  19.334 -40.429  1.00  0.00     0.117 A
ENDBRANCH  11  12
ENDBRANCH  10  11
ENDBRANCH   8   9
ENDBRANCH   3   8
BRANCH   1  19
HETATM   19  C2  UNL     1      22.389  24.731 -41.011  1.00  0.00     0.069 C
BRANCH  19  20
HETATM   20  C1  UNL     1      23.889  24.743 -40.976  1.00  0.00     0.234 C
BRANCH  20  21
HETATM   21  N1  UNL     1      24.467  25.846 -41.676  1.00  0.00    -0.079 N
ATOM     22  H13 UNL     1      24.214  26.729 -41.232  1.00  0.00     0.274 HD
ATOM     23  H12 UNL     1      25.478  25.872 -41.539  1.00  0.00     0.274 HD
ATOM     24  H11 UNL     1      24.238  25.863 -42.670  1.00  0.00     0.274 HD
ENDBRANCH  20  21
ENDBRANCH  19  20
ENDBRANCH   1  19
TORSDOF 7
ENDMDL