MODEL 1
REMARK VINA RESULT: -6.643265909      0.000      0.000
REMARK  7 active torsions:
REMARK  status: ('A' for Active; 'I' for Inactive)
REMARK    1  A    between atoms: C6_7  and  C7_8
REMARK    2  A    between atoms: C7_8  and  C8_9
REMARK    3  A    between atoms: N3_16  and  C12_18
REMARK    4  A    between atoms: C12_18  and  C13_19
REMARK    5  A    between atoms: C13_19  and  C14_20
REMARK    6  A    between atoms: C14_20  and  C15_21
REMARK    7  A    between atoms: C15_21  and  O2_22
ROOT
HETATM    1  C8  UNL     1      22.591  23.390 -41.333  1.00  0.00     0.037 A
HETATM    2  C9  UNL     1      23.039  24.657 -41.082  1.00  0.00     0.100 A
HETATM    3  C10 UNL     1      24.318  25.071 -41.481  1.00  0.00     0.261 A
HETATM    4  O1  UNL     1      24.722  26.243 -41.244  1.00  0.00    -0.268 OA
HETATM    5  N2  UNL     1      25.121  24.207 -42.126  1.00  0.00    -0.156 N
ATOM      6  H2  UNL     1      26.054  24.496 -42.423  1.00  0.00     0.187 HD
HETATM    7  C11 UNL     1      24.688  22.963 -42.376  1.00  0.00     0.681 A
HETATM    8  N3  UNL     1      25.435  22.117 -42.990  1.00  0.00    -0.226 N
ATOM      9  H3  UNL     1      25.053  21.186 -43.154  1.00  0.00     0.177 HD
HETATM   10  N4  UNL     1      23.434  22.569 -41.980  1.00  0.00    -0.195 N
ATOM     11  H4  UNL     1      23.132  21.617 -42.185  1.00  0.00     0.184 HD
ENDROOT
BRANCH   1  12
HETATM   12  C7  UNL     1      21.236  22.967 -40.913  1.00  0.00     0.115 C
BRANCH  12  13
HETATM   13  C6  UNL     1      20.728  21.761 -41.539  1.00  0.00     0.016 A
HETATM   14  N1  UNL     1      20.872  20.565 -40.987  1.00  0.00    -0.364 N
HETATM   15  C1  UNL     1      21.554  20.384 -39.754  1.00  0.00     0.155 C
HETATM   16  C2  UNL     1      20.378  19.437 -41.583  1.00  0.00     0.090 A
HETATM   17  C3  UNL     1      19.708  19.484 -42.788  1.00  0.00     0.017 A
HETATM   18  C4  UNL     1      19.550  20.718 -43.375  1.00  0.00     0.003 A
HETATM   19  C5  UNL     1      20.057  21.836 -42.751  1.00  0.00     0.025 A
ENDBRANCH  12  13
ENDBRANCH   1  12
BRANCH   8  20
HETATM   20  C12 UNL     1      26.749  22.376 -43.460  1.00  0.00     0.138 C
BRANCH  20  21
HETATM   21  C13 UNL     1      27.830  21.603 -42.713  1.00  0.00     0.022 C
BRANCH  21  22
HETATM   22  C14 UNL     1      27.254  20.300 -42.194  1.00  0.00     0.028 C
BRANCH  22  23
HETATM   23  C15 UNL     1      27.252  20.227 -40.704  1.00  0.00     0.164 C
BRANCH  23  24
HETATM   24  O2  UNL     1      27.092  21.461 -40.093  1.00  0.00    -0.401 OA
ATOM     25  H2  UNL     1      27.426  21.487 -39.204  1.00  0.00     0.209 HD
ENDBRANCH  23  24
ENDBRANCH  22  23
ENDBRANCH  21  22
ENDBRANCH  20  21
ENDBRANCH   8  20
TORSDOF 7
ENDMDL