MODEL 3
REMARK VINA RESULT: -6.892325637      1.353      2.089
REMARK  7 active torsions:
REMARK  status: ('A' for Active; 'I' for Inactive)
REMARK    1  A    between atoms: C2_2  and  C3_3
REMARK    2  A    between atoms: C3_3  and  N1_4
REMARK    3  A    between atoms: N1_4  and  C4_6
REMARK    4  A    between atoms: C6_13  and  N4_14
REMARK    5  A    between atoms: C7_16  and  C8_17
REMARK    6  A    between atoms: C8_17  and  C9_18
REMARK    7  A    between atoms: C9_18  and  C10_19
ROOT
HETATM    1  C4  UNL     1      24.159  19.941 -41.055  1.00  0.00     0.697 A
HETATM    2  N2  UNL     1      25.134  19.480 -40.230  1.00  0.00    -0.140 N
ATOM      3  H2  UNL     1      24.952  18.658 -39.653  1.00  0.00     0.189 HD
HETATM    4  C5  UNL     1      26.325  20.079 -40.156  1.00  0.00     0.352 A
HETATM    5  O1  UNL     1      27.243  19.645 -39.377  1.00  0.00    -0.246 OA
HETATM    6  N3  UNL     1      26.571  21.159 -40.909  1.00  0.00    -0.140 N
ATOM      7  H3  UNL     1      27.482  21.614 -40.849  1.00  0.00     0.189 HD
HETATM    8  C6  UNL     1      25.650  21.654 -41.737  1.00  0.00     0.700 A
HETATM    9  N5  UNL     1      24.428  21.010 -41.790  1.00  0.00    -0.022 N
ATOM     10  H5  UNL     1      23.709  21.371 -42.417  1.00  0.00     0.203 HD
ENDROOT
BRANCH   8  11
HETATM   11  N4  UNL     1      25.812  22.649 -42.461  1.00  0.00    -0.205 N
HETATM   12  C7  UNL     1      25.473  23.945 -42.708  1.00  0.00     0.079 C
ATOM     13  H4  UNL     1      26.488  22.382 -43.176  1.00  0.00     0.183 HD
BRANCH  12  14
HETATM   14  C8  UNL     1      24.556  24.679 -41.765  1.00  0.00     0.049 C
BRANCH  14  15
HETATM   15  C9  UNL     1      23.234  25.007 -42.456  1.00  0.00     0.043 C
BRANCH  15  16
HETATM   16  C10 UNL     1      22.210  23.995 -42.186  1.00  0.00    -0.058 A
HETATM   17  C11 UNL     1      21.810  23.030 -43.090  1.00  0.00     0.007 A
HETATM   18  C12 UNL     1      20.840  22.099 -42.784  1.00  0.00     0.001 A
HETATM   19  C13 UNL     1      20.223  22.094 -41.551  1.00  0.00     0.000 A
HETATM   20  C14 UNL     1      20.608  23.048 -40.633  1.00  0.00     0.001 A
HETATM   21  C15 UNL     1      21.580  23.970 -40.959  1.00  0.00     0.007 A
ENDBRANCH  15  16
ENDBRANCH  14  15
ENDBRANCH  12  14
ENDBRANCH   8  11
BRANCH   1  22
HETATM   22  N1  UNL     1      23.045  19.314 -41.072  1.00  0.00    -0.222 N
ATOM     23  H1  UNL     1      22.887  18.653 -41.833  1.00  0.00     0.178 HD
BRANCH  22  24
HETATM   24  C3  UNL     1      22.002  19.468 -40.105  1.00  0.00     0.164 C
BRANCH  24  25
HETATM   25  C2  UNL     1      20.789  18.649 -40.451  1.00  0.00    -0.017 C
HETATM   26  C1  UNL     1      20.875  17.589 -41.223  1.00  0.00     0.008 C
ENDBRANCH  24  25
ENDBRANCH  22  24
ENDBRANCH   1  22
TORSDOF 7
ENDMDL