MODEL 4
REMARK VINA RESULT: -7.307134818      1.605      2.641
REMARK  6 active torsions:
REMARK  status: ('A' for Active; 'I' for Inactive)
REMARK    1  A    between atoms: C6_6  and  C7_7
REMARK    2  A    between atoms: C7_7  and  C8_8
REMARK    3  A    between atoms: C8_8  and  C9_9
REMARK    4  A    between atoms: C9_9  and  C10_10
REMARK    5  A    between atoms: C10_10  and  C11_11
REMARK    6  A    between atoms: C11_11  and  C12_12
ROOT
HETATM    1  C9  UNL     1      22.483  23.855 -41.047  1.00  0.00     0.004 C
ENDROOT
BRANCH   1   2
HETATM    2  C8  UNL     1      21.027  24.133 -40.940  1.00  0.00     0.005 C
BRANCH   2   3
HETATM    3  C7  UNL     1      20.327  22.975 -40.216  1.00  0.00     0.041 C
BRANCH   3   4
HETATM    4  C6  UNL     1      20.226  21.742 -41.008  1.00  0.00    -0.031 A
HETATM    5  C5  UNL     1      19.594  21.800 -42.204  1.00  0.00     0.009 A
HETATM    6  C4  UNL     1      19.430  20.656 -43.077  1.00  0.00     0.002 A
HETATM    7  C3  UNL     1      19.906  19.467 -42.740  1.00  0.00     0.013 A
HETATM    8  C2  UNL     1      20.606  19.293 -41.479  1.00  0.00    -0.019 A
HETATM    9  C1  UNL     1      21.102  18.133 -41.093  1.00  0.00     0.026 C
HETATM   10  C15 UNL     1      20.777  20.463 -40.581  1.00  0.00     0.041 A
HETATM   11  N3  UNL     1      21.438  20.249 -39.520  1.00  0.00    -0.398 N
ATOM     12  H32 UNL     1      21.824  19.354 -39.221  1.00  0.00     0.156 HD
ATOM     13  H31 UNL     1      21.555  21.052 -38.903  1.00  0.00     0.156 HD
ENDBRANCH   3   4
ENDBRANCH   2   3
ENDBRANCH   1   2
BRANCH   1  14
HETATM   14  C10 UNL     1      23.057  23.356 -42.290  1.00  0.00     0.049 C
BRANCH  14  15
HETATM   15  C11 UNL     1      24.085  22.303 -42.342  1.00  0.00     0.169 C
HETATM   16  N1  UNL     1      24.684  22.234 -40.976  1.00  0.00    -0.319 N
HETATM   17  C13 UNL     1      26.000  21.733 -41.159  1.00  0.00     0.324 C
ATOM     18  H1  UNL     1      24.241  22.494 -40.096  1.00  0.00     0.166 HD
HETATM   19  O2  UNL     1      26.658  21.120 -40.279  1.00  0.00    -0.247 OA
HETATM   20  N2  UNL     1      26.378  22.067 -42.502  1.00  0.00    -0.277 N
HETATM   21  C14 UNL     1      25.304  22.762 -43.122  1.00  0.00     0.261 C
ATOM     22  H2  UNL     1      27.271  21.842 -42.940  1.00  0.00     0.173 HD
HETATM   23  O3  UNL     1      25.366  23.559 -44.082  1.00  0.00    -0.270 OA
BRANCH  15  24
HETATM   24  C12 UNL     1      23.711  20.945 -42.715  1.00  0.00     0.272 C
HETATM   25  O1  UNL     1      22.981  20.767 -43.719  1.00  0.00    -0.304 OA
ENDBRANCH  15  24
ENDBRANCH  14  15
ENDBRANCH   1  14
TORSDOF 6
ENDMDL