MODEL 4
REMARK VINA RESULT: -6.441445794      1.283      1.708
REMARK  9 active torsions:
REMARK  status: ('A' for Active; 'I' for Inactive)
REMARK    1  A    between atoms: C4_4  and  N1_5
REMARK    2  A    between atoms: N1_5  and  C5_7
REMARK    3  A    between atoms: C5_7  and  C6_8
REMARK    4  A    between atoms: C6_8  and  C7_9
REMARK    5  A    between atoms: C7_9  and  N2_10
REMARK    6  A    between atoms: C8_16  and  N4_17
REMARK    7  A    between atoms: N4_17  and  C9_19
REMARK    8  A    between atoms: C9_19  and  C10_20
REMARK    9  A    between atoms: C10_20  and  C11_21
ROOT
HETATM    1  C1  UNL     1      27.253  22.554 -43.669  1.00  0.00     0.069 C
HETATM    2  C2  UNL     1      26.120  22.301 -42.716  1.00  0.00     0.026 A
HETATM    3  C3  UNL     1      25.786  21.017 -42.338  1.00  0.00     0.073 A
HETATM    4  C4  UNL     1      24.741  20.791 -41.460  1.00  0.00     0.118 A
HETATM    5  N3  UNL     1      24.080  21.864 -41.003  1.00  0.00    -0.177 N
ATOM      6  H3  UNL     1      23.308  21.711 -40.354  1.00  0.00     0.185 HD
HETATM    7  C8  UNL     1      24.374  23.131 -41.348  1.00  0.00     0.679 A
HETATM    8  N5  UNL     1      25.393  23.315 -42.201  1.00  0.00    -0.196 N
ATOM      9  H5  UNL     1      25.631  24.269 -42.474  1.00  0.00     0.184 HD
ENDROOT
BRANCH   7  10
HETATM   10  N4  UNL     1      23.684  24.133 -40.861  1.00  0.00    -0.226 N
ATOM     11  H4  UNL     1      24.070  24.660 -40.078  1.00  0.00     0.177 HD
BRANCH  10  12
HETATM   12  C9  UNL     1      22.410  24.515 -41.386  1.00  0.00     0.142 C
BRANCH  12  13
HETATM   13  C10 UNL     1      21.245  23.875 -40.655  1.00  0.00     0.058 C
BRANCH  13  14
HETATM   14  C11 UNL     1      20.669  22.856 -41.571  1.00  0.00    -0.057 A
HETATM   15  C12 UNL     1      21.148  22.647 -42.840  1.00  0.00     0.007 A
HETATM   16  C13 UNL     1      20.591  21.682 -43.684  1.00  0.00     0.001 A
HETATM   17  C14 UNL     1      19.540  20.939 -43.204  1.00  0.00     0.000 A
HETATM   18  C15 UNL     1      19.039  21.126 -41.935  1.00  0.00     0.001 A
HETATM   19  C16 UNL     1      19.604  22.086 -41.118  1.00  0.00     0.007 A
ENDBRANCH  13  14
ENDBRANCH  12  13
ENDBRANCH  10  12
ENDBRANCH   7  10
BRANCH   4  20
HETATM   20  N1  UNL     1      24.484  19.583 -41.150  1.00  0.00    -0.376 N
ATOM     21  H1  UNL     1      25.164  18.873 -41.423  1.00  0.00     0.161 HD
BRANCH  20  22
HETATM   22  C5  UNL     1      23.305  19.138 -40.443  1.00  0.00     0.123 C
BRANCH  22  23
HETATM   23  C6  UNL     1      22.086  19.121 -41.326  1.00  0.00     0.047 C
BRANCH  23  24
HETATM   24  C7  UNL     1      21.098  18.056 -40.896  1.00  0.00     0.231 C
BRANCH  24  25
HETATM   25  N2  UNL     1      20.218  17.673 -41.965  1.00  0.00    -0.079 N
ATOM     26  H23 UNL     1      20.713  17.139 -42.680  1.00  0.00     0.274 HD
ATOM     27  H22 UNL     1      19.556  16.960 -41.661  1.00  0.00     0.274 HD
ATOM     28  H21 UNL     1      19.736  18.475 -42.371  1.00  0.00     0.274 HD
ENDBRANCH  24  25
ENDBRANCH  23  24
ENDBRANCH  22  23
ENDBRANCH  20  22
ENDBRANCH   4  20
TORSDOF 9
ENDMDL