MODEL 2
REMARK VINA RESULT: -6.556919863      2.559      4.075
REMARK  6 active torsions:
REMARK  status: ('A' for Active; 'I' for Inactive)
REMARK    1  A    between atoms: S1_2  and  N1_4
REMARK    2  A    between atoms: S1_2  and  N3_13
REMARK    3  A    between atoms: N3_13  and  C6_15
REMARK    4  A    between atoms: C6_15  and  C7_16
REMARK    5  A    between atoms: C7_16  and  C8_17
REMARK    6  A    between atoms: C8_17  and  C9_18
ROOT
HETATM    1  O1  UNL     1      25.292  21.916 -40.799  1.00  0.00    -0.182 OA
HETATM    2  S1  UNL     1      24.182  20.990 -41.191  1.00  0.00     0.320 S
HETATM    3  O2  UNL     1      24.299  19.665 -40.469  1.00  0.00    -0.182 OA
ENDROOT
BRANCH   2   4
HETATM    4  N1  UNL     1      22.650  21.650 -40.861  1.00  0.00    -0.253 N
HETATM    5  C1  UNL     1      21.619  21.169 -41.458  1.00  0.00     0.115 A
HETATM    6  C2  UNL     1      21.624  20.152 -42.358  1.00  0.00     0.049 A
HETATM    7  N2  UNL     1      20.413  21.725 -41.167  1.00  0.00    -0.352 N
HETATM    8  C3  UNL     1      20.485  19.669 -42.975  1.00  0.00     0.005 A
HETATM    9  C4  UNL     1      19.283  20.256 -42.654  1.00  0.00     0.017 A
HETATM   10  C5  UNL     1      19.280  21.289 -41.742  1.00  0.00     0.089 A
ATOM     11  H2  UNL     1      20.367  22.492 -40.496  1.00  0.00     0.166 HD
ATOM     12  H1  UNL     1      22.551  22.420 -40.198  1.00  0.00     0.182 HD
ENDBRANCH   2   4
BRANCH   2  13
HETATM   13  N3  UNL     1      24.366  20.603 -42.887  1.00  0.00    -0.303 N
ATOM     14  H3  UNL     1      23.980  19.804 -43.389  1.00  0.00     0.173 HD
BRANCH  13  15
HETATM   15  C6  UNL     1      25.195  21.678 -43.421  1.00  0.00     0.134 C
BRANCH  15  16
HETATM   16  C7  UNL     1      24.495  22.513 -44.428  1.00  0.00     0.026 C
BRANCH  16  17
HETATM   17  C8  UNL     1      24.751  23.967 -44.134  1.00  0.00     0.060 C
BRANCH  17  18
HETATM   18  C9  UNL     1      24.086  24.430 -42.901  1.00  0.00     0.025 A
HETATM   19  C10 UNL     1      22.727  24.605 -42.673  1.00  0.00     0.113 A
HETATM   20  N4  UNL     1      22.535  25.041 -41.417  1.00  0.00    -0.360 N
HETATM   21  C11 UNL     1      23.744  25.152 -40.826  1.00  0.00     0.180 A
ATOM     22  H4  UNL     1      21.634  25.251 -40.985  1.00  0.00     0.166 HD
HETATM   23  N5  UNL     1      24.663  24.780 -41.734  1.00  0.00    -0.355 N
ATOM     24  H5  UNL     1      25.668  24.764 -41.562  1.00  0.00     0.166 HD
ENDBRANCH  17  18
ENDBRANCH  16  17
ENDBRANCH  15  16
ENDBRANCH  13  15
ENDBRANCH   2  13
TORSDOF 6
ENDMDL