MODEL 3
REMARK VINA RESULT: -6.676194725      1.543      1.847
REMARK  6 active torsions:
REMARK  status: ('A' for Active; 'I' for Inactive)
REMARK       I    between atoms: C1_4  and  N3_6
REMARK    1  A    between atoms: N3_6  and  N4_8
REMARK    2  A    between atoms: C2_10  and  C3_11
REMARK    3  A    between atoms: N5_14  and  C6_15
REMARK    4  A    between atoms: C6_15  and  C7_16
REMARK    5  A    between atoms: C7_16  and  C8_17
REMARK    6  A    between atoms: C8_17  and  N6_18
ROOT
HETATM    1  C3  UNL     1      19.977  21.536 -42.203  1.00  0.00    -0.017 A
HETATM    2  C4  UNL     1      19.942  22.187 -40.958  1.00  0.00     0.030 A
HETATM    3  C5  UNL     1      20.823  23.186 -40.642  1.00  0.00     0.091 A
HETATM    4  N5  UNL     1      21.764  23.599 -41.497  1.00  0.00    -0.366 N
HETATM    5  C12 UNL     1      21.819  22.999 -42.682  1.00  0.00     0.091 A
HETATM    6  C13 UNL     1      20.944  21.973 -43.057  1.00  0.00     0.030 A
ENDROOT
BRANCH   1   7
HETATM    7  C2  UNL     1      19.008  20.489 -42.456  1.00  0.00     0.118 C
HETATM    8  N4  UNL     1      19.187  19.252 -42.453  1.00  0.00    -0.309 N
ATOM      9  H4  UNL     1      18.338  18.729 -42.664  1.00  0.00     0.186 HD
BRANCH   8  10
HETATM   10  N3  UNL     1      20.249  18.457 -42.235  1.00  0.00    -0.274 N
HETATM   11  C1  UNL     1      20.940  18.422 -40.969  1.00  0.00     0.200 C
HETATM   12  N1  UNL     1      22.178  18.119 -40.971  1.00  0.00    -0.372 N
HETATM   13  N2  UNL     1      20.258  18.718 -39.765  1.00  0.00    -0.062 NA
ATOM     14  H12 UNL     1      22.667  18.094 -40.076  1.00  0.00     0.158 HD
ATOM     15  H11 UNL     1      22.670  17.906 -41.839  1.00  0.00     0.158 HD
ATOM     16  H3  UNL     1      20.579  17.857 -42.991  1.00  0.00     0.189 HD
ENDBRANCH   8  10
ENDBRANCH   1   7
BRANCH   4  17
HETATM   17  C6  UNL     1      22.688  24.659 -41.143  1.00  0.00     0.129 C
BRANCH  17  18
HETATM   18  C7  UNL     1      23.370  25.115 -42.389  1.00  0.00     0.041 C
BRANCH  18  19
HETATM   19  C8  UNL     1      24.874  25.171 -42.253  1.00  0.00     0.138 C
BRANCH  19  20
HETATM   20  N6  UNL     1      25.507  23.999 -42.876  1.00  0.00    -0.328 N
HETATM   21  C9  UNL     1      26.129  23.930 -44.049  1.00  0.00     0.099 A
HETATM   22  C10 UNL     1      26.637  22.746 -44.422  1.00  0.00     0.026 A
HETATM   23  C11 UNL     1      26.469  21.700 -43.554  1.00  0.00     0.069 A
HETATM   24  S1  UNL     1      25.611  22.435 -42.270  1.00  0.00    -0.025 SA
ENDBRANCH  19  20
ENDBRANCH  18  19
ENDBRANCH  17  18
ENDBRANCH   4  17
TORSDOF 6
ENDMDL