MODEL 4
REMARK VINA RESULT: -6.265816006      3.834      9.840
REMARK  9 active torsions:
REMARK  status: ('A' for Active; 'I' for Inactive)
REMARK       I    between atoms: C2_2  and  N1_4
REMARK    1  A    between atoms: N1_4  and  C3_6
REMARK    2  A    between atoms: C9_12  and  C10_13
REMARK    3  A    between atoms: C10_13  and  C12_15
REMARK    4  A    between atoms: C12_15  and  C13_16
REMARK    5  A    between atoms: C13_16  and  C14_17
REMARK    6  A    between atoms: C14_17  and  O2_20
REMARK    7  A    between atoms: C19_24  and  O3_25
REMARK    8  A    between atoms: O3_25  and  C20_26
REMARK    9  A    between atoms: C24_32  and  O6_33
ROOT
HETATM    1  C3  UNL     1      -5.527  36.251   1.146  1.00  0.00     0.087 C
HETATM    2  C4  UNL     1      -5.002  35.234   2.130  1.00  0.00     0.033 C
HETATM    3  C5  UNL     1      -5.626  35.711   3.431  1.00  0.00     0.030 C
HETATM    4  C6  UNL     1      -4.787  35.339   4.569  1.00  0.00     0.004 C
HETATM    5  C7  UNL     1      -3.341  35.650   4.542  1.00  0.00     0.006 C
HETATM    6  C8  UNL     1      -2.916  35.582   6.027  1.00  0.00     0.006 C
HETATM    7  C9  UNL     1      -4.201  35.313   6.726  1.00  0.00     0.000 C
HETATM    8  C17 UNL     1      -5.224  36.005   5.898  1.00  0.00    -0.006 C
HETATM    9  C18 UNL     1      -6.625  35.456   6.240  1.00  0.00     0.019 C
HETATM   10  C19 UNL     1      -5.226  37.454   5.747  1.00  0.00     0.180 C
HETATM   11  C22 UNL     1      -5.248  38.008   4.333  1.00  0.00     0.140 A
HETATM   12  C23 UNL     1      -4.619  39.245   3.950  1.00  0.00     0.213 A
HETATM   13  O5  UNL     1      -5.938  39.349   4.360  1.00  0.00    -0.369 OA
HETATM   14  C24 UNL     1      -5.914  37.177   3.315  1.00  0.00     0.099 C
HETATM   15  C25 UNL     1      -5.288  37.522   1.950  1.00  0.00     0.066 C
ENDROOT
BRANCH   7  16
HETATM   16  C10 UNL     1      -4.249  35.275   8.179  1.00  0.00    -0.014 C
HETATM   17  C11 UNL     1      -3.189  35.973   8.948  1.00  0.00     0.010 C
BRANCH  16  18
HETATM   18  C12 UNL     1      -4.277  33.818   8.617  1.00  0.00     0.007 C
BRANCH  18  19
HETATM   19  C13 UNL     1      -4.495  33.589  10.059  1.00  0.00     0.037 C
BRANCH  19  20
HETATM   20  C14 UNL     1      -4.681  32.068  10.231  1.00  0.00     0.051 C
HETATM   21  C15 UNL     1      -5.007  31.435   8.893  1.00  0.00     0.045 C
HETATM   22  C16 UNL     1      -5.840  31.785  11.161  1.00  0.00     0.045 C
BRANCH  20  23
HETATM   23  O2  UNL     1      -3.534  31.520  10.774  1.00  0.00    -0.391 OA
ATOM     24  H2  UNL     1      -3.756  30.731  11.256  1.00  0.00     0.210 HD
ENDBRANCH  20  23
ENDBRANCH  19  20
ENDBRANCH  18  19
ENDBRANCH  16  18
ENDBRANCH   7  16
BRANCH  10  25
HETATM   25  O3  UNL     1      -6.415  37.925   6.430  1.00  0.00    -0.312 OA
BRANCH  25  26
HETATM   26  C20 UNL     1      -6.380  38.494   7.661  1.00  0.00     0.255 C
HETATM   27  C21 UNL     1      -5.155  39.112   8.258  1.00  0.00     0.126 C
HETATM   28  O4  UNL     1      -7.402  38.525   8.363  1.00  0.00    -0.266 OA
ENDBRANCH  25  26
ENDBRANCH  10  25
BRANCH  14  29
HETATM   29  O6  UNL     1      -7.278  37.444   3.165  1.00  0.00    -0.386 OA
ATOM     30  H6  UNL     1      -7.824  36.834   3.646  1.00  0.00     0.210 HD
ENDBRANCH  14  29
BRANCH   1  31
HETATM   31  N1  UNL     1      -4.825  36.217  -0.090  1.00  0.00    -0.357 N
HETATM   32  C2  UNL     1      -5.077  35.438  -1.226  1.00  0.00     0.213 C
HETATM   33  C1  UNL     1      -4.236  35.520  -2.467  1.00  0.00     0.117 C
HETATM   34  O1  UNL     1      -6.024  34.627  -1.267  1.00  0.00    -0.274 OA
ATOM     35  H1  UNL     1      -4.027  36.848  -0.160  1.00  0.00     0.162 HD
ENDBRANCH   1  31
TORSDOF 9
ENDMDL