MODEL 4
REMARK VINA RESULT: -5.601616571      6.986     11.462
REMARK  7 active torsions:
REMARK  status: ('A' for Active; 'I' for Inactive)
REMARK    1  A    between atoms: C2_2  and  C4_4
REMARK    2  A    between atoms: C5_5  and  O1_6
REMARK    3  A    between atoms: C13_16  and  C15_18
REMARK    4  A    between atoms: C17_23  and  O6_24
REMARK    5  A    between atoms: O6_24  and  C18_25
REMARK    6  A    between atoms: C18_25  and  C19_26
REMARK    7  A    between atoms: C21_28  and  O7_29
ROOT
HETATM    1  C4  UNL     1      -4.733  32.449  -6.823  1.00  0.00     0.054 C
HETATM    2  C5  UNL     1      -3.726  31.620  -6.090  1.00  0.00     0.196 C
HETATM    3  C6  UNL     1      -3.264  32.547  -4.959  1.00  0.00     0.161 C
HETATM    4  O2  UNL     1      -2.138  32.605  -4.638  1.00  0.00    -0.295 OA
HETATM    5  C7  UNL     1      -4.546  33.147  -4.590  1.00  0.00     0.071 C
HETATM    6  C8  UNL     1      -4.839  33.738  -5.995  1.00  0.00     0.008 C
HETATM    7  C9  UNL     1      -6.141  34.413  -6.096  1.00  0.00     0.007 C
HETATM    8  C10 UNL     1      -6.822  34.272  -4.756  1.00  0.00     0.006 C
HETATM    9  C11 UNL     1      -5.935  34.899  -3.674  1.00  0.00     0.005 C
HETATM   10  C12 UNL     1      -4.633  34.173  -3.539  1.00  0.00     0.047 C
HETATM   11  C13 UNL     1      -4.262  33.755  -2.177  1.00  0.00     0.150 C
HETATM   12  C14 UNL     1      -3.798  32.296  -2.042  1.00  0.00     0.058 C
HETATM   13  O5  UNL     1      -5.271  33.832  -1.198  1.00  0.00    -0.360 OA
HETATM   14  C16 UNL     1      -5.860  35.038  -1.219  1.00  0.00     0.163 C
HETATM   15  C17 UNL     1      -6.658  35.428   0.028  1.00  0.00     0.179 C
HETATM   16  C21 UNL     1      -6.677  36.973  -0.052  1.00  0.00     0.149 C
HETATM   17  C22 UNL     1      -6.856  37.394  -1.475  1.00  0.00     0.035 C
HETATM   18  C23 UNL     1      -7.517  36.368  -2.358  1.00  0.00     0.015 C
HETATM   19  C24 UNL     1      -6.757  35.065  -2.435  1.00  0.00    -0.011 C
HETATM   20  C25 UNL     1      -7.780  33.944  -2.417  1.00  0.00     0.018 C
ENDROOT
BRANCH  11  21
HETATM   21  C15 UNL     1      -3.099  34.528  -1.600  1.00  0.00     0.209 C
HETATM   22  O3  UNL     1      -2.502  35.451  -2.209  1.00  0.00    -0.646 OA
HETATM   23  O4  UNL     1      -2.628  34.241  -0.344  1.00  0.00    -0.646 OA
ENDBRANCH  11  21
BRANCH  15  24
HETATM   24  O6  UNL     1      -6.108  34.924   1.115  1.00  0.00    -0.381 OA
BRANCH  24  25
HETATM   25  C18 UNL     1      -6.780  34.344   2.123  1.00  0.00     0.168 C
BRANCH  25  26
HETATM   26  C19 UNL     1      -8.055  33.639   1.876  1.00  0.00     0.022 C
HETATM   27  C20 UNL     1      -8.016  32.285   1.258  1.00  0.00     0.007 C
ENDBRANCH  25  26
ENDBRANCH  24  25
ENDBRANCH  15  24
BRANCH   2  28
HETATM   28  O1  UNL     1      -4.425  30.596  -5.403  1.00  0.00    -0.387 OA
ATOM     29  H1  UNL     1      -3.784  30.056  -4.956  1.00  0.00     0.210 HD
ENDBRANCH   2  28
BRANCH   1  30
HETATM   30  C2  UNL     1      -4.451  32.738  -8.233  1.00  0.00    -0.086 C
HETATM   31  C1  UNL     1      -3.401  33.415  -8.596  1.00  0.00     0.014 C
HETATM   32  C3  UNL     1      -5.384  32.248  -9.323  1.00  0.00     0.043 C
ENDBRANCH   1  30
BRANCH  16  33
HETATM   33  O7  UNL     1      -5.417  37.434   0.387  1.00  0.00    -0.393 OA
ATOM     34  H7  UNL     1      -5.507  38.360   0.584  1.00  0.00     0.210 HD
ENDBRANCH  16  33
TORSDOF 7
ENDMDL