MODEL 2
REMARK VINA RESULT: -7.361457213      2.109      3.985
REMARK  8 active torsions:
REMARK  status: ('A' for Active; 'I' for Inactive)
REMARK       I    between atoms: C1_2  and  N1_3
REMARK       I    between atoms: C1_2  and  N7_29
REMARK    1  A    between atoms: N1_3  and  C2_5
REMARK    2  A    between atoms: C2_5  and  O2_6
REMARK    3  A    between atoms: C2_5  and  C3_8
REMARK    4  A    between atoms: N5_20  and  C8_21
REMARK    5  A    between atoms: C8_21  and  C9_22
REMARK    6  A    between atoms: C9_22  and  C10_23
REMARK    7  A    between atoms: C10_23  and  N6_24
REMARK    8  A    between atoms: N7_29  and  C15_31
ROOT
HETATM    1  C3  UNL     1      -5.335  34.666   7.147  1.00  0.00     0.166 A
HETATM    2  N2  UNL     1      -5.788  33.347   7.098  1.00  0.00    -0.323 N
ATOM      3  H2  UNL     1      -6.373  32.956   6.360  1.00  0.00     0.169 HD
HETATM    4  C4  UNL     1      -5.345  32.678   8.152  1.00  0.00     0.141 A
HETATM    5  N3  UNL     1      -5.506  31.377   8.522  1.00  0.00    -0.336 N
ATOM      6  H3  UNL     1      -6.063  30.732   7.963  1.00  0.00     0.168 HD
HETATM    7  C5  UNL     1      -4.906  30.981   9.646  1.00  0.00     0.185 A
HETATM    8  N4  UNL     1      -4.173  31.807  10.391  1.00  0.00    -0.318 N
ATOM      9  H4  UNL     1      -3.734  31.453  11.241  1.00  0.00     0.169 HD
HETATM   10  C6  UNL     1      -3.994  33.124  10.044  1.00  0.00     0.277 A
HETATM   11  O3  UNL     1      -3.296  33.837  10.783  1.00  0.00    -0.266 OA
HETATM   12  C7  UNL     1      -4.605  33.548   8.893  1.00  0.00     0.153 A
HETATM   13  N5  UNL     1      -4.610  34.772   8.261  1.00  0.00    -0.300 N
ENDROOT
BRANCH   1  14
HETATM   14  C2  UNL     1      -5.711  35.573   6.096  1.00  0.00     0.190 C
BRANCH  14  15
HETATM   15  N1  UNL     1      -4.985  36.028   5.003  1.00  0.00    -0.286 N
HETATM   16  C1  UNL     1      -5.325  35.919   3.637  1.00  0.00     0.322 C
HETATM   17  O1  UNL     1      -4.473  36.427   2.805  1.00  0.00    -0.247 OA
HETATM   18  N7  UNL     1      -6.459  35.333   3.051  1.00  0.00    -0.338 N
ATOM     19  H7  UNL     1      -7.177  34.910   3.641  1.00  0.00     0.164 HD
ATOM     20  H1  UNL     1      -4.104  36.497   5.212  1.00  0.00     0.172 HD
BRANCH  18  21
HETATM   21  C15 UNL     1      -6.614  35.327   1.566  1.00  0.00     0.086 C
HETATM   22  C16 UNL     1      -6.895  36.747   1.197  1.00  0.00     0.025 C
HETATM   23  C17 UNL     1      -6.980  37.063  -0.245  1.00  0.00     0.002 C
HETATM   24  C18 UNL     1      -6.164  36.260  -1.184  1.00  0.00     0.000 C
HETATM   25  C19 UNL     1      -7.017  35.422  -2.147  1.00  0.00     0.000 C
HETATM   26  C20 UNL     1      -6.904  33.945  -1.834  1.00  0.00     0.000 C
HETATM   27  C21 UNL     1      -8.028  33.486  -0.930  1.00  0.00     0.000 C
HETATM   28  C22 UNL     1      -7.569  33.258   0.497  1.00  0.00     0.002 C
HETATM   29  C23 UNL     1      -7.816  34.466   1.329  1.00  0.00     0.025 C
ENDBRANCH  18  21
ENDBRANCH  14  15
BRANCH  14  30
HETATM   30  O2  UNL     1      -6.939  36.024   6.210  1.00  0.00    -0.343 OA
ATOM     31  H2  UNL     1      -7.575  35.672   5.598  1.00  0.00     0.219 HD
ENDBRANCH  14  30
ENDBRANCH   1  14
BRANCH  13  32
HETATM   32  C8  UNL     1      -3.900  35.886   8.740  1.00  0.00     0.074 C
BRANCH  32  33
HETATM   33  C9  UNL     1      -2.680  36.342   8.024  1.00  0.00     0.075 C
BRANCH  33  34
HETATM   34  C10 UNL     1      -1.539  35.405   7.862  1.00  0.00     0.277 C
BRANCH  34  35
HETATM   35  N6  UNL     1      -1.021  35.273   6.533  1.00  0.00     0.088 N
HETATM   36  C11 UNL     1      -1.875  34.284   5.845  1.00  0.00     0.272 C
HETATM   37  C12 UNL     1      -1.413  34.469   4.415  1.00  0.00     0.032 C
HETATM   38  C13 UNL     1      -1.349  35.980   4.300  1.00  0.00     0.032 C
HETATM   39  C14 UNL     1      -1.271  36.466   5.731  1.00  0.00     0.272 C
ENDBRANCH  34  35
ENDBRANCH  33  34
ENDBRANCH  32  33
ENDBRANCH  13  32
TORSDOF 8
ENDMDL