MODEL 3
REMARK VINA RESULT: -6.983227691      1.304      2.767
REMARK  7 active torsions:
REMARK  status: ('A' for Active; 'I' for Inactive)
REMARK    1  A    between atoms: C3_3  and  O1_4
REMARK    2  A    between atoms: C11_14  and  C13_16
REMARK    3  A    between atoms: C14_17  and  C15_18
REMARK    4  A    between atoms: C19_22  and  O3_23
REMARK    5  A    between atoms: O3_23  and  S1_24
REMARK    6  A    between atoms: S1_24  and  N1_25
REMARK    7  A    between atoms: C20_30  and  C22_32
ROOT
HETATM    1  C15 UNL     1      -7.464  36.124  -1.722  1.00  0.00     0.029 C
HETATM    2  C16 UNL     1      -6.622  37.163  -1.031  1.00  0.00     0.010 C
HETATM    3  C17 UNL     1      -6.797  36.900   0.473  1.00  0.00     0.003 C
HETATM    4  C18 UNL     1      -6.346  35.520   0.812  1.00  0.00     0.035 C
HETATM    5  C19 UNL     1      -7.017  34.440   0.003  1.00  0.00     0.163 C
HETATM    6  C20 UNL     1      -6.973  34.748  -1.488  1.00  0.00     0.079 C
HETATM    7  C21 UNL     1      -7.943  33.783  -2.149  1.00  0.00     0.030 C
ENDROOT
BRANCH   1   8
HETATM    8  C14 UNL     1      -7.805  36.462  -3.112  1.00  0.00    -0.024 C
HETATM    9  C13 UNL     1      -7.786  37.644  -3.661  1.00  0.00    -0.018 C
BRANCH   9  10
HETATM   10  C11 UNL     1      -8.139  37.932  -5.070  1.00  0.00     0.004 C
HETATM   11  C4  UNL     1      -8.313  36.722  -5.930  1.00  0.00     0.149 C
HETATM   12  O2  UNL     1      -9.174  37.040  -6.971  1.00  0.00    -0.350 OA
HETATM   13  C5  UNL     1      -7.113  36.082  -6.467  1.00  0.00     0.011 C
HETATM   14  C3  UNL     1      -8.841  36.292  -8.060  1.00  0.00     0.288 C
HETATM   15  C2  UNL     1      -7.575  35.595  -7.809  1.00  0.00    -0.024 C
HETATM   16  C1  UNL     1      -6.983  34.736  -8.595  1.00  0.00     0.020 C
HETATM   17  C6  UNL     1      -6.738  34.805  -5.703  1.00  0.00     0.023 C
HETATM   18  C7  UNL     1      -5.914  36.919  -6.685  1.00  0.00     0.017 C
HETATM   19  C8  UNL     1      -5.809  38.144  -5.848  1.00  0.00     0.006 C
HETATM   20  C9  UNL     1      -7.127  38.870  -5.689  1.00  0.00    -0.004 C
HETATM   21  C10 UNL     1      -6.870  40.066  -4.813  1.00  0.00     0.011 C
HETATM   22  C12 UNL     1      -9.482  38.679  -5.149  1.00  0.00     0.022 C
BRANCH  14  23
HETATM   23  O1  UNL     1      -8.703  37.027  -9.236  1.00  0.00    -0.367 OA
ATOM     24  H1  UNL     1      -7.871  37.484  -9.200  1.00  0.00     0.213 HD
ENDBRANCH  14  23
ENDBRANCH   9  10
ENDBRANCH   1   8
BRANCH   6  25
HETATM   25  C22 UNL     1      -5.628  34.443  -1.961  1.00  0.00     0.184 C
HETATM   26  O6  UNL     1      -4.978  35.012  -2.845  1.00  0.00    -0.647 OA
HETATM   27  O7  UNL     1      -4.983  33.358  -1.330  1.00  0.00    -0.647 OA
ENDBRANCH   6  25
BRANCH   5  28
HETATM   28  O3  UNL     1      -8.304  34.182   0.397  1.00  0.00    -0.253 OA
BRANCH  28  29
HETATM   29  S1  UNL     1      -8.465  32.933   1.474  1.00  0.00     0.356 S
HETATM   30  O4  UNL     1      -7.385  31.923   1.206  1.00  0.00    -0.176 OA
HETATM   31  O5  UNL     1      -9.776  32.216   1.343  1.00  0.00    -0.176 OA
BRANCH  29  32
HETATM   32  N1  UNL     1      -8.324  33.436   3.119  1.00  0.00    -0.306 N
ATOM     33  H12 UNL     1      -7.467  33.836   3.500  1.00  0.00     0.171 HD
ATOM     34  H11 UNL     1      -9.179  33.290   3.656  1.00  0.00     0.171 HD
ENDBRANCH  29  32
ENDBRANCH  28  29
ENDBRANCH   5  28
TORSDOF 7
ENDMDL