MODEL 1
REMARK VINA RESULT: -7.091682281      0.000      0.000
REMARK  4 active torsions:
REMARK  status: ('A' for Active; 'I' for Inactive)
REMARK    1  A    between atoms: O1_2  and  C2_3
REMARK    2  A    between atoms: C8_9  and  C10_11
REMARK    3  A    between atoms: C10_11  and  C11_12
REMARK    4  A    between atoms: C20_28  and  C21_29
ROOT
HETATM    1  C2  UNL     1      -8.813  35.479  -4.915  1.00  0.00     0.122 C
HETATM    2  C3  UNL     1      -7.491  35.434  -5.645  1.00  0.00     0.034 C
HETATM    3  C4  UNL     1      -6.627  34.412  -4.981  1.00  0.00     0.035 C
HETATM    4  C5  UNL     1      -6.111  34.913  -3.612  1.00  0.00     0.048 C
HETATM    5  C6  UNL     1      -5.423  33.682  -3.015  1.00  0.00     0.035 C
HETATM    6  C7  UNL     1      -4.294  33.985  -2.113  1.00  0.00     0.033 C
HETATM    7  C8  UNL     1      -2.904  33.848  -2.691  1.00  0.00     0.034 C
HETATM    8  C9  UNL     1      -2.427  32.457  -2.850  1.00  0.00     0.038 C
HETATM    9  N1  UNL     1      -2.930  34.606  -3.941  1.00  0.00    -0.334 N
ATOM     10  H1  UNL     1      -2.238  34.319  -4.633  1.00  0.00     0.165 HD
HETATM   11  C14 UNL     1      -3.770  35.680  -4.341  1.00  0.00     0.317 C
HETATM   12  O3  UNL     1      -3.236  36.537  -5.129  1.00  0.00    -0.247 OA
HETATM   13  N2  UNL     1      -5.121  35.905  -3.967  1.00  0.00    -0.333 N
ATOM     14  H2  UNL     1      -5.428  36.877  -3.946  1.00  0.00     0.165 HD
HETATM   15  C15 UNL     1      -7.292  35.397  -2.888  1.00  0.00     0.038 C
HETATM   16  C16 UNL     1      -7.447  36.883  -2.745  1.00  0.00     0.024 C
HETATM   17  C17 UNL     1      -6.696  37.191  -1.473  1.00  0.00     0.046 C
HETATM   18  C18 UNL     1      -7.084  36.039  -0.632  1.00  0.00     0.023 A
HETATM   19  C19 UNL     1      -7.433  34.979  -1.461  1.00  0.00     0.075 A
HETATM   20  O4  UNL     1      -7.793  33.893  -0.842  1.00  0.00    -0.306 OA
HETATM   21  C20 UNL     1      -7.861  33.701   0.443  1.00  0.00     0.155 A
HETATM   22  C22 UNL     1      -7.523  34.728   1.292  1.00  0.00     0.099 A
HETATM   23  C23 UNL     1      -7.126  35.924   0.740  1.00  0.00     0.183 A
HETATM   24  O7  UNL     1      -6.810  36.884   1.506  1.00  0.00    -0.288 OA
HETATM   25  C24 UNL     1      -8.606  34.913  -3.538  1.00  0.00     0.051 C
ENDROOT
BRANCH   1  26
HETATM   26  O1  UNL     1      -9.385  36.721  -4.923  1.00  0.00    -0.391 OA
HETATM   27  C1  UNL     1     -10.737  36.612  -4.620  1.00  0.00     0.202 C
ENDBRANCH   1  26
BRANCH   7  28
HETATM   28  C10 UNL     1      -2.012  34.642  -1.764  1.00  0.00     0.070 C
BRANCH  28  29
HETATM   29  C11 UNL     1      -0.564  34.297  -1.828  1.00  0.00     0.081 A
HETATM   30  C12 UNL     1       0.293  34.552  -3.013  1.00  0.00     0.048 C
HETATM   31  C13 UNL     1       0.031  33.487  -0.672  1.00  0.00     0.206 A
HETATM   32  O2  UNL     1       0.062  34.867  -0.622  1.00  0.00    -0.375 OA
ENDBRANCH  28  29
ENDBRANCH   7  28
BRANCH  21  33
HETATM   33  C21 UNL     1      -8.286  32.422   1.013  1.00  0.00     0.234 C
HETATM   34  O5  UNL     1      -7.479  31.684   1.609  1.00  0.00    -0.642 OA
HETATM   35  O6  UNL     1      -9.599  32.028   0.887  1.00  0.00    -0.642 OA
ENDBRANCH  21  33
TORSDOF 4
ENDMDL