MODEL 4
REMARK VINA RESULT: -8.174334499      1.116      1.956
REMARK  6 active torsions:
REMARK  status: ('A' for Active; 'I' for Inactive)
REMARK    1  A    between atoms: N1_2  and  C2_5
REMARK    2  A    between atoms: C9_12  and  C10_13
REMARK    3  A    between atoms: C10_13  and  O1_14
REMARK    4  A    between atoms: O1_14  and  C11_15
REMARK    5  A    between atoms: C15_19  and  N2_20
REMARK    6  A    between atoms: N5_33  and  O2_34
ROOT
HETATM    1  C11 UNL     1      -7.168  34.200  -1.431  1.00  0.00     0.071 A
HETATM    2  C12 UNL     1      -6.274  35.008  -0.680  1.00  0.00     0.038 A
HETATM    3  C13 UNL     1      -6.251  35.015   0.686  1.00  0.00     0.020 A
HETATM    4  C14 UNL     1      -7.101  34.235   1.416  1.00  0.00     0.040 A
HETATM    5  C15 UNL     1      -7.342  34.003   2.755  1.00  0.00     0.132 A
HETATM    6  N4  UNL     1      -8.332  33.102   2.803  1.00  0.00    -0.258 N
ATOM      7  H4  UNL     1      -8.725  32.737   3.671  1.00  0.00     0.191 HD
HETATM    8  N5  UNL     1      -8.741  32.740   1.603  1.00  0.00    -0.161 N
HETATM    9  C23 UNL     1      -7.985  33.435   0.718  1.00  0.00     0.098 A
HETATM   10  C24 UNL     1      -8.007  33.429  -0.657  1.00  0.00     0.071 A
ENDROOT
BRANCH   1  11
HETATM   11  O1  UNL     1      -7.115  34.265  -2.749  1.00  0.00    -0.350 OA
BRANCH  11  12
HETATM   12  C10 UNL     1      -7.742  34.402  -3.880  1.00  0.00     0.185 C
BRANCH  12  13
HETATM   13  C9  UNL     1      -8.267  35.705  -4.403  1.00  0.00    -0.017 C
HETATM   14  C8  UNL     1      -7.502  35.925  -5.731  1.00  0.00     0.018 C
HETATM   15  C7  UNL     1      -8.062  37.077  -6.493  1.00  0.00     0.018 C
HETATM   16  C2  UNL     1      -7.886  38.347  -5.674  1.00  0.00     0.193 C
HETATM   17  C6  UNL     1      -9.540  36.947  -6.798  1.00  0.00     0.011 C
HETATM   18  C3  UNL     1      -8.538  38.144  -4.351  1.00  0.00     0.018 C
HETATM   19  C4  UNL     1     -10.039  37.964  -4.585  1.00  0.00     0.011 C
HETATM   20  C26 UNL     1      -8.061  36.916  -3.598  1.00  0.00     0.018 C
HETATM   21  C5  UNL     1     -10.245  36.773  -5.470  1.00  0.00    -0.013 C
HETATM   22  C25 UNL     1      -9.715  35.534  -4.824  1.00  0.00     0.016 C
BRANCH  16  23
HETATM   23  N1  UNL     1      -6.521  38.769  -5.611  1.00  0.00    -0.074 N
HETATM   24  C1  UNL     1      -6.129  39.205  -6.949  1.00  0.00     0.267 C
ATOM     25  H12 UNL     1      -5.901  38.053  -5.231  1.00  0.00     0.277 HD
ATOM     26  H11 UNL     1      -6.358  39.481  -4.900  1.00  0.00     0.277 HD
ENDBRANCH  16  23
ENDBRANCH  12  13
ENDBRANCH  11  12
ENDBRANCH   1  11
BRANCH   8  27
HETATM   27  O2  UNL     1      -9.745  31.828   1.291  1.00  0.00    -0.267 OA
ATOM     28  H2  UNL     1     -10.422  31.919   0.631  1.00  0.00     0.247 HD
ENDBRANCH   8  27
BRANCH   5  29
HETATM   29  N2  UNL     1      -6.646  34.620   3.851  1.00  0.00    -0.365 N
HETATM   30  C16 UNL     1      -6.751  34.045   5.202  1.00  0.00     0.125 C
HETATM   31  C17 UNL     1      -6.345  35.181   6.122  1.00  0.00     0.032 C
HETATM   32  C18 UNL     1      -5.334  35.889   5.287  1.00  0.00     0.003 C
HETATM   33  C19 UNL     1      -5.105  37.318   5.723  1.00  0.00     0.040 C
HETATM   34  C21 UNL     1      -3.965  35.282   5.496  1.00  0.00     0.243 C
HETATM   35  C22 UNL     1      -5.807  35.771   3.883  1.00  0.00     0.135 C
HETATM   36  C20 UNL     1      -4.110  37.156   6.864  1.00  0.00     0.233 C
HETATM   37  N3  UNL     1      -3.573  35.833   6.773  1.00  0.00    -0.074 N
ATOM     38  H32 UNL     1      -2.564  35.804   6.923  1.00  0.00     0.277 HD
ATOM     39  H31 UNL     1      -3.844  35.241   7.558  1.00  0.00     0.277 HD
ENDBRANCH   5  29
TORSDOF 6
ENDMDL