MODEL 4
REMARK VINA RESULT: -6.662097315      1.928      2.618
REMARK  8 active torsions:
REMARK  status: ('A' for Active; 'I' for Inactive)
REMARK    1  A    between atoms: C12_17  and  C13_18
REMARK    2  A    between atoms: C13_18  and  C14_19
REMARK    3  A    between atoms: C14_19  and  C15_20
REMARK    4  A    between atoms: C15_20  and  C16_21
REMARK    5  A    between atoms: C16_21  and  C17_22
REMARK    6  A    between atoms: C17_22  and  O1_23
REMARK    7  A    between atoms: C18_26  and  C19_27
REMARK    8  A    between atoms: C19_27  and  O3_28
ROOT
HETATM    1  N1  UNL     1      -4.749  31.663   8.882  1.00  0.00    -0.191 NA
HETATM    2  C1  UNL     1      -4.881  32.708   8.399  1.00  0.00     0.099 C
HETATM    3  C2  UNL     1      -5.038  34.011   7.793  1.00  0.00     0.045 A
HETATM    4  C3  UNL     1      -4.801  35.121   8.586  1.00  0.00     0.025 A
HETATM    5  C4  UNL     1      -4.935  36.397   8.064  1.00  0.00     0.032 A
HETATM    6  C5  UNL     1      -5.311  36.561   6.731  1.00  0.00     0.044 A
HETATM    7  N2  UNL     1      -5.511  37.668   5.983  1.00  0.00    -0.352 N
ATOM      8  H2  UNL     1      -5.405  38.626   6.315  1.00  0.00     0.166 HD
HETATM    9  C6  UNL     1      -5.869  37.319   4.733  1.00  0.00     0.092 A
HETATM   10  C7  UNL     1      -5.894  35.959   4.701  1.00  0.00     0.022 A
HETATM   11  C8  UNL     1      -5.543  35.444   5.958  1.00  0.00     0.006 A
HETATM   12  C9  UNL     1      -5.410  34.172   6.476  1.00  0.00     0.037 A
HETATM   13  C10 UNL     1      -6.224  35.067   3.564  1.00  0.00     0.098 C
HETATM   14  N3  UNL     1      -6.682  35.798   2.501  1.00  0.00    -0.390 N
ATOM     15  H3  UNL     1      -7.669  35.733   2.253  1.00  0.00     0.159 HD
HETATM   16  C11 UNL     1      -5.829  36.654   1.716  1.00  0.00     0.124 C
HETATM   17  C12 UNL     1      -6.187  36.281   0.306  1.00  0.00     0.145 C
HETATM   18  O2  UNL     1      -5.539  36.758  -0.749  1.00  0.00    -0.374 OA
HETATM   19  C18 UNL     1      -5.867  37.908  -1.418  1.00  0.00     0.174 C
HETATM   20  C20 UNL     1      -6.187  38.824  -0.340  1.00  0.00     0.153 C
HETATM   21  C21 UNL     1      -6.351  40.262  -0.380  1.00  0.00     0.037 C
HETATM   22  C22 UNL     1      -6.385  40.397   1.178  1.00  0.00     0.035 C
HETATM   23  C23 UNL     1      -5.550  39.189   1.623  1.00  0.00     0.136 C
HETATM   24  O4  UNL     1      -4.993  38.795   0.452  1.00  0.00    -0.377 OA
HETATM   25  C24 UNL     1      -6.301  38.039   2.162  1.00  0.00     0.116 C
HETATM   26  C25 UNL     1      -6.168  38.205   3.653  1.00  0.00     0.185 C
HETATM   27  O5  UNL     1      -6.369  39.404   3.998  1.00  0.00    -0.290 OA
ENDROOT
BRANCH  17  28
HETATM   28  C13 UNL     1      -5.925  34.774   0.174  1.00  0.00     0.034 C
BRANCH  28  29
HETATM   29  C14 UNL     1      -6.530  34.101  -0.993  1.00  0.00     0.003 C
BRANCH  29  30
HETATM   30  C15 UNL     1      -7.821  33.364  -0.732  1.00  0.00     0.002 C
BRANCH  30  31
HETATM   31  C16 UNL     1      -7.813  32.567   0.542  1.00  0.00     0.026 C
BRANCH  31  32
HETATM   32  C17 UNL     1      -9.077  32.865   1.336  1.00  0.00     0.164 C
BRANCH  32  33
HETATM   33  O1  UNL     1      -9.907  31.748   1.277  1.00  0.00    -0.401 OA
ATOM     34  H1  UNL     1     -10.798  32.027   1.451  1.00  0.00     0.209 HD
ENDBRANCH  32  33
ENDBRANCH  31  32
ENDBRANCH  30  31
ENDBRANCH  29  30
ENDBRANCH  28  29
ENDBRANCH  17  28
BRANCH  19  35
HETATM   35  C19 UNL     1      -6.976  37.704  -2.400  1.00  0.00     0.198 C
BRANCH  35  36
HETATM   36  O3  UNL     1      -6.686  36.716  -3.303  1.00  0.00    -0.398 OA
ATOM     37  H3  UNL     1      -6.187  36.011  -2.910  1.00  0.00     0.209 HD
ENDBRANCH  35  36
ENDBRANCH  19  35
TORSDOF 8
ENDMDL