MODEL 4
REMARK VINA RESULT: -5.549644248      2.954      4.001
REMARK  8 active torsions:
REMARK  status: ('A' for Active; 'I' for Inactive)
REMARK    1  A    between atoms: C2_2  and  O2_4
REMARK    2  A    between atoms: O2_4  and  C3_5
REMARK    3  A    between atoms: C3_5  and  C4_6
REMARK    4  A    between atoms: C4_6  and  N1_7
REMARK    5  A    between atoms: C4_6  and  C23_32
REMARK       I    between atoms: N1_7  and  C5_9
REMARK    6  A    between atoms: C5_9  and  O4_11
REMARK    7  A    between atoms: O4_11  and  C6_12
REMARK    8  A    between atoms: C6_12  and  C7_13
ROOT
HETATM    1  C6  UNL     1      -5.644  34.996  -1.027  1.00  0.00     0.075 C
HETATM    2  C10 UNL     1      -6.290  34.587  -2.312  1.00  0.00     0.039 C
HETATM    3  C11 UNL     1      -7.774  34.493  -2.278  1.00  0.00     0.007 C
HETATM    4  C12 UNL     1      -8.385  34.263  -3.655  1.00  0.00     0.027 C
HETATM    5  C13 UNL     1      -9.496  35.218  -3.913  1.00  0.00    -0.031 C
HETATM    6  C14 UNL     1      -9.597  35.905  -5.047  1.00  0.00    -0.031 C
HETATM    7  C15 UNL     1      -8.630  35.799  -6.164  1.00  0.00     0.027 C
HETATM    8  C16 UNL     1      -7.463  36.744  -6.061  1.00  0.00     0.004 C
HETATM    9  C17 UNL     1      -7.949  38.097  -5.608  1.00  0.00     0.010 C
HETATM   10  C18 UNL     1      -6.907  38.849  -4.833  1.00  0.00     0.103 C
HETATM   11  C19 UNL     1      -7.486  39.453  -3.605  1.00  0.00     0.217 C
HETATM   12  O5  UNL     1      -8.708  39.814  -3.677  1.00  0.00    -0.274 OA
HETATM   13  N2  UNL     1      -6.792  39.649  -2.396  1.00  0.00    -0.361 N
ATOM     14  H2  UNL     1      -6.993  40.468  -1.823  1.00  0.00     0.162 HD
HETATM   15  C20 UNL     1      -5.792  38.690  -1.959  1.00  0.00     0.122 C
HETATM   16  C21 UNL     1      -6.426  37.349  -1.686  1.00  0.00     0.023 C
HETATM   17  C22 UNL     1      -5.735  36.480  -0.739  1.00  0.00     0.041 C
ENDROOT
BRANCH   1  18
HETATM   18  O4  UNL     1      -6.255  34.361   0.076  1.00  0.00    -0.292 OA
BRANCH  18  19
HETATM   19  C5  UNL     1      -6.595  34.870   1.270  1.00  0.00     0.362 C
HETATM   20  N1  UNL     1      -5.681  34.846   2.358  1.00  0.00    -0.320 N
ATOM     21  H1  UNL     1      -4.756  34.436   2.229  1.00  0.00     0.165 HD
HETATM   22  O3  UNL     1      -7.706  35.366   1.442  1.00  0.00    -0.238 OA
BRANCH  20  23
HETATM   23  C4  UNL     1      -6.051  35.408   3.673  1.00  0.00     0.212 C
BRANCH  23  24
HETATM   24  C3  UNL     1      -6.463  34.228   4.505  1.00  0.00     0.214 C
BRANCH  24  25
HETATM   25  O2  UNL     1      -6.573  34.569   5.851  1.00  0.00    -0.319 OA
BRANCH  25  26
HETATM   26  C2  UNL     1      -5.972  33.845   6.851  1.00  0.00     0.254 C
HETATM   27  C1  UNL     1      -6.509  32.485   7.210  1.00  0.00     0.126 C
HETATM   28  O1  UNL     1      -4.986  34.242   7.505  1.00  0.00    -0.266 OA
ENDBRANCH  25  26
ENDBRANCH  24  25
ENDBRANCH  23  24
BRANCH  23  29
HETATM   29  C23 UNL     1      -4.873  36.084   4.247  1.00  0.00     0.199 C
HETATM   30  O6  UNL     1      -3.764  35.502   4.313  1.00  0.00    -0.646 OA
HETATM   31  O7  UNL     1      -4.985  37.373   4.717  1.00  0.00    -0.646 OA
ENDBRANCH  23  29
ENDBRANCH  20  23
ENDBRANCH  18  19
ENDBRANCH   1  18
BRANCH   1  32
HETATM   32  C7  UNL     1      -4.171  34.553  -0.988  1.00  0.00     0.013 C
HETATM   33  C8  UNL     1      -3.939  33.334  -1.844  1.00  0.00     0.012 C
HETATM   34  C9  UNL     1      -3.262  35.706  -1.347  1.00  0.00     0.012 C
ENDBRANCH   1  32
TORSDOF 8
ENDMDL