MODEL 4
REMARK VINA RESULT: -5.927873885      0.777      1.087
REMARK  9 active torsions:
REMARK  status: ('A' for Active; 'I' for Inactive)
REMARK    1  A    between atoms: C2_2  and  C3_3
REMARK    2  A    between atoms: C3_3  and  N1_4
REMARK    3  A    between atoms: C6_7  and  C19_23
REMARK    4  A    between atoms: C9_11  and  O2_12
REMARK    5  A    between atoms: C15_19  and  C16_20
REMARK    6  A    between atoms: C19_23  and  O3_24
REMARK    7  A    between atoms: C21_27  and  O4_28
REMARK    8  A    between atoms: O4_28  and  C22_29
REMARK    9  A    between atoms: C22_29  and  C23_30
ROOT
HETATM    1  C16 UNL     1      -2.934  36.023  -4.374  1.00  0.00     0.125 C
HETATM    2  C17 UNL     1      -2.162  35.463  -3.239  1.00  0.00    -0.001 C
HETATM    3  C18 UNL     1      -2.718  34.515  -2.317  1.00  0.00     0.010 C
HETATM    4  C19 UNL     1      -4.185  34.296  -2.155  1.00  0.00     0.094 C
HETATM    5  C20 UNL     1      -4.684  33.585  -3.362  1.00  0.00     0.096 C
HETATM    6  C21 UNL     1      -3.817  33.773  -4.614  1.00  0.00     0.220 C
HETATM    7  N2  UNL     1      -3.951  35.178  -4.923  1.00  0.00    -0.387 N
ATOM      8  H2  UNL     1      -4.716  35.542  -5.491  1.00  0.00     0.156 HD
ENDROOT
BRANCH   6   9
HETATM    9  O4  UNL     1      -4.319  32.956  -5.570  1.00  0.00    -0.366 OA
BRANCH   9  10
HETATM   10  C22 UNL     1      -3.628  32.100  -6.302  1.00  0.00     0.178 C
BRANCH  10  11
HETATM   11  C23 UNL     1      -3.839  30.633  -6.245  1.00  0.00    -0.030 C
HETATM   12  C24 UNL     1      -3.177  29.839  -7.329  1.00  0.00     0.016 C
HETATM   13  C25 UNL     1      -3.219  30.106  -4.933  1.00  0.00     0.016 C
HETATM   14  C26 UNL     1      -5.344  30.386  -6.216  1.00  0.00     0.016 C
ENDBRANCH  10  11
ENDBRANCH   9  10
ENDBRANCH   6   9
BRANCH   4  15
HETATM   15  C6  UNL     1      -5.005  35.424  -1.643  1.00  0.00     0.051 C
HETATM   16  C5  UNL     1      -5.673  36.261  -2.689  1.00  0.00     0.064 C
HETATM   17  C4  UNL     1      -7.166  36.146  -2.821  1.00  0.00     0.060 C
HETATM   18  N1  UNL     1      -7.620  35.034  -3.532  1.00  0.00    -0.383 N
HETATM   19  C15 UNL     1      -7.776  33.779  -2.904  1.00  0.00     0.114 C
HETATM   20  C14 UNL     1      -8.158  33.807  -1.465  1.00  0.00     0.067 C
HETATM   21  C12 UNL     1      -7.177  34.382  -0.530  1.00  0.00    -0.046 A
HETATM   22  C11 UNL     1      -7.768  34.160   0.695  1.00  0.00     0.011 A
HETATM   23  C13 UNL     1      -5.938  35.012  -0.539  1.00  0.00    -0.001 A
HETATM   24  C10 UNL     1      -7.193  34.529   1.893  1.00  0.00     0.040 A
HETATM   25  C9  UNL     1      -5.965  35.153   1.906  1.00  0.00     0.099 A
HETATM   26  C8  UNL     1      -5.363  35.379   0.669  1.00  0.00     0.109 A
HETATM   27  O1  UNL     1      -4.144  35.974   0.439  1.00  0.00    -0.346 OA
HETATM   28  C7  UNL     1      -4.129  36.400  -0.879  1.00  0.00     0.194 C
BRANCH  18  29
HETATM   29  C3  UNL     1      -8.520  35.308  -4.626  1.00  0.00     0.149 C
BRANCH  29  30
HETATM   30  C2  UNL     1      -9.900  35.587  -4.176  1.00  0.00    -0.018 C
HETATM   31  C1  UNL     1     -10.552  36.684  -4.568  1.00  0.00     0.008 C
ENDBRANCH  29  30
ENDBRANCH  18  29
BRANCH  25  32
HETATM   32  O2  UNL     1      -5.344  35.544   3.088  1.00  0.00    -0.358 OA
ATOM     33  H2  UNL     1      -4.463  35.258   3.295  1.00  0.00     0.217 HD
ENDBRANCH  25  32
ENDBRANCH   4  15
BRANCH   4  34
HETATM   34  O3  UNL     1      -4.186  33.285  -1.143  1.00  0.00    -0.384 OA
ATOM     35  H3  UNL     1      -3.614  32.589  -1.444  1.00  0.00     0.211 HD
ENDBRANCH   4  34
TORSDOF 9
ENDMDL