MODEL 3
REMARK VINA RESULT: -7.371377502      1.633      1.754
REMARK  16 active torsions:
REMARK  status: ('A' for Active; 'I' for Inactive)
REMARK    1  A    between atoms: C6_11  and  C7_12
REMARK    2  A    between atoms: C7_12  and  C8_13
REMARK    3  A    between atoms: C8_13  and  C9_14
REMARK    4  A    between atoms: C9_14  and  C10_15
REMARK    5  A    between atoms: C10_15  and  C11_16
REMARK    6  A    between atoms: C11_16  and  C12_17
REMARK    7  A    between atoms: C12_17  and  C13_18
REMARK    8  A    between atoms: C13_18  and  N3_19
REMARK    9  A    between atoms: N5_23  and  C15_24
REMARK   10  A    between atoms: C15_24  and  C16_25
REMARK   11  A    between atoms: C16_25  and  C17_26
REMARK   12  A    between atoms: C17_26  and  C18_27
REMARK   13  A    between atoms: C18_27  and  C19_28
REMARK   14  A    between atoms: C19_28  and  N6_29
REMARK   15  A    between atoms: C21_38  and  C22_39
REMARK   16  A    between atoms: C22_39  and  C23_40
ROOT
HETATM    1  N3  UNL     1      16.177 -15.140  20.181  1.00  0.00    -0.330 N
HETATM    2  C14 UNL     1      16.699 -16.319  20.627  1.00  0.00     0.201 A
HETATM    3  N4  UNL     1      17.463 -16.071  21.683  1.00  0.00    -0.292 N
ATOM      4  H4  UNL     1      17.978 -16.772  22.217  1.00  0.00     0.188 HD
HETATM    5  N5  UNL     1      17.452 -14.755  21.938  1.00  0.00    -0.268 N
HETATM    6  C21 UNL     1      16.647 -14.182  20.997  1.00  0.00     0.108 A
ENDROOT
BRANCH   1   7
HETATM    7  C13 UNL     1      15.298 -14.954  19.076  1.00  0.00     0.132 C
BRANCH   7   8
HETATM    8  C12 UNL     1      14.584 -16.163  18.582  1.00  0.00     0.032 C
BRANCH   8   9
HETATM    9  C11 UNL     1      13.090 -16.011  18.789  1.00  0.00     0.096 C
BRANCH   9  10
HETATM   10  C10 UNL     1      12.852 -14.834  19.627  1.00  0.00    -0.092 C
BRANCH  10  11
HETATM   11  C9  UNL     1      12.677 -13.863  20.321  1.00  0.00    -0.015 C
BRANCH  11  12
HETATM   12  C8  UNL     1      12.494 -12.727  21.143  1.00  0.00    -0.009 C
BRANCH  12  13
HETATM   13  C7  UNL     1      12.357 -11.752  21.839  1.00  0.00    -0.049 C
BRANCH  13  14
HETATM   14  C6  UNL     1      12.214 -10.573  22.682  1.00  0.00     0.067 A
HETATM   15  C2  UNL     1      12.938  -9.431  22.389  1.00  0.00     0.026 A
HETATM   16  C1  UNL     1      13.868  -9.347  21.240  1.00  0.00     0.070 C
HETATM   17  N1  UNL     1      12.769  -8.372  23.198  1.00  0.00    -0.368 N
HETATM   18  C3  UNL     1      11.933  -8.421  24.247  1.00  0.00     0.090 A
ATOM     19  H1  UNL     1      13.287  -7.513  23.012  1.00  0.00     0.165 HD
HETATM   20  C4  UNL     1      11.201  -9.545  24.560  1.00  0.00     0.047 A
HETATM   21  C5  UNL     1      11.359 -10.643  23.743  1.00  0.00     0.048 A
HETATM   22  N2  UNL     1      10.704 -11.711  23.988  1.00  0.00    -0.398 N
ATOM     23  H22 UNL     1      10.064 -11.763  24.781  1.00  0.00     0.156 HD
ATOM     24  H21 UNL     1      10.820 -12.524  23.383  1.00  0.00     0.156 HD
ENDBRANCH  13  14
ENDBRANCH  12  13
ENDBRANCH  11  12
ENDBRANCH  10  11
ENDBRANCH   9  10
ENDBRANCH   8   9
ENDBRANCH   7   8
ENDBRANCH   1   7
BRANCH   6  25
HETATM   25  C22 UNL     1      16.380 -12.733  20.964  1.00  0.00     0.147 C
BRANCH  25  26
HETATM   26  C23 UNL     1      17.029 -12.021  19.849  1.00  0.00     0.238 C
HETATM   27  O2  UNL     1      16.659 -10.960  19.425  1.00  0.00    -0.306 OA
ENDBRANCH  25  26
ENDBRANCH   6  25
BRANCH   5  28
HETATM   28  C15 UNL     1      18.178 -14.157  23.030  1.00  0.00     0.244 C
BRANCH  28  29
HETATM   29  C16 UNL     1      19.233 -15.047  23.484  1.00  0.00    -0.085 C
BRANCH  29  30
HETATM   30  C17 UNL     1      20.101 -15.803  23.864  1.00  0.00    -0.103 C
BRANCH  30  31
HETATM   31  C18 UNL     1      21.155 -16.707  24.347  1.00  0.00     0.116 C
BRANCH  31  32
HETATM   32  C19 UNL     1      22.093 -15.898  25.207  1.00  0.00     0.168 C
BRANCH  32  33
HETATM   33  N6  UNL     1      23.151 -15.278  24.439  1.00  0.00    -0.225 N
HETATM   34  N7  UNL     1      23.174 -14.007  24.008  1.00  0.00    -0.222 N
HETATM   35  N8  UNL     1      24.285 -13.792  23.344  1.00  0.00    -0.224 N
ATOM     36  H7  UNL     1      22.442 -13.316  24.172  1.00  0.00     0.210 HD
HETATM   37  N9  UNL     1      24.993 -14.904  23.334  1.00  0.00    -0.234 N
ATOM     38  H8  UNL     1      24.557 -12.911  22.909  1.00  0.00     0.210 HD
HETATM   39  C20 UNL     1      24.299 -15.862  24.019  1.00  0.00     0.358 A
ATOM     40  H9  UNL     1      25.903 -15.029  22.890  1.00  0.00     0.193 HD
HETATM   41  O1  UNL     1      24.617 -17.049  24.241  1.00  0.00    -0.243 OA
ENDBRANCH  32  33
ENDBRANCH  31  32
ENDBRANCH  30  31
ENDBRANCH  29  30
ENDBRANCH  28  29
ENDBRANCH   5  28
TORSDOF 16
ENDMDL