MODEL 3
REMARK VINA RESULT: -6.770505399      0.937      1.089
REMARK  16 active torsions:
REMARK  status: ('A' for Active; 'I' for Inactive)
REMARK    1  A    between atoms: S1_2  and  C2_5
REMARK    2  A    between atoms: C2_5  and  C3_6
REMARK    3  A    between atoms: C4_7  and  C5_8
REMARK    4  A    between atoms: C6_9  and  C7_10
REMARK    5  A    between atoms: C7_10  and  N1_11
REMARK    6  A    between atoms: N1_11  and  C8_12
REMARK    7  A    between atoms: C8_12  and  C9_13
REMARK    8  A    between atoms: C9_13  and  N2_14
REMARK       I    between atoms: N2_14  and  C10_16
REMARK    9  A    between atoms: C10_16  and  C11_18
REMARK   10  A    between atoms: C11_18  and  C12_19
REMARK   11  A    between atoms: C13_20  and  C14_21
REMARK   12  A    between atoms: C14_21  and  C15_22
REMARK   13  A    between atoms: C15_22  and  C16_23
REMARK   14  A    between atoms: C16_23  and  C17_24
REMARK   15  A    between atoms: C17_24  and  N3_25
REMARK   16  A    between atoms: C19_29  and  N5_30
ROOT
HETATM    1  N2  UNL     1      21.097 -13.682  22.742  1.00  0.00    -0.359 N
ATOM      2  H2  UNL     1      21.895 -13.975  22.177  1.00  0.00     0.162 HD
HETATM    3  C10 UNL     1      19.943 -13.174  22.107  1.00  0.00     0.228 C
HETATM    4  O3  UNL     1      18.973 -12.819  22.822  1.00  0.00    -0.273 OA
ENDROOT
BRANCH   3   5
HETATM    5  C11 UNL     1      19.821 -13.040  20.633  1.00  0.00     0.196 C
BRANCH   5   6
HETATM    6  C12 UNL     1      18.549 -12.427  20.252  1.00  0.00    -0.097 C
HETATM    7  C13 UNL     1      17.483 -11.936  19.933  1.00  0.00    -0.106 C
BRANCH   7   8
HETATM    8  C14 UNL     1      16.184 -11.366  19.553  1.00  0.00     0.094 C
BRANCH   8   9
HETATM    9  C15 UNL     1      15.207 -11.462  20.726  1.00  0.00     0.014 C
BRANCH   9  10
HETATM   10  C16 UNL     1      13.821 -11.176  20.238  1.00  0.00     0.023 C
BRANCH  10  11
HETATM   11  C17 UNL     1      13.293  -9.877  20.813  1.00  0.00     0.150 C
BRANCH  11  12
HETATM   12  N3  UNL     1      12.545 -10.072  22.034  1.00  0.00    -0.273 N
HETATM   13  C18 UNL     1      12.371  -9.165  22.974  1.00  0.00     0.218 A
HETATM   14  N4  UNL     1      11.631  -9.709  23.950  1.00  0.00    -0.185 N
HETATM   15  C19 UNL     1      11.364 -10.966  23.572  1.00  0.00     0.691 A
ATOM     16  H4  UNL     1      11.330  -9.254  24.812  1.00  0.00     0.185 HD
HETATM   17  N6  UNL     1      11.939 -11.177  22.380  1.00  0.00    -0.129 N
ATOM     18  H6  UNL     1      11.908 -12.042  21.842  1.00  0.00     0.206 HD
BRANCH  15  19
HETATM   19  N5  UNL     1      10.661 -11.819  24.269  1.00  0.00    -0.233 N
ATOM     20  H52 UNL     1      11.014 -12.513  24.928  1.00  0.00     0.174 HD
ATOM     21  H51 UNL     1       9.644 -11.898  24.236  1.00  0.00     0.174 HD
ENDBRANCH  15  19
ENDBRANCH  11  12
ENDBRANCH  10  11
ENDBRANCH   9  10
ENDBRANCH   8   9
ENDBRANCH   7   8
ENDBRANCH   5   6
ENDBRANCH   3   5
BRANCH   1  22
HETATM   22  C9  UNL     1      21.163 -13.792  24.186  1.00  0.00     0.150 C
BRANCH  22  23
HETATM   23  C8  UNL     1      21.303 -15.268  24.506  1.00  0.00     0.258 C
BRANCH  23  24
HETATM   24  N1  UNL     1      20.001 -15.799  24.785  1.00  0.00    -0.052 N
HETATM   25  C20 UNL     1      19.742 -16.093  26.240  1.00  0.00     0.266 A
HETATM   26  C21 UNL     1      19.014 -15.045  25.493  1.00  0.00     0.266 A
BRANCH  24  27
HETATM   27  C7  UNL     1      19.575 -16.882  23.913  1.00  0.00     0.332 C
BRANCH  27  28
HETATM   28  C6  UNL     1      18.561 -16.443  22.953  1.00  0.00    -0.065 C
HETATM   29  C5  UNL     1      17.729 -16.081  22.138  1.00  0.00    -0.013 C
BRANCH  29  30
HETATM   30  C4  UNL     1      16.783 -15.656  21.176  1.00  0.00    -0.014 C
HETATM   31  C3  UNL     1      15.973 -15.313  20.348  1.00  0.00    -0.078 C
BRANCH  31  32
HETATM   32  C2  UNL     1      14.976 -14.918  19.326  1.00  0.00     0.234 C
BRANCH  32  33
HETATM   33  S1  UNL     1      13.474 -15.856  19.636  1.00  0.00     0.151 S
HETATM   34  C1  UNL     1      13.008 -15.509  21.329  1.00  0.00     0.162 C
HETATM   35  O1  UNL     1      13.839 -17.316  19.534  1.00  0.00    -0.227 OA
HETATM   36  O2  UNL     1      12.421 -15.466  18.671  1.00  0.00    -0.227 OA
ENDBRANCH  32  33
ENDBRANCH  31  32
ENDBRANCH  29  30
ENDBRANCH  27  28
ENDBRANCH  24  27
ENDBRANCH  23  24
ENDBRANCH  22  23
ENDBRANCH   1  22
TORSDOF 16
ENDMDL