MODEL 1
REMARK VINA RESULT: -7.233095523      0.000      0.000
REMARK  13 active torsions:
REMARK  status: ('A' for Active; 'I' for Inactive)
REMARK    1  A    between atoms: C3_6  and  C4_7
REMARK    2  A    between atoms: C4_7  and  C5_8
REMARK    3  A    between atoms: C5_8  and  N3_9
REMARK    4  A    between atoms: N3_9  and  C7_12
REMARK    5  A    between atoms: C7_12  and  C8_13
REMARK    6  A    between atoms: C8_13  and  S1_14
REMARK    7  A    between atoms: C9_15  and  O2_16
REMARK    8  A    between atoms: C10_18  and  C11_19
REMARK    9  A    between atoms: C11_19  and  O3_20
REMARK   10  A    between atoms: C12_22  and  C13_23
REMARK   11  A    between atoms: C14_24  and  C15_25
REMARK   12  A    between atoms: C15_25  and  N4_26
REMARK   13  A    between atoms: C21_34  and  N6_35
ROOT
HETATM    1  C1  UNL     1      11.160 -11.230  24.340  1.00  0.00     0.177 C
HETATM    2  N1  UNL     1      11.963 -10.617  23.287  1.00  0.00    -0.171 N
HETATM    3  C2  UNL     1      12.503 -11.296  22.267  1.00  0.00     0.150 A
HETATM    4  N2  UNL     1      12.504 -12.599  21.895  1.00  0.00    -0.343 N
ATOM      5  H2  UNL     1      11.997 -13.260  22.484  1.00  0.00     0.167 HD
HETATM    6  C3  UNL     1      13.122 -13.079  20.813  1.00  0.00     0.023 A
HETATM    7  C12 UNL     1      13.816 -12.150  20.011  1.00  0.00    -0.011 A
HETATM    8  C19 UNL     1      13.857 -10.822  20.327  1.00  0.00     0.047 A
HETATM    9  C20 UNL     1      13.210 -10.333  21.459  1.00  0.00     0.094 A
HETATM   10  N5  UNL     1      13.053  -9.135  22.039  1.00  0.00    -0.188 N
ATOM     11  H5  UNL     1      13.432  -8.246  21.713  1.00  0.00     0.184 HD
HETATM   12  C21 UNL     1      12.288  -9.337  23.152  1.00  0.00     0.679 A
ENDROOT
BRANCH   6  13
HETATM   13  C4  UNL     1      13.129 -14.467  20.391  1.00  0.00     0.094 C
BRANCH  13  14
HETATM   14  C5  UNL     1      13.422 -15.521  21.380  1.00  0.00     0.317 C
BRANCH  14  15
HETATM   15  N3  UNL     1      14.652 -16.245  21.263  1.00  0.00     0.010 N
HETATM   16  C6  UNL     1      14.391 -17.350  20.358  1.00  0.00     0.356 C
HETATM   17  O1  UNL     1      15.228 -16.613  22.418  1.00  0.00    -0.065 OA
BRANCH  15  18
HETATM   18  C7  UNL     1      15.668 -15.396  20.602  1.00  0.00     0.321 C
BRANCH  18  19
HETATM   19  C8  UNL     1      16.691 -14.989  21.609  1.00  0.00     0.103 C
BRANCH  19  20
HETATM   20  S1  UNL     1      16.904 -13.229  21.677  1.00  0.00    -0.178 SA
HETATM   21  C9  UNL     1      17.679 -12.280  20.555  1.00  0.00     0.186 A
HETATM   22  C10 UNL     1      18.588 -12.698  21.702  1.00  0.00     0.101 A
BRANCH  21  23
HETATM   23  O2  UNL     1      17.401 -10.890  20.567  1.00  0.00    -0.385 OA
ATOM     24  H2  UNL     1      17.338 -10.448  19.729  1.00  0.00     0.211 HD
ENDBRANCH  21  23
BRANCH  22  25
HETATM   25  C11 UNL     1      19.712 -13.638  21.435  1.00  0.00     0.181 C
BRANCH  25  26
HETATM   26  O3  UNL     1      20.799 -13.467  22.249  1.00  0.00    -0.400 OA
ATOM     27  H3  UNL     1      21.503 -12.960  21.863  1.00  0.00     0.209 HD
ENDBRANCH  25  26
ENDBRANCH  22  25
ENDBRANCH  19  20
ENDBRANCH  18  19
ENDBRANCH  15  18
ENDBRANCH  14  15
ENDBRANCH  13  14
ENDBRANCH   6  13
BRANCH   7  28
HETATM   28  C13 UNL     1      14.469 -12.610  18.798  1.00  0.00     0.011 C
HETATM   29  C14 UNL     1      15.038 -11.817  17.917  1.00  0.00     0.002 C
BRANCH  29  30
HETATM   30  C15 UNL     1      15.687 -12.396  16.694  1.00  0.00     0.263 C
BRANCH  30  31
HETATM   31  N4  UNL     1      15.934 -11.337  15.743  1.00  0.00    -0.075 N
HETATM   32  C16 UNL     1      17.278 -10.796  16.020  1.00  0.00     0.272 C
HETATM   33  C17 UNL     1      15.983 -11.824  14.374  1.00  0.00     0.272 C
HETATM   34  C18 UNL     1      14.988 -10.260  15.819  1.00  0.00     0.272 C
ENDBRANCH  30  31
ENDBRANCH  29  30
ENDBRANCH   7  28
BRANCH  12  35
HETATM   35  N6  UNL     1      11.944  -8.379  23.951  1.00  0.00    -0.234 N
ATOM     36  H62 UNL     1      11.712  -8.533  24.933  1.00  0.00     0.174 HD
ATOM     37  H61 UNL     1      11.866  -7.393  23.704  1.00  0.00     0.174 HD
ENDBRANCH  12  35
TORSDOF 13
ENDMDL