MODEL 2
REMARK VINA RESULT: -7.120652129      2.692      7.469
REMARK  11 active torsions:
REMARK  status: ('A' for Active; 'I' for Inactive)
REMARK    1  A    between atoms: N1_2  and  C4_5
REMARK    2  A    between atoms: C4_5  and  C5_6
REMARK    3  A    between atoms: C5_6  and  C6_7
REMARK    4  A    between atoms: C6_7  and  C7_8
REMARK       I    between atoms: C7_8  and  N2_10
REMARK    5  A    between atoms: C12_21  and  O3_22
REMARK    6  A    between atoms: N6_27  and  N7_29
REMARK    7  A    between atoms: N9_34  and  C14_35
REMARK    8  A    between atoms: C14_35  and  C15_36
REMARK    9  A    between atoms: C15_36  and  C16_37
REMARK   10  A    between atoms: C16_37  and  C17_38
REMARK   11  A    between atoms: C17_38  and  C18_39
ROOT
HETATM    1  C18 UNL     1      21.645 -13.315  25.031  1.00  0.00     0.124 C
HETATM    2  C19 UNL     1      22.063 -14.545  24.338  1.00  0.00     0.059 C
HETATM    3  N10 UNL     1      22.399 -15.501  23.778  1.00  0.00    -0.197 NA
ENDROOT
BRANCH   1   4
HETATM    4  C17 UNL     1      20.187 -13.104  24.633  1.00  0.00     0.014 C
BRANCH   4   5
HETATM    5  C16 UNL     1      20.048 -12.947  23.145  1.00  0.00     0.002 C
BRANCH   5   6
HETATM    6  C15 UNL     1      18.704 -13.384  22.693  1.00  0.00     0.022 C
BRANCH   6   7
HETATM    7  C14 UNL     1      18.701 -14.024  21.330  1.00  0.00     0.167 C
BRANCH   7   8
HETATM    8  N9  UNL     1      18.431 -15.482  21.426  1.00  0.00    -0.012 N
HETATM    9  C8  UNL     1      17.102 -15.880  21.012  1.00  0.00     0.704 C
HETATM   10  N2  UNL     1      16.346 -14.983  20.475  1.00  0.00    -0.159 N
HETATM   11  N3  UNL     1      16.570 -17.187  21.091  1.00  0.00    -0.159 N
HETATM   12  C7  UNL     1      15.069 -15.242  19.983  1.00  0.00     0.235 C
ATOM     13  H2  UNL     1      16.704 -14.031  20.406  1.00  0.00     0.187 HD
HETATM   14  O1  UNL     1      14.293 -16.133  20.434  1.00  0.00    -0.273 OA
HETATM   15  C9  UNL     1      16.445 -18.025  22.224  1.00  0.00     0.237 C
ATOM     16  H3  UNL     1      16.231 -17.579  20.213  1.00  0.00     0.187 HD
HETATM   17  O2  UNL     1      16.925 -19.187  22.203  1.00  0.00    -0.273 OA
HETATM   18  C10 UNL     1      15.754 -17.622  23.502  1.00  0.00     0.123 C
HETATM   19  C11 UNL     1      16.720 -18.006  24.595  1.00  0.00     0.132 C
HETATM   20  N4  UNL     1      17.668 -16.928  24.715  1.00  0.00    -0.355 N
HETATM   21  C12 UNL     1      19.032 -16.912  24.348  1.00  0.00     0.231 C
ATOM     22  H4  UNL     1      17.307 -16.063  25.118  1.00  0.00     0.163 HD
HETATM   23  N5  UNL     1      19.588 -17.087  23.061  1.00  0.00    -0.153 N
HETATM   24  C13 UNL     1      19.484 -16.303  21.885  1.00  0.00     0.717 C
ATOM     25  H5  UNL     1      20.163 -17.922  22.961  1.00  0.00     0.188 HD
HETATM   26  N6  UNL     1      20.565 -16.329  21.064  1.00  0.00    -0.117 N
ATOM     27  H6  UNL     1      20.537 -15.781  20.204  1.00  0.00     0.207 HD
BRANCH  12  28
HETATM   28  C6  UNL     1      14.569 -14.425  18.854  1.00  0.00     0.105 C
BRANCH  28  29
HETATM   29  C5  UNL     1      14.997 -13.005  18.862  1.00  0.00     0.037 C
BRANCH  29  30
HETATM   30  C4  UNL     1      14.013 -12.058  19.484  1.00  0.00     0.236 C
BRANCH  30  31
HETATM   31  N1  UNL     1      14.479 -11.584  20.777  1.00  0.00    -0.079 N
HETATM   32  C1  UNL     1      13.946 -10.248  21.004  1.00  0.00     0.271 C
HETATM   33  C2  UNL     1      13.956 -12.455  21.801  1.00  0.00     0.271 C
HETATM   34  C3  UNL     1      15.907 -11.553  20.886  1.00  0.00     0.271 C
ENDBRANCH  30  31
ENDBRANCH  29  30
ENDBRANCH  28  29
ENDBRANCH  12  28
BRANCH  21  35
HETATM   35  O3  UNL     1      19.822 -16.706  25.376  1.00  0.00    -0.332 OA
ATOM     36  H3  UNL     1      20.557 -16.146  25.159  1.00  0.00     0.220 HD
ENDBRANCH  21  35
BRANCH  26  37
HETATM   37  N7  UNL     1      21.684 -17.054  21.338  1.00  0.00    -0.235 N
HETATM   38  N8  UNL     1      22.466 -17.423  20.418  1.00  0.00    -0.330 N
ATOM     39  H82 UNL     1      22.241 -17.164  19.458  1.00  0.00     0.178 HD
ATOM     40  H81 UNL     1      23.305 -17.966  20.623  1.00  0.00     0.178 HD
ATOM     41  H7  UNL     1      21.894 -17.305  22.305  1.00  0.00     0.208 HD
ENDBRANCH  26  37
ENDBRANCH   7   8
ENDBRANCH   6   7
ENDBRANCH   5   6
ENDBRANCH   4   5
ENDBRANCH   1   4
TORSDOF 11
ENDMDL