MODEL 4
REMARK VINA RESULT: -7.722670756      0.893      1.473
REMARK  13 active torsions:
REMARK  status: ('A' for Active; 'I' for Inactive)
REMARK    1  A    between atoms: N1_5  and  C5_6
REMARK    2  A    between atoms: C5_6  and  C6_7
REMARK    3  A    between atoms: C6_7  and  C7_8
REMARK    4  A    between atoms: C7_8  and  C8_9
REMARK    5  A    between atoms: C8_9  and  C9_10
REMARK    6  A    between atoms: C9_10  and  C10_11
REMARK    7  A    between atoms: C10_11  and  C11_12
REMARK    8  A    between atoms: C11_12  and  C12_13
REMARK    9  A    between atoms: C12_13  and  C13_14
REMARK   10  A    between atoms: C14_15  and  C15_16
REMARK   11  A    between atoms: C15_16  and  N2_17
REMARK       I    between atoms: N4_21  and  C17_23
REMARK       I    between atoms: C17_23  and  N6_27
REMARK   12  A    between atoms: N6_27  and  N7_29
REMARK   13  A    between atoms: C18_34  and  N9_35
ROOT
HETATM    1  N2  UNL     1      15.283 -15.068  21.290  1.00  0.00    -0.252 N
HETATM    2  N3  UNL     1      15.553 -13.831  20.907  1.00  0.00    -0.276 N
ATOM      3  H3  UNL     1      16.435 -13.645  20.430  1.00  0.00     0.189 HD
HETATM    4  C16 UNL     1      14.694 -12.799  21.129  1.00  0.00     0.186 A
HETATM    5  N4  UNL     1      14.956 -11.592  20.758  1.00  0.00    -0.170 N
ATOM      6  H4  UNL     1      14.301 -10.831  20.933  1.00  0.00     0.186 HD
HETATM    7  C17 UNL     1      16.192 -11.364  20.093  1.00  0.00     0.693 C
HETATM    8  N5  UNL     1      17.288 -11.101  20.727  1.00  0.00    -0.233 N
ATOM      9  H51 UNL     1      18.175 -10.937  20.251  1.00  0.00     0.174 HD
ATOM     10  H52 UNL     1      17.259 -11.056  21.746  1.00  0.00     0.174 HD
HETATM   11  N6  UNL     1      16.233 -11.427  18.660  1.00  0.00    -0.118 N
ATOM     12  H6  UNL     1      17.057 -11.822  18.204  1.00  0.00     0.207 HD
HETATM   13  C18 UNL     1      13.498 -13.022  21.774  1.00  0.00     0.222 A
HETATM   14  N10 UNL     1      13.224 -14.280  22.161  1.00  0.00    -0.307 N
ATOM     15  H10 UNL     1      12.347 -14.486  22.640  1.00  0.00     0.170 HD
HETATM   16  C19 UNL     1      14.111 -15.276  21.917  1.00  0.00     0.212 A
HETATM   17  N11 UNL     1      13.818 -16.606  22.330  1.00  0.00    -0.062 NA
ENDROOT
BRANCH   1  18
HETATM   18  C15 UNL     1      16.192 -16.179  21.058  1.00  0.00     0.245 C
BRANCH  18  19
HETATM   19  C14 UNL     1      17.559 -15.624  21.124  1.00  0.00    -0.085 C
HETATM   20  C13 UNL     1      18.677 -15.175  21.164  1.00  0.00    -0.105 C
BRANCH  20  21
HETATM   21  C12 UNL     1      20.033 -14.627  21.191  1.00  0.00     0.094 C
BRANCH  21  22
HETATM   22  C11 UNL     1      20.060 -13.276  21.895  1.00  0.00     0.012 C
BRANCH  22  23
HETATM   23  C10 UNL     1      20.805 -13.270  23.166  1.00  0.00     0.001 C
BRANCH  23  24
HETATM   24  C9  UNL     1      20.143 -12.986  24.440  1.00  0.00     0.000 C
BRANCH  24  25
HETATM   25  C8  UNL     1      20.901 -12.558  25.621  1.00  0.00     0.000 C
BRANCH  25  26
HETATM   26  C7  UNL     1      20.782 -13.346  26.869  1.00  0.00     0.002 C
BRANCH  26  27
HETATM   27  C6  UNL     1      20.277 -14.759  26.491  1.00  0.00     0.020 C
BRANCH  27  28
HETATM   28  C5  UNL     1      21.450 -15.645  26.144  1.00  0.00     0.128 C
BRANCH  28  29
HETATM   29  N1  UNL     1      21.035 -16.452  25.003  1.00  0.00    -0.366 N
HETATM   30  C4  UNL     1      19.770 -16.889  24.866  1.00  0.00     0.091 A
HETATM   31  C3  UNL     1      19.379 -17.653  23.786  1.00  0.00     0.024 A
HETATM   32  C2  UNL     1      20.274 -18.004  22.791  1.00  0.00    -0.059 A
HETATM   33  C1  UNL     1      19.885 -18.826  21.613  1.00  0.00     0.048 C
HETATM   34  C21 UNL     1      21.573 -17.550  22.939  1.00  0.00     0.024 A
HETATM   35  C20 UNL     1      21.912 -16.789  24.041  1.00  0.00     0.091 A
ENDBRANCH  28  29
ENDBRANCH  27  28
ENDBRANCH  26  27
ENDBRANCH  25  26
ENDBRANCH  24  25
ENDBRANCH  23  24
ENDBRANCH  22  23
ENDBRANCH  21  22
ENDBRANCH  20  21
ENDBRANCH  18  19
ENDBRANCH   1  18
BRANCH  13  36
HETATM   36  N9  UNL     1      12.689 -12.051  21.982  1.00  0.00    -0.094 N
HETATM   37  O1  UNL     1      12.223 -11.301  20.943  1.00  0.00    -0.530 OA
HETATM   38  O2  UNL     1      12.256 -11.719  23.244  1.00  0.00    -0.530 OA
ENDBRANCH  13  36
BRANCH  11  39
HETATM   39  N7  UNL     1      15.181 -10.966  17.872  1.00  0.00    -0.235 N
HETATM   40  N8  UNL     1      15.424 -10.585  16.701  1.00  0.00    -0.330 N
ATOM     41  H82 UNL     1      16.380 -10.620  16.348  1.00  0.00     0.178 HD
ATOM     42  H81 UNL     1      14.653 -10.248  16.124  1.00  0.00     0.178 HD
ATOM     43  H7  UNL     1      14.230 -10.939  18.240  1.00  0.00     0.208 HD
ENDBRANCH  11  39
TORSDOF 13
ENDMDL