MODEL 3
REMARK VINA RESULT: -8.236682132      2.259      3.578
REMARK  11 active torsions:
REMARK  status: ('A' for Active; 'I' for Inactive)
REMARK    1  A    between atoms: N1_2  and  C2_3
REMARK    2  A    between atoms: C2_3  and  C3_4
REMARK    3  A    between atoms: N3_9  and  C6_10
REMARK    4  A    between atoms: C6_10  and  C7_11
REMARK    5  A    between atoms: C7_11  and  C8_12
REMARK    6  A    between atoms: C8_12  and  C9_13
REMARK    7  A    between atoms: C9_13  and  C10_14
REMARK    8  A    between atoms: C10_14  and  N4_15
REMARK    9  A    between atoms: C14_24  and  C15_25
REMARK   10  A    between atoms: N7_26  and  N8_28
REMARK   11  A    between atoms: N8_28  and  N9_30
ROOT
HETATM    1  N4  UNL     1      15.877 -12.589  20.996  1.00  0.00    -0.341 N
HETATM    2  C11 UNL     1      16.688 -11.742  20.376  1.00  0.00     0.184 A
HETATM    3  N5  UNL     1      16.051 -10.567  20.271  1.00  0.00    -0.346 N
ATOM      4  H5  UNL     1      16.428  -9.725  19.837  1.00  0.00     0.167 HD
HETATM    5  C12 UNL     1      14.818 -10.681  20.837  1.00  0.00     0.129 A
HETATM    6  C13 UNL     1      13.746  -9.852  21.030  1.00  0.00     0.275 A
HETATM    7  O1  UNL     1      13.847  -8.658  20.602  1.00  0.00    -0.266 OA
HETATM    8  N6  UNL     1      12.627 -10.291  21.651  1.00  0.00    -0.320 N
ATOM      9  H6  UNL     1      11.845  -9.650  21.780  1.00  0.00     0.169 HD
HETATM   10  C14 UNL     1      12.522 -11.545  22.101  1.00  0.00     0.054 A
HETATM   11  C16 UNL     1      13.594 -12.439  21.928  1.00  0.00     0.063 A
HETATM   12  C17 UNL     1      14.716 -11.970  21.295  1.00  0.00     0.070 A
ENDROOT
BRANCH   1  13
HETATM   13  C10 UNL     1      16.176 -13.971  21.313  1.00  0.00     0.130 C
BRANCH  13  14
HETATM   14  C9  UNL     1      17.648 -14.192  21.022  1.00  0.00     0.020 C
BRANCH  14  15
HETATM   15  C8  UNL     1      18.378 -14.392  22.317  1.00  0.00     0.003 C
BRANCH  15  16
HETATM   16  C7  UNL     1      19.221 -13.213  22.639  1.00  0.00     0.020 C
BRANCH  16  17
HETATM   17  C6  UNL     1      20.558 -13.480  23.225  1.00  0.00     0.130 C
BRANCH  17  18
HETATM   18  N3  UNL     1      20.620 -13.534  24.653  1.00  0.00    -0.344 N
HETATM   19  C3  UNL     1      20.433 -14.619  25.431  1.00  0.00     0.054 A
HETATM   20  C4  UNL     1      20.599 -14.156  26.720  1.00  0.00     0.115 A
HETATM   21  N2  UNL     1      20.873 -12.846  26.734  1.00  0.00    -0.360 N
HETATM   22  C5  UNL     1      20.885 -12.470  25.442  1.00  0.00     0.183 A
ATOM     23  H2  UNL     1      21.039 -12.258  27.551  1.00  0.00     0.166 HD
BRANCH  19  24
HETATM   24  C2  UNL     1      20.120 -15.980  25.024  1.00  0.00     0.295 C
BRANCH  24  25
HETATM   25  N1  UNL     1      21.221 -16.839  24.689  1.00  0.00    -0.063 N
HETATM   26  C1  UNL     1      21.222 -16.932  23.207  1.00  0.00     0.273 C
HETATM   27  C18 UNL     1      20.933 -18.238  25.055  1.00  0.00     0.256 C
HETATM   28  C19 UNL     1      21.270 -18.536  26.476  1.00  0.00     0.142 C
HETATM   29  N10 UNL     1      22.669 -18.320  26.657  1.00  0.00    -0.418 N
HETATM   30  C20 UNL     1      23.167 -17.061  26.232  1.00  0.00     0.142 C
ATOM     31  H10 UNL     1      23.276 -19.029  27.068  1.00  0.00     0.153 HD
HETATM   32  C21 UNL     1      22.510 -16.411  25.077  1.00  0.00     0.256 C
ENDBRANCH  24  25
ENDBRANCH  19  24
ENDBRANCH  17  18
ENDBRANCH  16  17
ENDBRANCH  15  16
ENDBRANCH  14  15
ENDBRANCH  13  14
ENDBRANCH   1  13
BRANCH  10  33
HETATM   33  C15 UNL     1      11.333 -12.006  22.760  1.00  0.00     0.138 C
HETATM   34  N7  UNL     1      10.767 -11.587  23.783  1.00  0.00    -0.296 N
ATOM     35  H7  UNL     1       9.930 -12.126  24.009  1.00  0.00     0.187 HD
BRANCH  34  36
HETATM   36  N8  UNL     1      10.985 -10.603  24.660  1.00  0.00    -0.250 N
ATOM     37  H8  UNL     1      11.274 -10.825  25.613  1.00  0.00     0.207 HD
BRANCH  36  38
HETATM   38  N9  UNL     1      10.832  -9.375  24.303  1.00  0.00    -0.331 N
ATOM     39  H92 UNL     1      10.133  -8.806  24.780  1.00  0.00     0.178 HD
ATOM     40  H91 UNL     1      11.404  -8.985  23.554  1.00  0.00     0.178 HD
ENDBRANCH  36  38
ENDBRANCH  34  36
ENDBRANCH  10  33
TORSDOF 11
ENDMDL