MODEL 4
REMARK VINA RESULT: -6.419334335      3.160      5.167
REMARK  17 active torsions:
REMARK  status: ('A' for Active; 'I' for Inactive)
REMARK    1  A    between atoms: N2_4  and  N3_6
REMARK       I    between atoms: N3_6  and  C1_8
REMARK       I    between atoms: C1_8  and  N5_12
REMARK    2  A    between atoms: N5_12  and  C2_14
REMARK    3  A    between atoms: N6_16  and  C4_17
REMARK    4  A    between atoms: C4_17  and  C5_18
REMARK    5  A    between atoms: C5_18  and  C6_19
REMARK    6  A    between atoms: C6_19  and  C7_20
REMARK    7  A    between atoms: C7_20  and  C8_21
REMARK    8  A    between atoms: C8_21  and  O1_22
REMARK    9  A    between atoms: O1_22  and  C9_23
REMARK   10  A    between atoms: C9_23  and  C10_24
REMARK   11  A    between atoms: C10_24  and  N7_25
REMARK   12  A    between atoms: C13_28  and  C14_29
REMARK   13  A    between atoms: C14_29  and  C15_30
REMARK   14  A    between atoms: C15_30  and  C16_31
REMARK   15  A    between atoms: C16_31  and  C17_32
REMARK   16  A    between atoms: C17_32  and  C18_33
REMARK   17  A    between atoms: C18_33  and  O2_34
ROOT
HETATM    1  C4  UNL     1      15.535 -13.213  21.290  1.00  0.00     0.128 C
ENDROOT
BRANCH   1   2
HETATM    2  N6  UNL     1      14.536 -12.185  21.401  1.00  0.00    -0.361 N
HETATM    3  C3  UNL     1      13.460 -12.310  22.195  1.00  0.00     0.139 A
HETATM    4  C2  UNL     1      12.479 -11.341  22.318  1.00  0.00     0.136 A
HETATM    5  N8  UNL     1      12.630 -10.221  21.594  1.00  0.00    -0.349 N
HETATM    6  C22 UNL     1      13.699 -10.076  20.793  1.00  0.00     0.107 A
ATOM      7  H8  UNL     1      11.933  -9.479  21.652  1.00  0.00     0.166 HD
HETATM    8  C21 UNL     1      14.657 -11.047  20.688  1.00  0.00     0.107 A
BRANCH   4   9
HETATM    9  N5  UNL     1      11.465 -11.505  23.092  1.00  0.00    -0.174 N
HETATM   10  C1  UNL     1      11.153 -10.743  24.224  1.00  0.00     0.693 C
HETATM   11  N3  UNL     1      11.146 -11.310  25.548  1.00  0.00    -0.118 N
HETATM   12  N4  UNL     1      10.848  -9.484  24.150  1.00  0.00    -0.233 N
ATOM     13  H3  UNL     1      11.537 -10.786  26.330  1.00  0.00     0.207 HD
ATOM     14  H42 UNL     1      10.620  -8.929  24.974  1.00  0.00     0.174 HD
ATOM     15  H41 UNL     1      10.852  -9.082  23.213  1.00  0.00     0.174 HD
ATOM     16  H5  UNL     1      10.826 -12.266  22.859  1.00  0.00     0.186 HD
BRANCH  11  17
HETATM   17  N2  UNL     1      10.604 -12.579  25.757  1.00  0.00    -0.235 N
HETATM   18  N1  UNL     1      10.475 -13.075  26.908  1.00  0.00    -0.330 N
ATOM     19  H12 UNL     1      10.783 -12.517  27.704  1.00  0.00     0.178 HD
ATOM     20  H11 UNL     1      10.079 -14.003  27.061  1.00  0.00     0.178 HD
ATOM     21  H2  UNL     1      10.301 -13.124  24.950  1.00  0.00     0.208 HD
ENDBRANCH  11  17
ENDBRANCH   4   9
ENDBRANCH   1   2
BRANCH   1  22
HETATM   22  C5  UNL     1      16.935 -12.680  21.168  1.00  0.00     0.020 C
BRANCH  22  23
HETATM   23  C6  UNL     1      17.867 -13.325  22.143  1.00  0.00     0.004 C
BRANCH  23  24
HETATM   24  C7  UNL     1      19.296 -13.415  21.650  1.00  0.00     0.026 C
BRANCH  24  25
HETATM   25  C8  UNL     1      20.273 -13.624  22.789  1.00  0.00     0.167 C
BRANCH  25  26
HETATM   26  O1  UNL     1      20.919 -14.832  22.713  1.00  0.00    -0.390 OA
BRANCH  26  27
HETATM   27  C9  UNL     1      20.692 -15.694  23.738  1.00  0.00     0.187 C
BRANCH  27  28
HETATM   28  C10 UNL     1      20.182 -17.052  23.410  1.00  0.00     0.154 C
BRANCH  28  29
HETATM   29  N7  UNL     1      18.863 -16.963  22.814  1.00  0.00    -0.364 N
HETATM   30  C11 UNL     1      17.719 -16.771  23.461  1.00  0.00     0.092 A
HETATM   31  C12 UNL     1      16.481 -16.685  22.806  1.00  0.00     0.038 A
HETATM   32  C13 UNL     1      16.418 -16.801  21.436  1.00  0.00     0.021 A
HETATM   33  C19 UNL     1      17.614 -17.000  20.781  1.00  0.00     0.038 A
HETATM   34  C20 UNL     1      18.792 -17.077  21.449  1.00  0.00     0.092 A
BRANCH  32  35
HETATM   35  C14 UNL     1      15.164 -16.721  20.740  1.00  0.00    -0.053 C
BRANCH  35  36
HETATM   36  C15 UNL     1      14.103 -16.631  20.147  1.00  0.00    -0.009 C
BRANCH  36  37
HETATM   37  C16 UNL     1      12.859 -16.512  19.478  1.00  0.00    -0.013 C
BRANCH  37  38
HETATM   38  C17 UNL     1      11.799 -16.388  18.913  1.00  0.00    -0.067 C
BRANCH  38  39
HETATM   39  C18 UNL     1      10.495 -16.220  18.242  1.00  0.00     0.258 C
BRANCH  39  40
HETATM   40  O2  UNL     1      10.516 -16.851  16.974  1.00  0.00    -0.389 OA
ATOM     41  H2  UNL     1      10.134 -16.279  16.318  1.00  0.00     0.210 HD
ENDBRANCH  39  40
ENDBRANCH  38  39
ENDBRANCH  37  38
ENDBRANCH  36  37
ENDBRANCH  35  36
ENDBRANCH  32  35
ENDBRANCH  28  29
ENDBRANCH  27  28
ENDBRANCH  26  27
ENDBRANCH  25  26
ENDBRANCH  24  25
ENDBRANCH  23  24
ENDBRANCH  22  23
ENDBRANCH   1  22
TORSDOF 17
ENDMDL