MODEL 2
REMARK VINA RESULT: -9.981922153      1.219      1.594
REMARK  12 active torsions:
REMARK  status: ('A' for Active; 'I' for Inactive)
REMARK    1  A    between atoms: N2_6  and  C3_7
REMARK    2  A    between atoms: C3_7  and  C4_8
REMARK    3  A    between atoms: C5_9  and  N3_10
REMARK    4  A    between atoms: N3_10  and  N4_12
REMARK    5  A    between atoms: N4_12  and  N5_14
REMARK    6  A    between atoms: C6_19  and  N7_20
REMARK    7  A    between atoms: N9_25  and  C7_26
REMARK    8  A    between atoms: C7_26  and  C8_27
REMARK    9  A    between atoms: C9_28  and  C10_29
REMARK   10  A    between atoms: C10_29  and  C11_30
REMARK   11  A    between atoms: C11_30  and  C12_31
REMARK   12  A    between atoms: C12_31  and  N10_32
ROOT
HETATM    1  C4  UNL     1      14.202 -12.428  21.168  1.00  0.00     0.115 A
HETATM    2  C5  UNL     1      13.148 -11.753  21.704  1.00  0.00     0.166 A
HETATM    3  N6  UNL     1      13.109 -10.387  21.664  1.00  0.00    -0.172 N
ATOM      4  H6  UNL     1      12.308  -9.898  22.064  1.00  0.00     0.186 HD
HETATM    5  C6  UNL     1      14.100  -9.681  21.112  1.00  0.00     0.692 A
HETATM    6  N8  UNL     1      15.134 -10.357  20.602  1.00  0.00    -0.129 N
ATOM      7  H8  UNL     1      15.894  -9.819  20.185  1.00  0.00     0.206 HD
HETATM    8  N9  UNL     1      15.239 -11.661  20.602  1.00  0.00    -0.270 N
ENDROOT
BRANCH   8   9
HETATM    9  C7  UNL     1      16.426 -12.323  20.147  1.00  0.00     0.177 C
BRANCH   9  10
HETATM   10  C8  UNL     1      17.699 -11.667  20.463  1.00  0.00    -0.009 C
HETATM   11  C9  UNL     1      18.853 -12.256  21.094  1.00  0.00    -0.029 C
BRANCH  11  12
HETATM   12  C10 UNL     1      19.653 -13.333  20.485  1.00  0.00     0.028 C
BRANCH  12  13
HETATM   13  C11 UNL     1      19.649 -14.484  21.519  1.00  0.00     0.024 C
BRANCH  13  14
HETATM   14  C12 UNL     1      18.403 -14.411  22.367  1.00  0.00     0.130 C
BRANCH  14  15
HETATM   15  N10 UNL     1      18.704 -14.809  23.727  1.00  0.00    -0.341 N
HETATM   16  C13 UNL     1      18.312 -15.900  24.404  1.00  0.00     0.183 A
HETATM   17  N11 UNL     1      18.833 -15.869  25.659  1.00  0.00    -0.350 N
HETATM   18  C14 UNL     1      19.561 -14.755  25.791  1.00  0.00     0.060 A
ATOM     19  H11 UNL     1      18.692 -16.576  26.380  1.00  0.00     0.166 HD
HETATM   20  C15 UNL     1      20.300 -14.232  26.848  1.00  0.00     0.032 A
HETATM   21  C19 UNL     1      19.475 -14.101  24.581  1.00  0.00     0.062 A
HETATM   22  C16 UNL     1      20.969 -13.031  26.697  1.00  0.00     0.002 A
HETATM   23  C17 UNL     1      20.876 -12.387  25.487  1.00  0.00     0.002 A
HETATM   24  C18 UNL     1      20.146 -12.906  24.448  1.00  0.00     0.032 A
ENDBRANCH  14  15
ENDBRANCH  13  14
ENDBRANCH  12  13
ENDBRANCH  11  12
ENDBRANCH   9  10
ENDBRANCH   8   9
BRANCH   1  25
HETATM   25  C3  UNL     1      14.184 -13.788  20.782  1.00  0.00     0.161 C
BRANCH  25  26
HETATM   26  N2  UNL     1      13.546 -14.760  20.301  1.00  0.00    -0.204 N
HETATM   27  O1  UNL     1      12.412 -15.289  20.980  1.00  0.00    -0.149 OA
HETATM   28  N1  UNL     1      11.922 -16.400  20.473  1.00  0.00    -0.240 N
HETATM   29  C2  UNL     1      12.729 -16.762  19.323  1.00  0.00     0.076 A
ATOM     30  H1  UNL     1      11.117 -16.917  20.827  1.00  0.00     0.197 HD
HETATM   31  C1  UNL     1      12.473 -17.832  18.590  1.00  0.00     0.047 C
HETATM   32  C20 UNL     1      13.734 -15.713  19.257  1.00  0.00     0.088 A
HETATM   33  C21 UNL     1      14.730 -15.768  18.393  1.00  0.00     0.003 C
HETATM   34  C22 UNL     1      15.013 -16.813  17.395  1.00  0.00     0.038 C
ENDBRANCH  25  26
ENDBRANCH   1  25
BRANCH   2  35
HETATM   35  N3  UNL     1      12.269 -12.276  22.520  1.00  0.00    -0.269 N
ATOM     36  H3  UNL     1      12.530 -13.178  22.919  1.00  0.00     0.190 HD
BRANCH  35  37
HETATM   37  N4  UNL     1      11.082 -11.807  22.908  1.00  0.00    -0.248 N
ATOM     38  H4  UNL     1      10.436 -11.429  22.215  1.00  0.00     0.207 HD
BRANCH  37  39
HETATM   39  N5  UNL     1      10.747 -11.827  24.151  1.00  0.00    -0.331 N
ATOM     40  H52 UNL     1      10.553 -12.725  24.593  1.00  0.00     0.178 HD
ATOM     41  H51 UNL     1      10.676 -10.959  24.683  1.00  0.00     0.178 HD
ENDBRANCH  37  39
ENDBRANCH  35  37
ENDBRANCH   2  35
BRANCH   5  42
HETATM   42  N7  UNL     1      14.100  -8.387  21.053  1.00  0.00    -0.233 N
ATOM     43  H72 UNL     1      13.223  -7.883  21.185  1.00  0.00     0.174 HD
ATOM     44  H71 UNL     1      14.941  -7.837  20.877  1.00  0.00     0.174 HD
ENDBRANCH   5  42
TORSDOF 12
ENDMDL