MODEL 3
REMARK VINA RESULT: -8.322252531      1.109      2.063
REMARK  11 active torsions:
REMARK  status: ('A' for Active; 'I' for Inactive)
REMARK    1  A    between atoms: C3_5  and  C4_6
REMARK    2  A    between atoms: C4_6  and  N2_7
REMARK    3  A    between atoms: N2_7  and  N3_9
REMARK    4  A    between atoms: N3_9  and  C7_12
REMARK    5  A    between atoms: C7_12  and  C8_13
REMARK    6  A    between atoms: C10_18  and  C11_19
REMARK       I    between atoms: C11_19  and  N5_21
REMARK    7  A    between atoms: N5_21  and  C12_23
REMARK    8  A    between atoms: C12_23  and  C13_24
REMARK    9  A    between atoms: C12_23  and  C16_27
REMARK   10  A    between atoms: C22_36  and  C23_37
REMARK   11  A    between atoms: N7_38  and  N8_40
ROOT
HETATM    1  C8  UNL     1      17.129 -12.976  20.479  1.00  0.00     0.240 C
HETATM    2  C9  UNL     1      18.654 -12.779  20.328  1.00  0.00     0.268 C
HETATM    3  N4  UNL     1      19.363 -13.216  21.498  1.00  0.00    -0.058 N
ATOM      4  H41 UNL     1      19.280 -12.538  22.254  1.00  0.00     0.278 HD
ATOM      5  H42 UNL     1      20.372 -13.176  21.353  1.00  0.00     0.278 HD
HETATM    6  C10 UNL     1      18.951 -14.533  21.932  1.00  0.00     0.307 C
HETATM    7  C19 UNL     1      17.470 -14.559  22.144  1.00  0.00     0.222 C
HETATM    8  C20 UNL     1      16.874 -15.605  21.255  1.00  0.00     0.043 C
HETATM    9  N6  UNL     1      16.918 -13.221  21.865  1.00  0.00    -0.061 N
ATOM     10  H61 UNL     1      15.943 -13.119  22.148  1.00  0.00     0.278 HD
ATOM     11  H62 UNL     1      17.303 -12.492  22.466  1.00  0.00     0.278 HD
ENDROOT
BRANCH   1  12
HETATM   12  C7  UNL     1      16.504 -11.766  19.898  1.00  0.00     0.298 C
BRANCH  12  13
HETATM   13  N3  UNL     1      15.552 -11.923  18.860  1.00  0.00     0.006 N
HETATM   14  C5  UNL     1      15.877 -11.354  17.590  1.00  0.00     0.302 C
HETATM   15  C6  UNL     1      15.219 -13.345  18.752  1.00  0.00     0.302 C
BRANCH  13  16
HETATM   16  N2  UNL     1      14.357 -11.315  19.295  1.00  0.00    -0.227 N
ATOM     17  H2  UNL     1      14.138 -10.363  19.002  1.00  0.00     0.193 HD
BRANCH  16  18
HETATM   18  C4  UNL     1      13.467 -12.009  20.127  1.00  0.00     0.143 C
BRANCH  18  19
HETATM   19  C3  UNL     1      12.920 -11.398  21.191  1.00  0.00     0.050 A
HETATM   20  N1  UNL     1      12.216 -12.006  22.133  1.00  0.00    -0.355 N
HETATM   21  C2  UNL     1      11.822 -11.056  23.054  1.00  0.00     0.035 A
ATOM     22  H1  UNL     1      12.002 -13.002  22.172  1.00  0.00     0.166 HD
HETATM   23  C1  UNL     1      11.109 -11.367  24.099  1.00  0.00     0.044 C
HETATM   24  C22 UNL     1      12.290  -9.824  22.685  1.00  0.00     0.009 A
HETATM   25  C21 UNL     1      12.990 -10.063  21.491  1.00  0.00     0.046 A
BRANCH  24  26
HETATM   26  C23 UNL     1      12.189  -8.509  23.249  1.00  0.00     0.120 C
HETATM   27  N7  UNL     1      12.674  -8.015  24.304  1.00  0.00    -0.318 N
ATOM     28  H7  UNL     1      13.252  -8.589  24.917  1.00  0.00     0.185 HD
BRANCH  27  29
HETATM   29  N8  UNL     1      12.414  -6.645  24.642  1.00  0.00    -0.345 N
ATOM     30  H82 UNL     1      11.496  -6.392  25.008  1.00  0.00     0.176 HD
ATOM     31  H81 UNL     1      13.141  -5.940  24.516  1.00  0.00     0.176 HD
ENDBRANCH  27  29
ENDBRANCH  24  26
ENDBRANCH  18  19
ENDBRANCH  16  18
ENDBRANCH  13  16
ENDBRANCH  12  13
ENDBRANCH   1  12
BRANCH   6  32
HETATM   32  C11 UNL     1      19.618 -14.883  23.206  1.00  0.00     0.251 C
HETATM   33  O1  UNL     1      19.058 -15.668  24.001  1.00  0.00    -0.271 OA
HETATM   34  N5  UNL     1      20.879 -14.347  23.540  1.00  0.00    -0.354 N
ATOM     35  H5  UNL     1      21.344 -13.706  22.897  1.00  0.00     0.162 HD
BRANCH  34  36
HETATM   36  C12 UNL     1      21.511 -14.699  24.779  1.00  0.00     0.091 C
BRANCH  36  37
HETATM   37  C13 UNL     1      21.348 -13.564  25.738  1.00  0.00     0.001 C
HETATM   38  C14 UNL     1      20.897 -12.266  25.082  1.00  0.00     0.011 C
HETATM   39  C15 UNL     1      20.471 -13.819  26.913  1.00  0.00     0.011 C
ENDBRANCH  36  37
BRANCH  36  40
HETATM   40  C16 UNL     1      22.894 -15.151  24.489  1.00  0.00     0.001 C
HETATM   41  C17 UNL     1      22.971 -16.504  23.793  1.00  0.00     0.011 C
HETATM   42  C18 UNL     1      23.815 -14.147  23.888  1.00  0.00     0.011 C
ENDBRANCH  36  40
ENDBRANCH  34  36
ENDBRANCH   6  32
TORSDOF 11
ENDMDL