MODEL 2
REMARK VINA RESULT: -8.030719656      1.904      9.280
REMARK  12 active torsions:
REMARK  status: ('A' for Active; 'I' for Inactive)
REMARK    1  A    between atoms: C3_5  and  N2_6
REMARK    2  A    between atoms: C5_12  and  C6_13
REMARK    3  A    between atoms: C6_13  and  C7_14
REMARK    4  A    between atoms: C7_14  and  C8_15
REMARK    5  A    between atoms: C8_15  and  C9_16
REMARK    6  A    between atoms: N4_20  and  C13_21
REMARK    7  A    between atoms: C13_21  and  C14_22
REMARK    8  A    between atoms: C14_22  and  O1_23
REMARK    9  A    between atoms: C14_22  and  C15_25
REMARK   10  A    between atoms: N5_28  and  C18_29
REMARK   11  A    between atoms: C18_29  and  C19_30
REMARK   12  A    between atoms: C19_30  and  N7_34
ROOT
HETATM    1  N7  UNL     1      21.657 -15.104  26.499  1.00  0.00    -0.282 N
ATOM      2  H7  UNL     1      21.883 -15.734  27.268  1.00  0.00     0.179 HD
HETATM    3  C20 UNL     1      21.146 -13.833  26.756  1.00  0.00     0.183 C
HETATM    4  N8  UNL     1      20.727 -12.767  26.988  1.00  0.00    -0.172 NA
ENDROOT
BRANCH   1   5
HETATM    5  C19 UNL     1      21.861 -15.511  25.159  1.00  0.00     0.102 C
HETATM    6  N6  UNL     1      23.045 -15.434  24.667  1.00  0.00    -0.387 N
ATOM      7  H62 UNL     1      23.191 -15.728  23.702  1.00  0.00     0.157 HD
ATOM      8  H61 UNL     1      23.823 -15.086  25.228  1.00  0.00     0.157 HD
BRANCH   5   9
HETATM    9  C18 UNL     1      20.734 -16.016  24.347  1.00  0.00     0.204 C
BRANCH   9  10
HETATM   10  N5  UNL     1      20.396 -15.135  23.258  1.00  0.00    -0.359 N
HETATM   11  C17 UNL     1      20.143 -15.646  22.101  1.00  0.00     0.091 A
HETATM   12  C16 UNL     1      19.799 -14.773  20.983  1.00  0.00     0.027 A
HETATM   13  C15 UNL     1      19.766 -13.477  21.226  1.00  0.00    -0.025 A
HETATM   14  C22 UNL     1      20.052 -12.939  22.522  1.00  0.00     0.027 A
HETATM   15  C21 UNL     1      20.355 -13.735  23.498  1.00  0.00     0.091 A
BRANCH  13  16
HETATM   16  C14 UNL     1      19.417 -12.574  20.094  1.00  0.00     0.169 C
BRANCH  16  17
HETATM   17  C13 UNL     1      18.177 -11.781  20.398  1.00  0.00     0.164 C
BRANCH  17  18
HETATM   18  N4  UNL     1      17.053 -12.208  19.564  1.00  0.00    -0.363 N
HETATM   19  C12 UNL     1      16.717 -11.568  18.442  1.00  0.00     0.090 A
HETATM   20  C11 UNL     1      15.619 -12.026  17.698  1.00  0.00     0.018 A
HETATM   21  C10 UNL     1      14.886 -13.121  18.105  1.00  0.00     0.010 A
HETATM   22  C9  UNL     1      15.240 -13.776  19.264  1.00  0.00    -0.043 A
HETATM   23  C23 UNL     1      16.319 -13.292  19.956  1.00  0.00     0.097 A
BRANCH  22  24
HETATM   24  C8  UNL     1      14.473 -14.966  19.736  1.00  0.00     0.040 C
BRANCH  24  25
HETATM   25  C7  UNL     1      13.022 -14.605  19.791  1.00  0.00     0.009 C
BRANCH  25  26
HETATM   26  C6  UNL     1      12.668 -13.868  21.068  1.00  0.00     0.030 C
BRANCH  26  27
HETATM   27  C5  UNL     1      12.950 -12.420  20.961  1.00  0.00     0.006 C
HETATM   28  C4  UNL     1      12.511 -11.552  21.848  1.00  0.00     0.071 A
HETATM   29  C2  UNL     1      12.705 -10.193  21.858  1.00  0.00     0.066 A
HETATM   30  N3  UNL     1      11.765 -11.845  22.947  1.00  0.00    -0.190 N
HETATM   31  C1  UNL     1      13.375  -9.478  20.975  1.00  0.00     0.046 C
HETATM   32  N1  UNL     1      12.073  -9.727  22.955  1.00  0.00    -0.191 N
HETATM   33  C3  UNL     1      11.497 -10.729  23.625  1.00  0.00     0.676 A
ATOM     34  H1  UNL     1      12.039  -8.747  23.235  1.00  0.00     0.184 HD
ATOM     35  H3  UNL     1      11.457 -12.779  23.214  1.00  0.00     0.184 HD
BRANCH  33  36
HETATM   36  N2  UNL     1      10.822 -10.610  24.709  1.00  0.00    -0.234 N
ATOM     37  H22 UNL     1      10.881  -9.865  25.404  1.00  0.00     0.174 HD
ATOM     38  H21 UNL     1      10.110 -11.262  25.037  1.00  0.00     0.174 HD
ENDBRANCH  33  36
ENDBRANCH  26  27
ENDBRANCH  25  26
ENDBRANCH  24  25
ENDBRANCH  22  24
ENDBRANCH  17  18
ENDBRANCH  16  17
BRANCH  16  39
HETATM   39  O1  UNL     1      20.533 -11.689  19.996  1.00  0.00    -0.389 OA
ATOM     40  H1  UNL     1      21.338 -12.188  20.057  1.00  0.00     0.210 HD
ENDBRANCH  16  39
ENDBRANCH  13  16
ENDBRANCH   9  10
ENDBRANCH   5   9
ENDBRANCH   1   5
TORSDOF 12
ENDMDL