MODEL 5
REMARK VINA RESULT: -7.613389202      1.842      2.936
REMARK  13 active torsions:
REMARK  status: ('A' for Active; 'I' for Inactive)
REMARK    1  A    between atoms: N1_2  and  C4_5
REMARK    2  A    between atoms: C4_5  and  C5_6
REMARK    3  A    between atoms: C5_6  and  C6_7
REMARK    4  A    between atoms: C6_7  and  C7_8
REMARK    5  A    between atoms: C7_8  and  C8_9
REMARK    6  A    between atoms: C8_9  and  O1_10
REMARK    7  A    between atoms: O1_10  and  C9_11
REMARK    8  A    between atoms: N2_14  and  C12_15
REMARK    9  A    between atoms: C12_15  and  C13_16
REMARK   10  A    between atoms: C16_19  and  C17_20
REMARK   11  A    between atoms: C17_20  and  N3_21
REMARK   12  A    between atoms: C19_23  and  N4_24
REMARK   13  A    between atoms: N4_24  and  N5_25
REMARK       I    between atoms: N9_36  and  C23_37
ROOT
HETATM    1  C9  UNL     1      20.198 -13.854  23.357  1.00  0.00     0.153 A
HETATM    2  C10 UNL     1      19.068 -13.108  23.278  1.00  0.00     0.074 A
HETATM    3  C11 UNL     1      18.033 -13.460  22.418  1.00  0.00     0.096 A
HETATM    4  N2  UNL     1      18.080 -14.528  21.632  1.00  0.00    -0.348 N
HETATM    5  C22 UNL     1      19.231 -15.270  21.729  1.00  0.00     0.196 A
HETATM    6  N9  UNL     1      20.243 -14.965  22.540  1.00  0.00    -0.262 N
HETATM    7  C23 UNL     1      21.407 -15.801  22.578  1.00  0.00     0.195 C
HETATM    8  N10 UNL     1      21.532 -16.877  21.907  1.00  0.00    -0.373 N
ATOM      9 1H10 UNL     1      22.360 -17.472  21.935  1.00  0.00     0.158 HD
ATOM     10 2H10 UNL     1      20.745 -17.139  21.313  1.00  0.00     0.158 HD
HETATM   11  N11 UNL     1      22.499 -15.438  23.405  1.00  0.00    -0.063 NA
ENDROOT
BRANCH   4  12
HETATM   12  C12 UNL     1      17.066 -14.962  20.711  1.00  0.00     0.169 C
BRANCH  12  13
HETATM   13  C13 UNL     1      15.745 -14.345  20.836  1.00  0.00    -0.016 A
HETATM   14  C14 UNL     1      15.495 -13.118  20.195  1.00  0.00     0.011 A
HETATM   15  C15 UNL     1      14.276 -12.486  20.251  1.00  0.00     0.009 A
HETATM   16  C16 UNL     1      13.249 -13.051  20.951  1.00  0.00    -0.037 A
HETATM   17  C20 UNL     1      13.474 -14.242  21.581  1.00  0.00     0.036 A
HETATM   18  C21 UNL     1      14.718 -14.903  21.534  1.00  0.00     0.054 A
HETATM   19  N8  UNL     1      14.851 -16.125  22.239  1.00  0.00    -0.102 NA
BRANCH  16  20
HETATM   20  C17 UNL     1      11.898 -12.452  21.072  1.00  0.00     0.188 C
BRANCH  20  21
HETATM   21  N3  UNL     1      11.782 -11.560  22.184  1.00  0.00    -0.280 N
HETATM   22  C18 UNL     1      12.236 -10.285  22.203  1.00  0.00     0.179 A
HETATM   23  C19 UNL     1      11.956  -9.720  23.434  1.00  0.00     0.235 A
HETATM   24  N6  UNL     1      11.332 -10.695  24.122  1.00  0.00    -0.257 N
HETATM   25  N7  UNL     1      11.235 -11.793  23.357  1.00  0.00    -0.238 N
ATOM     26  H6  UNL     1      10.986 -10.612  25.078  1.00  0.00     0.191 HD
ATOM     27  H7  UNL     1      10.805 -12.673  23.642  1.00  0.00     0.208 HD
BRANCH  23  28
HETATM   28  N4  UNL     1      12.202  -8.568  23.866  1.00  0.00    -0.311 NA
BRANCH  28  29
HETATM   29  N5  UNL     1      12.672  -7.540  24.348  1.00  0.00    -0.278 N
ATOM     30  H52 UNL     1      13.600  -7.962  24.372  1.00  0.00     0.191 HD
ATOM     31  H51 UNL     1      12.860  -6.616  24.736  1.00  0.00     0.191 HD
ENDBRANCH  28  29
ENDBRANCH  23  28
ENDBRANCH  20  21
ENDBRANCH  16  20
ENDBRANCH  12  13
ENDBRANCH   4  12
BRANCH   1  32
HETATM   32  O1  UNL     1      21.276 -13.647  24.129  1.00  0.00    -0.335 OA
BRANCH  32  33
HETATM   33  C8  UNL     1      21.606 -12.872  25.195  1.00  0.00     0.177 C
BRANCH  33  34
HETATM   34  C7  UNL     1      20.856 -13.249  26.455  1.00  0.00     0.027 C
BRANCH  34  35
HETATM   35  C6  UNL     1      20.826 -14.757  26.615  1.00  0.00     0.004 C
BRANCH  35  36
HETATM   36  C5  UNL     1      19.505 -15.392  26.459  1.00  0.00     0.028 C
BRANCH  36  37
HETATM   37  C4  UNL     1      19.382 -16.856  26.550  1.00  0.00     0.236 C
BRANCH  37  38
HETATM   38  N1  UNL     1      18.661 -17.536  25.531  1.00  0.00    -0.079 N
HETATM   39  C1  UNL     1      17.859 -18.655  25.937  1.00  0.00     0.271 C
HETATM   40  C2  UNL     1      17.831 -16.649  24.732  1.00  0.00     0.271 C
HETATM   41  C3  UNL     1      19.635 -18.091  24.563  1.00  0.00     0.271 C
ENDBRANCH  37  38
ENDBRANCH  36  37
ENDBRANCH  35  36
ENDBRANCH  34  35
ENDBRANCH  33  34
ENDBRANCH  32  33
ENDBRANCH   1  32
TORSDOF 13
ENDMDL