MODEL 2
REMARK VINA RESULT: -8.466433104      2.127      4.041
REMARK  14 active torsions:
REMARK  status: ('A' for Active; 'I' for Inactive)
REMARK    1  A    between atoms: C6_7  and  C7_8
REMARK    2  A    between atoms: C7_8  and  C8_9
REMARK    3  A    between atoms: C8_9  and  C9_10
REMARK    4  A    between atoms: C9_10  and  C10_11
REMARK    5  A    between atoms: C10_11  and  N2_12
REMARK    6  A    between atoms: C13_15  and  C14_16
REMARK    7  A    between atoms: C15_17  and  C16_18
REMARK    8  A    between atoms: C16_18  and  C17_19
REMARK    9  A    between atoms: C17_19  and  C18_20
REMARK   10  A    between atoms: C18_20  and  C19_21
REMARK   11  A    between atoms: C19_21  and  N3_22
REMARK   12  A    between atoms: C21_24  and  O1_25
REMARK   13  A    between atoms: C23_31  and  N6_32
REMARK   14  A    between atoms: C24_35  and  N7_36
REMARK       I    between atoms: N7_36  and  C25_38
ROOT
HETATM    1  N2  UNL     1      17.694 -14.062  22.426  1.00  0.00    -0.302 N
HETATM    2  C11 UNL     1      17.514 -15.357  22.248  1.00  0.00     0.111 A
HETATM    3  C12 UNL     1      16.806 -15.937  21.224  1.00  0.00     0.034 A
HETATM    4  C13 UNL     1      16.224 -15.097  20.287  1.00  0.00     0.010 A
HETATM    5  C24 UNL     1      16.419 -13.723  20.478  1.00  0.00     0.132 A
HETATM    6  N10 UNL     1      17.129 -13.253  21.517  1.00  0.00    -0.283 N
ATOM      7  H10 UNL     1      17.243 -12.244  21.618  1.00  0.00     0.189 HD
ENDROOT
BRANCH   4   8
HETATM    8  C14 UNL     1      15.423 -15.593  19.205  1.00  0.00     0.011 C
HETATM    9  C15 UNL     1      14.217 -16.383  19.338  1.00  0.00    -0.026 C
BRANCH   9  10
HETATM   10  C16 UNL     1      13.004 -16.029  20.086  1.00  0.00     0.027 C
BRANCH  10  11
HETATM   11  C17 UNL     1      12.536 -14.651  19.871  1.00  0.00     0.005 C
BRANCH  11  12
HETATM   12  C18 UNL     1      12.759 -13.709  21.046  1.00  0.00     0.021 C
BRANCH  12  13
HETATM   13  C19 UNL     1      12.849 -12.293  20.574  1.00  0.00     0.147 C
BRANCH  13  14
HETATM   14  N3  UNL     1      12.528 -11.312  21.578  1.00  0.00    -0.188 N
HETATM   15  C20 UNL     1      11.933 -11.606  22.745  1.00  0.00     0.166 A
HETATM   16  C21 UNL     1      11.667 -10.575  23.658  1.00  0.00     0.173 A
HETATM   17  N4  UNL     1      11.981  -9.298  23.419  1.00  0.00    -0.260 N
HETATM   18  C22 UNL     1      11.706  -8.217  24.373  1.00  0.00     0.181 C
HETATM   19  N5  UNL     1      12.569  -9.030  22.259  1.00  0.00    -0.128 N
HETATM   20  C23 UNL     1      12.833 -10.007  21.367  1.00  0.00     0.692 A
ATOM     21  H5  UNL     1      12.826  -8.067  22.039  1.00  0.00     0.206 HD
BRANCH  16  22
HETATM   22  O1  UNL     1      11.052 -10.895  24.860  1.00  0.00    -0.344 OA
ATOM     23  H1  UNL     1      10.681 -10.194  25.382  1.00  0.00     0.219 HD
ENDBRANCH  16  22
BRANCH  20  24
HETATM   24  N6  UNL     1      13.406  -9.729  20.247  1.00  0.00    -0.233 N
ATOM     25  H62 UNL     1      14.401  -9.909  20.119  1.00  0.00     0.174 HD
ATOM     26  H61 UNL     1      12.809  -9.333  19.521  1.00  0.00     0.174 HD
ENDBRANCH  20  24
ENDBRANCH  13  14
ENDBRANCH  12  13
ENDBRANCH  11  12
ENDBRANCH  10  11
ENDBRANCH   9  10
ENDBRANCH   4   8
BRANCH   5  27
HETATM   27  N7  UNL     1      15.892 -12.918  19.598  1.00  0.00    -0.315 N
HETATM   28  C25 UNL     1      16.600 -11.736  19.274  1.00  0.00     0.187 C
HETATM   29  N8  UNL     1      17.612 -11.739  18.438  1.00  0.00    -0.373 N
HETATM   30  N9  UNL     1      16.220 -10.503  19.847  1.00  0.00    -0.064 NA
ATOM     31  H82 UNL     1      17.886 -12.629  18.024  1.00  0.00     0.158 HD
ATOM     32  H81 UNL     1      18.122 -10.887  18.205  1.00  0.00     0.158 HD
ATOM     33  H7  UNL     1      14.998 -13.133  19.157  1.00  0.00     0.170 HD
ENDBRANCH   5  27
BRANCH   1  34
HETATM   34  C10 UNL     1      18.409 -13.444  23.502  1.00  0.00     0.148 C
BRANCH  34  35
HETATM   35  C9  UNL     1      19.878 -13.326  23.327  1.00  0.00     0.022 C
BRANCH  35  36
HETATM   36  C8  UNL     1      20.612 -12.668  24.466  1.00  0.00     0.008 C
BRANCH  36  37
HETATM   37  C7  UNL     1      21.572 -13.633  25.127  1.00  0.00     0.057 C
BRANCH  37  38
HETATM   38  C6  UNL     1      20.987 -14.899  25.536  1.00  0.00     0.010 A
HETATM   39  N1  UNL     1      21.550 -16.056  25.081  1.00  0.00    -0.364 N
HETATM   40  C1  UNL     1      22.687 -15.996  24.213  1.00  0.00     0.155 C
HETATM   41  C2  UNL     1      21.060 -17.272  25.415  1.00  0.00     0.090 A
HETATM   42  C3  UNL     1      19.960 -17.389  26.234  1.00  0.00     0.017 A
HETATM   43  C4  UNL     1      19.366 -16.254  26.710  1.00  0.00     0.003 A
HETATM   44  C5  UNL     1      19.888 -15.016  26.354  1.00  0.00     0.025 A
ENDBRANCH  37  38
ENDBRANCH  36  37
ENDBRANCH  35  36
ENDBRANCH  34  35
ENDBRANCH   1  34
TORSDOF 14
ENDMDL