MODEL 5
REMARK VINA RESULT: -7.664888732      1.496      2.952
REMARK  13 active torsions:
REMARK  status: ('A' for Active; 'I' for Inactive)
REMARK    1  A    between atoms: C7_8  and  C8_9
REMARK    2  A    between atoms: C8_9  and  C9_10
REMARK    3  A    between atoms: C9_10  and  N2_11
REMARK    4  A    between atoms: N2_11  and  C10_12
REMARK    5  A    between atoms: C10_12  and  C11_13
REMARK    6  A    between atoms: C11_13  and  C12_14
REMARK    7  A    between atoms: C12_14  and  N3_15
REMARK    8  A    between atoms: N3_15  and  C13_16
REMARK    9  A    between atoms: C13_16  and  C14_17
REMARK   10  A    between atoms: C14_17  and  O1_18
REMARK   11  A    between atoms: N4_24  and  N5_26
REMARK   12  A    between atoms: C21_38  and  C22_39
REMARK   13  A    between atoms: C22_39  and  O3_40
ROOT
HETATM    1  N2  UNL     1      13.876 -16.447  19.885  1.00  0.00     0.032 N
HETATM    2  C19 UNL     1      13.481 -17.103  18.679  1.00  0.00     0.391 C
HETATM    3  N7  UNL     1      12.598 -18.221  19.077  1.00  0.00    -0.316 N
ATOM      4  H7  UNL     1      12.133 -18.888  18.462  1.00  0.00     0.166 HD
HETATM    5  C20 UNL     1      12.533 -18.172  20.483  1.00  0.00     0.341 C
HETATM    6  O2  UNL     1      12.158 -19.108  21.211  1.00  0.00    -0.246 OA
HETATM    7  N8  UNL     1      12.968 -16.883  20.864  1.00  0.00    -0.165 N
ATOM      8  H8  UNL     1      12.677 -16.366  21.693  1.00  0.00     0.199 HD
ENDROOT
BRANCH   1   9
HETATM    9  C9  UNL     1      15.165 -17.009  20.345  1.00  0.00     0.272 C
BRANCH   9  10
HETATM   10  C8  UNL     1      15.291 -16.888  21.811  1.00  0.00     0.069 C
BRANCH  10  11
HETATM   11  C7  UNL     1      16.547 -16.213  22.242  1.00  0.00    -0.047 A
HETATM   12  C6  UNL     1      17.064 -15.190  21.435  1.00  0.00     0.021 A
HETATM   13  C5  UNL     1      18.247 -14.595  21.810  1.00  0.00    -0.009 A
HETATM   14  C4  UNL     1      18.772 -13.577  21.014  1.00  0.00     0.015 A
HETATM   15  C24 UNL     1      18.911 -14.977  22.932  1.00  0.00     0.044 A
HETATM   16  C3  UNL     1      19.949 -13.007  21.410  1.00  0.00     0.018 A
HETATM   17  C2  UNL     1      20.580 -13.436  22.560  1.00  0.00     0.090 A
HETATM   18  N1  UNL     1      20.073 -14.408  23.316  1.00  0.00    -0.360 N
HETATM   19  C1  UNL     1      20.716 -14.870  24.524  1.00  0.00     0.155 C
HETATM   20  C23 UNL     1      18.384 -15.977  23.705  1.00  0.00     0.040 A
HETATM   21  C21 UNL     1      17.183 -16.626  23.379  1.00  0.00    -0.026 A
BRANCH  21  22
HETATM   22  C22 UNL     1      16.696 -17.675  24.309  1.00  0.00     0.203 C
BRANCH  22  23
HETATM   23  O3  UNL     1      17.718 -18.109  25.157  1.00  0.00    -0.396 OA
ATOM     24  H3  UNL     1      17.383 -18.304  26.025  1.00  0.00     0.209 HD
ENDBRANCH  22  23
ENDBRANCH  21  22
ENDBRANCH  10  11
ENDBRANCH   9  10
ENDBRANCH   1   9
BRANCH   1  25
HETATM   25  C10 UNL     1      14.002 -15.059  19.775  1.00  0.00     0.269 C
BRANCH  25  26
HETATM   26  C11 UNL     1      13.228 -14.170  20.724  1.00  0.00     0.059 C
BRANCH  26  27
HETATM   27  C12 UNL     1      13.113 -12.797  20.283  1.00  0.00     0.247 C
BRANCH  27  28
HETATM   28  N3  UNL     1      13.403 -11.690  21.124  1.00  0.00    -0.023 N
HETATM   29  C15 UNL     1      13.213 -10.494  20.224  1.00  0.00     0.246 C
HETATM   30  C16 UNL     1      13.235  -9.325  21.180  1.00  0.00     0.036 C
HETATM   31  C17 UNL     1      12.939  -9.946  22.544  1.00  0.00     0.088 C
HETATM   32  C18 UNL     1      12.529 -11.305  22.115  1.00  0.00     0.200 C
HETATM   33  N4  UNL     1      11.548 -11.923  22.608  1.00  0.00    -0.269 N
ATOM     34  H4  UNL     1      11.382 -12.848  22.212  1.00  0.00     0.189 HD
BRANCH  28  35
HETATM   35  C13 UNL     1      14.796 -11.577  21.441  1.00  0.00     0.271 C
BRANCH  35  36
HETATM   36  C14 UNL     1      15.788 -11.606  20.367  1.00  0.00     0.192 C
BRANCH  36  37
HETATM   37  O1  UNL     1      16.633 -10.527  20.264  1.00  0.00    -0.399 OA
ATOM     38  H1  UNL     1      17.302 -10.434  20.932  1.00  0.00     0.209 HD
ENDBRANCH  36  37
ENDBRANCH  35  36
ENDBRANCH  28  35
BRANCH  33  39
HETATM   39  N5  UNL     1      10.671 -11.553  23.592  1.00  0.00    -0.248 N
HETATM   40  N6  UNL     1      10.857 -11.820  24.812  1.00  0.00    -0.331 N
ATOM     41  H62 UNL     1      11.702 -12.335  25.058  1.00  0.00     0.178 HD
ATOM     42  H61 UNL     1      10.203 -11.544  25.545  1.00  0.00     0.178 HD
ATOM     43  H5  UNL     1       9.831 -11.038  23.328  1.00  0.00     0.207 HD
ENDBRANCH  33  39
ENDBRANCH  27  28
ENDBRANCH  26  27
ENDBRANCH  25  26
ENDBRANCH   1  25
TORSDOF 13
ENDMDL