MODEL 3
REMARK VINA RESULT: -8.243017212      2.472      4.675
REMARK  14 active torsions:
REMARK  status: ('A' for Active; 'I' for Inactive)
REMARK    1  A    between atoms: C5_8  and  C6_9
REMARK    2  A    between atoms: N2_10  and  N3_12
REMARK    3  A    between atoms: N5_19  and  C9_20
REMARK    4  A    between atoms: C9_20  and  C10_21
REMARK    5  A    between atoms: C10_21  and  C11_22
REMARK    6  A    between atoms: C11_22  and  C12_23
REMARK    7  A    between atoms: C12_23  and  N8_29
REMARK    8  A    between atoms: N6_24  and  N7_26
REMARK    9  A    between atoms: N8_29  and  C14_31
REMARK   10  A    between atoms: N8_29  and  C17_38
REMARK   11  A    between atoms: C14_31  and  C15_32
REMARK   12  A    between atoms: C15_32  and  C16_33
REMARK   13  A    between atoms: C16_33  and  N9_34
REMARK   14  A    between atoms: C17_38  and  C18_39
ROOT
HETATM    1  C10 UNL     1      17.038 -17.882  22.169  1.00  0.00     0.052 C
ENDROOT
BRANCH   1   2
HETATM    2  C9  UNL     1      17.193 -16.592  21.387  1.00  0.00     0.071 C
BRANCH   2   3
HETATM    3  N5  UNL     1      16.195 -15.617  21.559  1.00  0.00    -0.321 N
HETATM    4  C8  UNL     1      14.910 -16.014  21.915  1.00  0.00     0.099 A
HETATM    5  C7  UNL     1      13.818 -15.233  21.932  1.00  0.00     0.033 A
HETATM    6  C5  UNL     1      13.954 -13.925  21.569  1.00  0.00     0.013 A
HETATM    7  C4  UNL     1      15.192 -13.469  21.209  1.00  0.00     0.092 A
HETATM    8  N1  UNL     1      15.316 -12.181  20.875  1.00  0.00    -0.318 N
HETATM    9  C24 UNL     1      16.318 -14.336  21.214  1.00  0.00     0.141 A
HETATM   10  C3  UNL     1      16.487 -11.670  20.541  1.00  0.00     0.268 A
ATOM     11  H1  UNL     1      14.491 -11.581  20.879  1.00  0.00     0.169 HD
HETATM   12  C2  UNL     1      17.577 -12.498  20.548  1.00  0.00     0.077 A
HETATM   13  O1  UNL     1      16.669 -10.464  20.214  1.00  0.00    -0.266 OA
HETATM   14  C1  UNL     1      18.924 -11.954  20.159  1.00  0.00     0.074 C
HETATM   15  N10 UNL     1      17.524 -13.830  20.882  1.00  0.00    -0.334 N
HETATM   16  C25 UNL     1      18.695 -14.603  21.001  1.00  0.00     0.158 C
BRANCH   6  17
HETATM   17  C6  UNL     1      12.765 -13.057  21.576  1.00  0.00     0.122 C
HETATM   18  N2  UNL     1      12.403 -12.483  22.674  1.00  0.00    -0.297 N
ATOM     19  H2  UNL     1      12.945 -12.637  23.524  1.00  0.00     0.187 HD
BRANCH  18  20
HETATM   20  N3  UNL     1      11.269 -11.648  22.713  1.00  0.00    -0.250 N
HETATM   21  N4  UNL     1      10.558 -11.595  23.751  1.00  0.00    -0.331 N
ATOM     22  H42 UNL     1      10.817 -12.165  24.556  1.00  0.00     0.178 HD
ATOM     23  H41 UNL     1       9.737 -10.990  23.780  1.00  0.00     0.178 HD
ATOM     24  H3  UNL     1      11.024 -11.083  21.900  1.00  0.00     0.207 HD
ENDBRANCH  18  20
ENDBRANCH   6  17
ENDBRANCH   2   3
ENDBRANCH   1   2
BRANCH   1  25
HETATM   25  C11 UNL     1      18.179 -18.513  22.803  1.00  0.00     0.091 C
BRANCH  25  26
HETATM   26  C12 UNL     1      18.559 -18.051  24.159  1.00  0.00     0.198 C
HETATM   27  N6  UNL     1      17.968 -18.662  25.161  1.00  0.00    -0.289 N
ATOM     28  H6  UNL     1      18.180 -18.397  26.123  1.00  0.00     0.187 HD
BRANCH  27  29
HETATM   29  N7  UNL     1      17.051 -19.670  24.900  1.00  0.00    -0.344 N
ATOM     30  H72 UNL     1      16.129 -19.425  24.537  1.00  0.00     0.176 HD
ATOM     31  H71 UNL     1      17.312 -20.641  25.073  1.00  0.00     0.176 HD
ENDBRANCH  27  29
BRANCH  26  32
HETATM   32  N8  UNL     1      19.499 -17.019  24.446  1.00  0.00    -0.025 N
HETATM   33  C13 UNL     1      20.335 -16.863  23.266  1.00  0.00     0.281 C
BRANCH  32  34
HETATM   34  C14 UNL     1      20.343 -17.425  25.514  1.00  0.00     0.247 C
BRANCH  34  35
HETATM   35  C15 UNL     1      21.769 -17.706  25.091  1.00  0.00     0.055 C
BRANCH  35  36
HETATM   36  C16 UNL     1      22.685 -16.908  26.027  1.00  0.00     0.231 C
BRANCH  36  37
HETATM   37  N9  UNL     1      23.128 -15.716  25.343  1.00  0.00    -0.079 N
ATOM     38  H93 UNL     1      22.377 -15.264  24.820  1.00  0.00     0.274 HD
ATOM     39  H92 UNL     1      23.332 -14.951  25.987  1.00  0.00     0.274 HD
ATOM     40  H91 UNL     1      23.926 -15.951  24.753  1.00  0.00     0.274 HD
ENDBRANCH  36  37
ENDBRANCH  35  36
ENDBRANCH  34  35
ENDBRANCH  32  34
BRANCH  32  41
HETATM   41  C17 UNL     1      18.747 -15.815  24.734  1.00  0.00     0.283 C
BRANCH  41  42
HETATM   42  C18 UNL     1      19.548 -14.695  25.222  1.00  0.00    -0.032 A
HETATM   43  C19 UNL     1      19.940 -13.705  24.354  1.00  0.00     0.009 A
HETATM   44  C20 UNL     1      20.690 -12.611  24.710  1.00  0.00     0.001 A
HETATM   45  C21 UNL     1      21.059 -12.520  26.028  1.00  0.00     0.000 A
HETATM   46  C22 UNL     1      20.678 -13.498  26.924  1.00  0.00     0.001 A
HETATM   47  C23 UNL     1      19.927 -14.583  26.534  1.00  0.00     0.009 A
ENDBRANCH  41  42
ENDBRANCH  32  41
ENDBRANCH  26  32
ENDBRANCH  25  26
ENDBRANCH   1  25
TORSDOF 14
ENDMDL