MODEL 3
REMARK VINA RESULT: -8.858303345      0.629      1.026
REMARK  14 active torsions:
REMARK  status: ('A' for Active; 'I' for Inactive)
REMARK    1  A    between atoms: N1_2  and  C4_5
REMARK    2  A    between atoms: C4_5  and  C5_6
REMARK    3  A    between atoms: C5_6  and  C6_7
REMARK    4  A    between atoms: C6_7  and  C7_8
REMARK    5  A    between atoms: C7_8  and  C8_9
REMARK    6  A    between atoms: C8_9  and  N2_10
REMARK    7  A    between atoms: C8_9  and  C13_22
REMARK       I    between atoms: N2_10  and  C9_12
REMARK    8  A    between atoms: C9_12  and  C10_14
REMARK    9  A    between atoms: N5_25  and  C16_26
REMARK   10  A    between atoms: C16_26  and  C17_27
REMARK   11  A    between atoms: C18_28  and  C19_29
REMARK   12  A    between atoms: C19_29  and  C20_30
REMARK   13  A    between atoms: N8_37  and  N9_39
REMARK   14  A    between atoms: N9_39  and  N10_41
ROOT
HETATM    1  C13 UNL     1      15.739 -12.556  20.244  1.00  0.00    -0.033 A
HETATM    2  C14 UNL     1      16.650 -11.591  19.867  1.00  0.00     0.026 A
HETATM    3  C15 UNL     1      18.016 -11.791  20.093  1.00  0.00     0.092 A
HETATM    4  N5  UNL     1      18.504 -12.899  20.672  1.00  0.00    -0.356 N
HETATM    5  C23 UNL     1      17.603 -13.839  21.036  1.00  0.00     0.092 A
HETATM    6  C24 UNL     1      16.243 -13.701  20.840  1.00  0.00     0.026 A
ENDROOT
BRANCH   1   7
HETATM    7  C8  UNL     1      14.298 -12.418  20.075  1.00  0.00     0.118 C
BRANCH   7   8
HETATM    8  C7  UNL     1      13.648 -13.741  19.790  1.00  0.00     0.030 C
BRANCH   8   9
HETATM    9  C6  UNL     1      12.772 -14.225  20.933  1.00  0.00     0.004 C
BRANCH   9  10
HETATM   10  C5  UNL     1      12.395 -15.673  20.638  1.00  0.00     0.028 C
BRANCH  10  11
HETATM   11  C4  UNL     1      13.020 -16.211  19.401  1.00  0.00     0.236 C
BRANCH  11  12
HETATM   12  N1  UNL     1      12.023 -16.879  18.592  1.00  0.00    -0.079 N
HETATM   13  C1  UNL     1      12.679 -17.221  17.321  1.00  0.00     0.271 C
HETATM   14  C2  UNL     1      10.878 -16.075  18.342  1.00  0.00     0.271 C
HETATM   15  C3  UNL     1      11.608 -18.135  19.197  1.00  0.00     0.271 C
ENDBRANCH  11  12
ENDBRANCH  10  11
ENDBRANCH   9  10
ENDBRANCH   8   9
ENDBRANCH   7   8
BRANCH   7  16
HETATM   16  N2  UNL     1      13.629 -11.795  21.193  1.00  0.00    -0.347 N
HETATM   17  C9  UNL     1      13.292 -10.418  21.223  1.00  0.00     0.270 C
HETATM   18  O1  UNL     1      13.584  -9.695  20.257  1.00  0.00    -0.266 OA
ATOM     19  H2  UNL     1      13.388 -12.372  21.998  1.00  0.00     0.163 HD
BRANCH  17  20
HETATM   20  C10 UNL     1      12.617  -9.883  22.380  1.00  0.00     0.120 A
HETATM   21  C11 UNL     1      11.650 -10.474  23.163  1.00  0.00     0.128 A
HETATM   22  N3  UNL     1      11.319  -9.659  24.170  1.00  0.00    -0.316 N
HETATM   23  C12 UNL     1      12.055  -8.548  24.053  1.00  0.00     0.324 A
ATOM     24  H3  UNL     1      10.629  -9.850  24.897  1.00  0.00     0.170 HD
HETATM   25  O2  UNL     1      11.993  -7.553  24.854  1.00  0.00    -0.247 OA
HETATM   26  N4  UNL     1      12.849  -8.665  22.970  1.00  0.00    -0.303 N
ATOM     27  H4  UNL     1      13.514  -7.965  22.643  1.00  0.00     0.171 HD
ENDBRANCH  17  20
ENDBRANCH   7  16
ENDBRANCH   1   7
BRANCH   4  28
HETATM   28  C16 UNL     1      19.898 -13.153  20.917  1.00  0.00     0.221 C
BRANCH  28  29
HETATM   29  C17 UNL     1      20.073 -13.103  22.391  1.00  0.00    -0.086 C
HETATM   30  C18 UNL     1      20.239 -13.088  23.592  1.00  0.00    -0.099 C
BRANCH  30  31
HETATM   31  C19 UNL     1      20.454 -13.110  25.064  1.00  0.00     0.154 C
BRANCH  31  32
HETATM   32  C20 UNL     1      20.604 -14.564  25.479  1.00  0.00     0.063 A
HETATM   33  N6  UNL     1      19.739 -15.351  25.979  1.00  0.00    -0.373 N
HETATM   34  C21 UNL     1      20.281 -16.652  26.233  1.00  0.00     0.245 A
ATOM     35  H6  UNL     1      18.774 -15.087  26.175  1.00  0.00     0.161 HD
HETATM   36  N7  UNL     1      21.644 -16.599  25.794  1.00  0.00    -0.358 N
HETATM   37  C22 UNL     1      21.869 -15.290  25.325  1.00  0.00     0.141 A
ATOM     38  H7  UNL     1      22.321 -17.362  25.818  1.00  0.00     0.162 HD
HETATM   39  N8  UNL     1      22.984 -14.816  24.834  1.00  0.00    -0.270 N
ATOM     40  H8  UNL     1      23.011 -13.848  24.515  1.00  0.00     0.190 HD
BRANCH  39  41
HETATM   41  N9  UNL     1      24.070 -15.546  24.738  1.00  0.00    -0.248 N
ATOM     42  H9  UNL     1      24.227 -16.491  25.089  1.00  0.00     0.207 HD
BRANCH  41  43
HETATM   43  N10 UNL     1      25.021 -14.670  23.995  1.00  0.00    -0.331 N
ATOM     44 2H10 UNL     1      25.701 -14.019  24.389  1.00  0.00     0.178 HD
ATOM     45 1H10 UNL     1      24.828 -14.878  23.016  1.00  0.00     0.178 HD
ENDBRANCH  41  43
ENDBRANCH  39  41
ENDBRANCH  31  32
ENDBRANCH  30  31
ENDBRANCH  28  29
ENDBRANCH   4  28
TORSDOF 14
ENDMDL