MODEL 2
REMARK VINA RESULT: -8.514450244      3.417      6.368
REMARK  13 active torsions:
REMARK  status: ('A' for Active; 'I' for Inactive)
REMARK    1  A    between atoms: C2_2  and  C4_4
REMARK    2  A    between atoms: C4_4  and  C5_5
REMARK    3  A    between atoms: C8_8  and  C9_9
REMARK    4  A    between atoms: C9_9  and  C10_10
REMARK    5  A    between atoms: C10_10  and  C11_11
REMARK    6  A    between atoms: C11_11  and  C12_12
REMARK    7  A    between atoms: C12_12  and  C13_13
REMARK    8  A    between atoms: C13_13  and  C14_14
REMARK    9  A    between atoms: C14_14  and  N1_15
REMARK   10  A    between atoms: C16_17  and  C17_18
REMARK   11  A    between atoms: C19_22  and  N3_23
REMARK   12  A    between atoms: N3_23  and  C20_25
REMARK   13  A    between atoms: C20_25  and  C21_26
ROOT
HETATM    1  N1  UNL     1      18.556 -16.610  24.435  1.00  0.00    -0.301 N
HETATM    2  C15 UNL     1      19.516 -16.844  23.524  1.00  0.00     0.126 A
HETATM    3  C16 UNL     1      19.219 -16.804  22.187  1.00  0.00     0.050 A
HETATM    4  C18 UNL     1      17.907 -16.519  21.802  1.00  0.00     0.068 A
HETATM    5  C19 UNL     1      16.956 -16.286  22.764  1.00  0.00     0.120 A
HETATM    6  N6  UNL     1      17.321 -16.341  24.049  1.00  0.00    -0.284 N
ATOM      7  H6  UNL     1      16.614 -16.168  24.764  1.00  0.00     0.188 HD
ENDROOT
BRANCH   1   8
HETATM    8  C14 UNL     1      18.941 -16.667  25.838  1.00  0.00     0.148 C
BRANCH   8   9
HETATM    9  C13 UNL     1      19.081 -15.292  26.429  1.00  0.00     0.022 C
BRANCH   9  10
HETATM   10  C12 UNL     1      20.531 -14.903  26.456  1.00  0.00     0.002 C
BRANCH  10  11
HETATM   11  C11 UNL     1      20.663 -13.433  26.650  1.00  0.00     0.000 C
BRANCH  11  12
HETATM   12  C10 UNL     1      21.011 -12.707  25.362  1.00  0.00     0.006 C
BRANCH  12  13
HETATM   13  C9  UNL     1      21.384 -13.646  24.240  1.00  0.00     0.057 C
BRANCH  13  14
HETATM   14  C8  UNL     1      20.494 -13.323  23.093  1.00  0.00     0.010 A
HETATM   15  C7  UNL     1      19.130 -13.214  23.126  1.00  0.00     0.038 A
HETATM   16  C6  UNL     1      18.659 -12.895  21.840  1.00  0.00    -0.012 A
HETATM   17  C5  UNL     1      17.388 -12.740  21.605  1.00  0.00    -0.009 C
HETATM   18  C25 UNL     1      19.752 -12.817  21.046  1.00  0.00     0.033 A
HETATM   19  N7  UNL     1      20.847 -13.080  21.833  1.00  0.00    -0.360 N
HETATM   20  C26 UNL     1      19.840 -12.552  19.745  1.00  0.00     0.044 C
ATOM     21  H7  UNL     1      21.809 -13.088  21.494  1.00  0.00     0.166 HD
BRANCH  17  22
HETATM   22  C4  UNL     1      16.686 -12.409  20.365  1.00  0.00     0.061 C
BRANCH  22  23
HETATM   23  C2  UNL     1      15.233 -12.126  20.580  1.00  0.00    -0.090 C
HETATM   24  C1  UNL     1      14.680 -12.378  21.752  1.00  0.00     0.014 C
HETATM   25  C3  UNL     1      14.396 -11.569  19.501  1.00  0.00     0.043 C
ENDBRANCH  22  23
ENDBRANCH  17  22
ENDBRANCH  13  14
ENDBRANCH  12  13
ENDBRANCH  11  12
ENDBRANCH  10  11
ENDBRANCH   9  10
ENDBRANCH   8   9
ENDBRANCH   1   8
BRANCH   3  26
HETATM   26  C17 UNL     1      20.245 -17.054  21.203  1.00  0.00     0.266 C
HETATM   27  N2  UNL     1      20.345 -18.344  20.618  1.00  0.00    -0.057 NA
HETATM   28  O1  UNL     1      21.045 -16.156  20.855  1.00  0.00    -0.271 OA
ENDBRANCH   3  26
BRANCH   5  29
HETATM   29  N3  UNL     1      15.631 -15.997  22.345  1.00  0.00    -0.349 N
ATOM     30  H3  UNL     1      14.907 -15.883  23.054  1.00  0.00     0.167 HD
BRANCH  29  31
HETATM   31  C20 UNL     1      15.272 -15.861  20.980  1.00  0.00     0.125 C
BRANCH  31  32
HETATM   32  C21 UNL     1      14.042 -16.190  20.557  1.00  0.00     0.118 A
HETATM   33  N4  UNL     1      13.343 -15.609  19.571  1.00  0.00    -0.338 N
HETATM   34  C22 UNL     1      12.160 -16.229  19.459  1.00  0.00     0.098 A
ATOM     35  H4  UNL     1      13.658 -14.824  19.001  1.00  0.00     0.167 HD
HETATM   36  C23 UNL     1      11.180 -15.958  18.605  1.00  0.00     0.063 C
HETATM   37  N5  UNL     1      12.098 -17.212  20.374  1.00  0.00    -0.308 N
HETATM   38  C24 UNL     1      13.251 -17.198  21.057  1.00  0.00     0.275 A
ATOM     39  H5  UNL     1      11.316 -17.851  20.521  1.00  0.00     0.170 HD
HETATM   40  O2  UNL     1      13.528 -17.992  21.994  1.00  0.00    -0.266 OA
ENDBRANCH  31  32
ENDBRANCH  29  31
ENDBRANCH   5  29
TORSDOF 13
ENDMDL