MODEL 3
REMARK VINA RESULT: -7.412465077      2.222      7.382
REMARK  13 active torsions:
REMARK  status: ('A' for Active; 'I' for Inactive)
REMARK    1  A    between atoms: C3_3  and  C4_4
REMARK    2  A    between atoms: C4_4  and  C5_5
REMARK    3  A    between atoms: C6_6  and  O1_7
REMARK    4  A    between atoms: O1_7  and  C7_8
REMARK    5  A    between atoms: C7_8  and  C8_9
REMARK    6  A    between atoms: C8_9  and  C9_10
REMARK    7  A    between atoms: C9_10  and  C10_11
REMARK    8  A    between atoms: C10_11  and  N1_12
REMARK    9  A    between atoms: N1_12  and  C13_15
REMARK   10  A    between atoms: C15_17  and  C16_18
REMARK   11  A    between atoms: C16_18  and  C17_19
REMARK   12  A    between atoms: C17_19  and  N2_20
REMARK   13  A    between atoms: C26_32  and  N5_34
ROOT
HETATM    1  C1  UNL     1      11.718 -16.724  20.309  1.00  0.00     0.112 C
HETATM    2  C2  UNL     1      12.505 -15.625  20.817  1.00  0.00    -0.106 C
HETATM    3  C3  UNL     1      13.163 -14.716  21.210  1.00  0.00    -0.078 C
ENDROOT
BRANCH   3   4
HETATM    4  C4  UNL     1      13.994 -13.713  21.711  1.00  0.00     0.081 C
BRANCH   4   5
HETATM    5  C5  UNL     1      14.979 -12.968  21.420  1.00  0.00     0.036 A
HETATM    6  C6  UNL     1      16.266 -13.586  21.469  1.00  0.00     0.093 A
HETATM    7  C15 UNL     1      17.410 -12.915  21.135  1.00  0.00     0.046 A
HETATM    8  C24 UNL     1      17.324 -11.599  20.727  1.00  0.00     0.255 A
HETATM    9  O2  UNL     1      18.387 -10.981  20.405  1.00  0.00    -0.268 OA
HETATM   10  N3  UNL     1      16.132 -11.029  20.684  1.00  0.00    -0.319 N
HETATM   11  C25 UNL     1      14.943 -11.672  21.026  1.00  0.00     0.090 A
ATOM     12  H3  UNL     1      16.078 -10.057  20.380  1.00  0.00     0.169 HD
HETATM   13  C26 UNL     1      13.971 -10.794  21.248  1.00  0.00     0.146 C
HETATM   14  N4  UNL     1      14.095  -9.516  20.728  1.00  0.00    -0.080 NA
BRANCH   6  15
HETATM   15  O1  UNL     1      16.461 -14.920  21.836  1.00  0.00    -0.349 OA
BRANCH  15  16
HETATM   16  C7  UNL     1      16.565 -15.995  20.954  1.00  0.00     0.176 C
BRANCH  16  17
HETATM   17  C8  UNL     1      16.025 -17.305  21.396  1.00  0.00     0.028 C
BRANCH  17  18
HETATM   18  C9  UNL     1      15.430 -17.210  22.816  1.00  0.00     0.030 C
BRANCH  18  19
HETATM   19  C10 UNL     1      16.373 -17.911  23.739  1.00  0.00     0.236 C
BRANCH  19  20
HETATM   20  N1  UNL     1      15.916 -19.194  24.182  1.00  0.00    -0.075 N
HETATM   21  C11 UNL     1      16.194 -19.326  25.599  1.00  0.00     0.272 C
HETATM   22  C12 UNL     1      14.519 -19.417  24.013  1.00  0.00     0.272 C
BRANCH  20  23
HETATM   23  C13 UNL     1      16.741 -20.213  23.531  1.00  0.00     0.232 C
HETATM   24  C14 UNL     1      18.189 -19.862  23.455  1.00  0.00     0.034 C
ENDBRANCH  20  23
ENDBRANCH  19  20
ENDBRANCH  18  19
ENDBRANCH  17  18
ENDBRANCH  16  17
ENDBRANCH  15  16
ENDBRANCH   6  15
BRANCH   7  25
HETATM   25  C16 UNL     1      18.770 -13.477  21.300  1.00  0.00     0.067 C
BRANCH  25  26
HETATM   26  C17 UNL     1      19.191 -13.102  22.714  1.00  0.00     0.132 C
BRANCH  26  27
HETATM   27  N2  UNL     1      19.222 -14.231  23.617  1.00  0.00    -0.366 N
HETATM   28  C18 UNL     1      19.735 -15.379  23.206  1.00  0.00     0.091 A
HETATM   29  C19 UNL     1      19.819 -16.483  24.065  1.00  0.00     0.024 A
HETATM   30  C20 UNL     1      19.374 -16.418  25.355  1.00  0.00    -0.059 A
HETATM   31  C21 UNL     1      19.449 -17.580  26.288  1.00  0.00     0.048 C
HETATM   32  C22 UNL     1      18.840 -15.195  25.766  1.00  0.00     0.024 A
HETATM   33  C23 UNL     1      18.775 -14.133  24.891  1.00  0.00     0.091 A
ENDBRANCH  26  27
ENDBRANCH  25  26
ENDBRANCH   7  25
BRANCH  13  34
HETATM   34  N5  UNL     1      12.945 -10.970  22.193  1.00  0.00    -0.320 N
HETATM   35  C27 UNL     1      12.435 -10.099  22.971  1.00  0.00     0.202 C
HETATM   36  N6  UNL     1      11.404 -10.518  23.849  1.00  0.00    -0.066 NA
HETATM   37  N7  UNL     1      12.855  -8.766  22.970  1.00  0.00    -0.066 NA
ATOM     38  H5  UNL     1      12.561 -11.913  22.265  1.00  0.00     0.169 HD
ENDBRANCH  13  34
ENDBRANCH   4   5
ENDBRANCH   3   4
TORSDOF 13
ENDMDL