MODEL 3
REMARK VINA RESULT: -7.500818818      2.304      5.154
REMARK  15 active torsions:
REMARK  status: ('A' for Active; 'I' for Inactive)
REMARK    1  A    between atoms: C5_6  and  C6_7
REMARK    2  A    between atoms: C7_8  and  C8_9
REMARK    3  A    between atoms: C8_9  and  C10_11
REMARK    4  A    between atoms: C8_9  and  C14_24
REMARK    5  A    between atoms: C11_12  and  C12_13
REMARK    6  A    between atoms: C12_13  and  C13_14
REMARK    7  A    between atoms: C13_14  and  N2_15
REMARK    8  A    between atoms: N2_15  and  O1_17
REMARK    9  A    between atoms: N3_19  and  N4_21
REMARK   10  A    between atoms: C14_24  and  C15_25
REMARK   11  A    between atoms: C15_25  and  C16_26
REMARK   12  A    between atoms: C16_26  and  N5_27
REMARK       I    between atoms: N5_27  and  C17_29
REMARK       I    between atoms: N7_31  and  C18_33
REMARK   13  A    between atoms: N9_35  and  C19_37
REMARK   14  A    between atoms: C19_37  and  C20_38
REMARK   15  A    between atoms: C20_38  and  N10_39
ROOT
HETATM    1  C8  UNL     1      13.537 -14.703  20.982  1.00  0.00    -0.009 C
HETATM    2  C9  UNL     1      12.442 -15.657  20.699  1.00  0.00     0.024 C
ENDROOT
BRANCH   1   3
HETATM    3  C7  UNL     1      14.293 -14.184  19.820  1.00  0.00    -0.013 C
HETATM    4  C6  UNL     1      15.393 -13.612  19.564  1.00  0.00     0.010 C
BRANCH   4   5
HETATM    5  C5  UNL     1      16.583 -13.103  20.147  1.00  0.00    -0.021 A
HETATM    6  C4  UNL     1      16.865 -11.793  20.324  1.00  0.00     0.014 A
HETATM    7  C3  UNL     1      18.111 -11.377  20.835  1.00  0.00     0.018 A
HETATM    8  C2  UNL     1      19.024 -12.324  21.147  1.00  0.00     0.090 A
HETATM    9  N1  UNL     1      18.794 -13.634  20.992  1.00  0.00    -0.370 N
HETATM   10  C1  UNL     1      19.827 -14.610  21.335  1.00  0.00     0.154 C
HETATM   11  C24 UNL     1      17.604 -13.996  20.506  1.00  0.00     0.101 A
ENDBRANCH   4   5
ENDBRANCH   1   3
BRANCH   1  12
HETATM   12  C10 UNL     1      13.097 -13.570  21.868  1.00  0.00    -0.011 C
HETATM   13  C11 UNL     1      12.542 -12.472  21.487  1.00  0.00     0.029 C
BRANCH  13  14
HETATM   14  C12 UNL     1      12.109 -11.355  22.371  1.00  0.00     0.064 C
HETATM   15  N3  UNL     1      11.334 -11.692  23.282  1.00  0.00    -0.306 N
ATOM     16  H3  UNL     1      11.233 -12.695  23.127  1.00  0.00     0.186 HD
BRANCH  14  17
HETATM   17  C13 UNL     1      12.602 -10.073  22.093  1.00  0.00     0.144 C
BRANCH  17  18
HETATM   18  N2  UNL     1      12.828  -9.117  22.906  1.00  0.00    -0.278 N
ATOM     19  H2  UNL     1      13.565  -8.449  22.683  1.00  0.00     0.193 HD
BRANCH  18  20
HETATM   20  O1  UNL     1      12.122  -8.956  24.059  1.00  0.00    -0.290 OA
ATOM     21  H1  UNL     1      11.293  -8.493  24.089  1.00  0.00     0.244 HD
ENDBRANCH  18  20
ENDBRANCH  17  18
ENDBRANCH  14  17
BRANCH  15  22
HETATM   22  N4  UNL     1      10.614 -11.499  24.271  1.00  0.00    -0.345 N
ATOM     23  H42 UNL     1      10.813 -12.348  24.801  1.00  0.00     0.176 HD
ATOM     24  H41 UNL     1       9.948 -10.979  24.841  1.00  0.00     0.176 HD
ENDBRANCH  15  22
ENDBRANCH  13  14
ENDBRANCH   1  12
BRANCH   1  25
HETATM   25  C14 UNL     1      14.608 -15.463  21.812  1.00  0.00     0.019 C
BRANCH  25  26
HETATM   26  C15 UNL     1      14.719 -16.912  21.548  1.00  0.00     0.021 C
BRANCH  26  27
HETATM   27  C16 UNL     1      16.122 -17.171  20.974  1.00  0.00     0.122 C
BRANCH  27  28
HETATM   28  N5  UNL     1      16.814 -18.117  21.777  1.00  0.00    -0.364 N
HETATM   29  C17 UNL     1      18.181 -17.977  22.085  1.00  0.00     0.190 C
HETATM   30  N6  UNL     1      19.224 -18.338  21.203  1.00  0.00    -0.063 NA
HETATM   31  N7  UNL     1      18.497 -17.486  23.263  1.00  0.00    -0.305 N
HETATM   32  C18 UNL     1      17.518 -17.108  24.201  1.00  0.00     0.190 C
ATOM     33  H7  UNL     1      19.482 -17.376  23.505  1.00  0.00     0.171 HD
HETATM   34  N8  UNL     1      16.490 -18.023  24.570  1.00  0.00    -0.063 NA
HETATM   35  N9  UNL     1      17.502 -15.964  24.754  1.00  0.00    -0.363 N
ATOM     36  H9  UNL     1      16.758 -15.768  25.423  1.00  0.00     0.162 HD
ATOM     37  H5  UNL     1      16.305 -18.923  22.140  1.00  0.00     0.162 HD
BRANCH  35  38
HETATM   38  C19 UNL     1      18.479 -14.913  24.494  1.00  0.00     0.150 C
BRANCH  38  39
HETATM   39  C20 UNL     1      19.390 -14.812  25.667  1.00  0.00     0.255 C
BRANCH  39  40
HETATM   40  N10 UNL     1      20.576 -14.024  25.474  1.00  0.00    -0.077 N
HETATM   41  C21 UNL     1      21.701 -14.796  25.030  1.00  0.00     0.271 C
HETATM   42  C22 UNL     1      20.373 -12.918  24.584  1.00  0.00     0.271 C
HETATM   43  C23 UNL     1      20.913 -13.462  26.787  1.00  0.00     0.271 C
ENDBRANCH  39  40
ENDBRANCH  38  39
ENDBRANCH  35  38
ENDBRANCH  27  28
ENDBRANCH  26  27
ENDBRANCH  25  26
ENDBRANCH   1  25
TORSDOF 15
ENDMDL