MODEL 5
REMARK VINA RESULT: -8.500542334      4.328     11.333
REMARK  13 active torsions:
REMARK  status: ('A' for Active; 'I' for Inactive)
REMARK    1  A    between atoms: C1_4  and  C2_6
REMARK    2  A    between atoms: N3_9  and  C5_10
REMARK    3  A    between atoms: C5_10  and  C6_11
REMARK    4  A    between atoms: C6_11  and  C7_12
REMARK    5  A    between atoms: C7_12  and  C8_13
REMARK    6  A    between atoms: N4_16  and  N5_17
REMARK    7  A    between atoms: C11_19  and  C12_20
REMARK    8  A    between atoms: C15_23  and  C16_24
REMARK    9  A    between atoms: C16_24  and  C17_25
REMARK   10  A    between atoms: C17_25  and  C18_26
REMARK   11  A    between atoms: C18_26  and  N6_27
REMARK   12  A    between atoms: C20_31  and  O1_32
REMARK   13  A    between atoms: C22_35  and  O2_36
ROOT
HETATM    1  N5  UNL     1      18.097 -15.532  21.809  1.00  0.00    -0.305 N
ATOM      2  H5  UNL     1      17.132 -15.823  21.964  1.00  0.00     0.186 HD
HETATM    3  C11 UNL     1      18.326 -14.373  21.343  1.00  0.00     0.119 C
ENDROOT
BRANCH   1   4
HETATM    4  N4  UNL     1      19.150 -16.433  22.121  1.00  0.00    -0.279 N
HETATM    5  C10 UNL     1      20.261 -16.476  21.369  1.00  0.00     0.116 A
HETATM    6  C9  UNL     1      21.281 -17.349  21.670  1.00  0.00     0.026 A
HETATM    7  C8  UNL     1      21.221 -18.231  22.764  1.00  0.00    -0.055 A
HETATM    8  C25 UNL     1      20.081 -18.163  23.505  1.00  0.00     0.026 A
HETATM    9  C24 UNL     1      19.063 -17.261  23.169  1.00  0.00     0.116 A
BRANCH   7  10
HETATM   10  C7  UNL     1      22.325 -19.178  23.013  1.00  0.00     0.040 C
BRANCH  10  11
HETATM   11  C6  UNL     1      23.662 -18.598  23.204  1.00  0.00     0.025 C
BRANCH  11  12
HETATM   12  C5  UNL     1      24.063 -17.919  24.442  1.00  0.00     0.128 C
BRANCH  12  13
HETATM   13  N3  UNL     1      23.298 -16.755  24.825  1.00  0.00    -0.366 N
HETATM   14  C4  UNL     1      23.425 -15.628  24.049  1.00  0.00     0.091 A
HETATM   15  C3  UNL     1      22.716 -14.483  24.307  1.00  0.00     0.032 A
HETATM   16  C2  UNL     1      21.831 -14.374  25.353  1.00  0.00     0.007 A
HETATM   17  C27 UNL     1      21.703 -15.518  26.136  1.00  0.00     0.032 A
HETATM   18  C26 UNL     1      22.440 -16.660  25.839  1.00  0.00     0.091 A
BRANCH  16  19
HETATM   19  C1  UNL     1      21.080 -13.172  25.634  1.00  0.00     0.120 C
HETATM   20  N1  UNL     1      20.574 -12.477  24.703  1.00  0.00    -0.387 N
ATOM     21  H12 UNL     1      20.044 -11.628  24.902  1.00  0.00     0.157 HD
ATOM     22  H11 UNL     1      20.697 -12.767  23.733  1.00  0.00     0.157 HD
HETATM   23  N2  UNL     1      20.908 -12.769  26.980  1.00  0.00    -0.082 NA
ENDBRANCH  16  19
ENDBRANCH  12  13
ENDBRANCH  11  12
ENDBRANCH  10  11
ENDBRANCH   7  10
ENDBRANCH   1   4
BRANCH   3  24
HETATM   24  C12 UNL     1      17.240 -13.466  21.030  1.00  0.00    -0.017 A
HETATM   25  C13 UNL     1      16.082 -13.395  21.750  1.00  0.00     0.013 A
HETATM   26  C14 UNL     1      15.049 -12.509  21.425  1.00  0.00     0.011 A
HETATM   27  C15 UNL     1      15.190 -11.673  20.348  1.00  0.00    -0.025 A
HETATM   28  C22 UNL     1      16.352 -11.713  19.590  1.00  0.00     0.072 A
HETATM   29  C23 UNL     1      17.347 -12.595  19.934  1.00  0.00     0.050 A
BRANCH  27  30
HETATM   30  C16 UNL     1      14.084 -10.741  20.021  1.00  0.00     0.043 C
BRANCH  30  31
HETATM   31  C17 UNL     1      13.956  -9.736  21.145  1.00  0.00     0.025 C
BRANCH  31  32
HETATM   32  C18 UNL     1      12.528  -9.353  21.407  1.00  0.00     0.129 C
BRANCH  32  33
HETATM   33  N6  UNL     1      12.040  -9.806  22.681  1.00  0.00    -0.349 N
HETATM   34  C19 UNL     1      11.821  -9.044  23.761  1.00  0.00     0.184 A
HETATM   35  N7  UNL     1      11.366  -9.794  24.778  1.00  0.00    -0.332 N
HETATM   36  C20 UNL     1      11.290 -11.063  24.344  1.00  0.00     0.156 A
ATOM     37  H7  UNL     1      11.121  -9.460  25.710  1.00  0.00     0.168 HD
HETATM   38  C21 UNL     1      11.715 -11.058  23.030  1.00  0.00     0.147 A
BRANCH  36  39
HETATM   39  O1  UNL     1      10.870 -12.191  25.052  1.00  0.00    -0.345 OA
ATOM     40  H1  UNL     1      10.001 -12.383  25.383  1.00  0.00     0.219 HD
ENDBRANCH  36  39
ENDBRANCH  32  33
ENDBRANCH  31  32
ENDBRANCH  30  31
ENDBRANCH  27  30
BRANCH  28  41
HETATM   41  O2  UNL     1      16.461 -10.851  18.504  1.00  0.00    -0.360 OA
ATOM     42  H2  UNL     1      17.031 -11.100  17.787  1.00  0.00     0.217 HD
ENDBRANCH  28  41
ENDBRANCH   3  24
TORSDOF 13
ENDMDL