MODEL 4
REMARK VINA RESULT: -8.215971222      1.294      1.802
REMARK  15 active torsions:
REMARK  status: ('A' for Active; 'I' for Inactive)
REMARK    1  A    between atoms: C2_2  and  C3_3
REMARK    2  A    between atoms: C3_3  and  C4_4
REMARK    3  A    between atoms: C7_7  and  C8_8
REMARK    4  A    between atoms: C8_8  and  C9_9
REMARK    5  A    between atoms: C10_10  and  C11_11
REMARK    6  A    between atoms: C11_11  and  C12_12
REMARK    7  A    between atoms: C12_12  and  C13_13
REMARK    8  A    between atoms: C13_13  and  C14_14
REMARK    9  A    between atoms: C14_14  and  C15_15
REMARK   10  A    between atoms: C15_15  and  C16_16
REMARK   11  A    between atoms: C16_16  and  C17_17
REMARK   12  A    between atoms: C17_17  and  C18_18
REMARK   13  A    between atoms: C18_18  and  C19_19
REMARK   14  A    between atoms: C19_19  and  N1_20
REMARK   15  A    between atoms: N3_28  and  C23_29
ROOT
HETATM    1  C9  UNL     1      15.003 -16.086  20.346  1.00  0.00     0.067 A
HETATM    2  C10 UNL     1      16.166 -16.253  21.066  1.00  0.00    -0.028 A
HETATM    3  C20 UNL     1      16.197 -17.356  21.931  1.00  0.00     0.028 A
HETATM    4  C21 UNL     1      15.143 -18.229  22.066  1.00  0.00     0.111 A
HETATM    5  N2  UNL     1      14.040 -17.988  21.319  1.00  0.00    -0.299 N
HETATM    6  C22 UNL     1      12.873 -18.852  21.390  1.00  0.00     0.177 C
HETATM    7  N3  UNL     1      13.963 -16.962  20.491  1.00  0.00    -0.236 N
ENDROOT
BRANCH   2   8
HETATM    8  C11 UNL     1      17.346 -15.357  20.962  1.00  0.00     0.041 C
BRANCH   8   9
HETATM    9  C12 UNL     1      17.385 -14.360  22.123  1.00  0.00     0.005 C
BRANCH   9  10
HETATM   10  C13 UNL     1      18.431 -13.307  21.901  1.00  0.00     0.000 C
BRANCH  10  11
HETATM   11  C14 UNL     1      19.827 -13.848  21.962  1.00  0.00     0.000 C
BRANCH  11  12
HETATM   12  C15 UNL     1      20.707 -13.155  22.960  1.00  0.00     0.000 C
BRANCH  12  13
HETATM   13  C16 UNL     1      20.065 -13.100  24.303  1.00  0.00     0.000 C
BRANCH  13  14
HETATM   14  C17 UNL     1      21.016 -12.404  25.268  1.00  0.00     0.002 C
BRANCH  14  15
HETATM   15  C18 UNL     1      20.971 -12.987  26.650  1.00  0.00     0.027 C
BRANCH  15  16
HETATM   16  C19 UNL     1      20.762 -14.494  26.476  1.00  0.00     0.229 C
BRANCH  16  17
HETATM   17  N1  UNL     1      22.078 -15.104  26.456  1.00  0.00    -0.079 N
ATOM     18  H13 UNL     1      22.158 -15.907  27.080  1.00  0.00     0.274 HD
ATOM     19  H12 UNL     1      22.279 -15.595  25.585  1.00  0.00     0.274 HD
ATOM     20  H11 UNL     1      22.750 -14.365  26.664  1.00  0.00     0.274 HD
ENDBRANCH  16  17
ENDBRANCH  15  16
ENDBRANCH  14  15
ENDBRANCH  13  14
ENDBRANCH  12  13
ENDBRANCH  11  12
ENDBRANCH  10  11
ENDBRANCH   9  10
ENDBRANCH   8   9
ENDBRANCH   2   8
BRANCH   1  21
HETATM   21  C8  UNL     1      14.921 -14.961  19.451  1.00  0.00     0.061 C
BRANCH  21  22
HETATM   22  C7  UNL     1      14.650 -13.720  19.886  1.00  0.00     0.037 A
HETATM   23  C6  UNL     1      13.561 -13.448  20.661  1.00  0.00     0.030 A
HETATM   24  C5  UNL     1      13.307 -12.181  21.095  1.00  0.00     0.019 A
HETATM   25  C4  UNL     1      14.163 -11.125  20.753  1.00  0.00     0.028 A
HETATM   26  C27 UNL     1      15.238 -11.428  19.981  1.00  0.00     0.255 A
HETATM   27  N7  UNL     1      15.450 -12.697  19.575  1.00  0.00    -0.323 N
HETATM   28  O2  UNL     1      16.079 -10.544  19.614  1.00  0.00    -0.267 OA
ATOM     29  H7  UNL     1      16.269 -12.886  18.998  1.00  0.00     0.169 HD
BRANCH  25  30
HETATM   30  C3  UNL     1      13.899  -9.904  21.184  1.00  0.00    -0.010 C
BRANCH  30  31
HETATM   31  C2  UNL     1      12.555  -9.412  21.424  1.00  0.00     0.023 C
HETATM   32  C1  UNL     1      12.351  -9.281  22.946  1.00  0.00     0.009 C
ENDBRANCH  30  31
ENDBRANCH  25  30
ENDBRANCH  21  22
ENDBRANCH   1  21
BRANCH   7  33
HETATM   33  C23 UNL     1      12.788 -16.749  19.725  1.00  0.00     0.160 A
HETATM   34  C24 UNL     1      12.373 -16.891  18.475  1.00  0.00     0.127 A
HETATM   35  N4  UNL     1      12.356 -17.180  17.156  1.00  0.00    -0.302 N
HETATM   36  C26 UNL     1      11.104 -16.416  18.760  1.00  0.00     0.142 A
HETATM   37  C25 UNL     1      11.129 -16.891  16.661  1.00  0.00     0.326 A
ATOM     38  H4  UNL     1      13.139 -17.554  16.620  1.00  0.00     0.171 HD
HETATM   39  O1  UNL     1      10.763 -17.043  15.445  1.00  0.00    -0.247 OA
HETATM   40  N5  UNL     1      10.353 -16.420  17.648  1.00  0.00    -0.292 N
ATOM     41  H5  UNL     1       9.381 -16.122  17.569  1.00  0.00     0.172 HD
HETATM   42  N6  UNL     1      11.478 -16.268  19.978  1.00  0.00    -0.323 N
ATOM     43  H6  UNL     1      11.008 -15.929  20.817  1.00  0.00     0.169 HD
ENDBRANCH   7  33
TORSDOF 15
ENDMDL