MODEL 5
REMARK VINA RESULT: -8.139623947      1.061      1.209
REMARK  10 active torsions:
REMARK  status: ('A' for Active; 'I' for Inactive)
REMARK    1  A    between atoms: C2_2  and  N1_3
REMARK    2  A    between atoms: N1_3  and  C3_4
REMARK    3  A    between atoms: N1_3  and  C17_22
REMARK    4  A    between atoms: C3_4  and  C4_5
REMARK    5  A    between atoms: C4_5  and  N2_6
REMARK       I    between atoms: N2_6  and  C5_8
REMARK    6  A    between atoms: C5_8  and  C6_10
REMARK    7  A    between atoms: C6_10  and  C7_11
REMARK    8  A    between atoms: C17_22  and  N4_23
REMARK    9  A    between atoms: C19_25  and  C20_26
REMARK   10  A    between atoms: N5_27  and  N6_29
ROOT
HETATM    1  N1  UNL     1      14.891 -15.093  21.210  1.00  0.00     0.108 N
ENDROOT
BRANCH   1   2
HETATM    2  C2  UNL     1      13.521 -15.383  21.588  1.00  0.00     0.270 C
HETATM    3  C1  UNL     1      12.691 -15.938  20.483  1.00  0.00     0.037 C
ENDBRANCH   1   2
BRANCH   1   4
HETATM    4  C3  UNL     1      15.710 -16.281  21.297  1.00  0.00     0.294 C
BRANCH   4   5
HETATM    5  C4  UNL     1      15.903 -16.836  22.654  1.00  0.00     0.152 C
BRANCH   5   6
HETATM    6  N2  UNL     1      16.890 -16.163  23.448  1.00  0.00    -0.359 N
HETATM    7  C5  UNL     1      17.613 -16.844  24.464  1.00  0.00     0.220 C
HETATM    8  O1  UNL     1      17.357 -18.052  24.642  1.00  0.00    -0.274 OA
ATOM      9  H2  UNL     1      17.077 -15.175  23.279  1.00  0.00     0.162 HD
BRANCH   7  10
HETATM   10  C6  UNL     1      18.631 -16.160  25.281  1.00  0.00     0.143 C
BRANCH  10  11
HETATM   11  C7  UNL     1      19.874 -15.913  24.594  1.00  0.00     0.147 C
HETATM   12  C8  UNL     1      20.640 -17.070  23.963  1.00  0.00     0.043 C
HETATM   13  C9  UNL     1      21.851 -16.268  23.473  1.00  0.00     0.042 C
HETATM   14  C10 UNL     1      21.497 -14.964  24.179  1.00  0.00     0.135 C
HETATM   15  C11 UNL     1      22.370 -13.824  23.979  1.00  0.00     0.048 C
HETATM   16  C12 UNL     1      21.030 -15.392  25.500  1.00  0.00     0.020 C
HETATM   17  N3  UNL     1      20.097 -14.835  23.709  1.00  0.00    -0.055 N
HETATM   18  C13 UNL     1      20.654 -14.368  26.519  1.00  0.00     0.020 C
HETATM   19  C14 UNL     1      21.688 -16.533  26.225  1.00  0.00     0.020 C
HETATM   20  C15 UNL     1      19.508 -13.547  23.988  1.00  0.00     0.274 C
HETATM   21  C16 UNL     1      20.025 -15.016  22.277  1.00  0.00     0.274 C
ENDBRANCH  10  11
ENDBRANCH   7  10
ENDBRANCH   5   6
ENDBRANCH   4   5
ENDBRANCH   1   4
BRANCH   1  22
HETATM   22  C17 UNL     1      15.004 -14.338  20.020  1.00  0.00     0.419 C
BRANCH  22  23
HETATM   23  N4  UNL     1      14.957 -12.890  20.294  1.00  0.00    -0.273 N
HETATM   24  C18 UNL     1      13.906 -12.101  20.127  1.00  0.00     0.126 A
HETATM   25  C19 UNL     1      14.244 -10.787  20.496  1.00  0.00     0.015 A
HETATM   26  C23 UNL     1      15.548 -10.860  20.884  1.00  0.00     0.124 A
HETATM   27  N9  UNL     1      15.949 -12.156  20.748  1.00  0.00    -0.303 N
HETATM   28  C24 UNL     1      17.277 -12.670  21.053  1.00  0.00     0.177 C
BRANCH  25  29
HETATM   29  C20 UNL     1      13.361  -9.648  20.458  1.00  0.00     0.123 C
HETATM   30  N5  UNL     1      12.477  -9.275  21.259  1.00  0.00    -0.289 N
ATOM     31  H5  UNL     1      11.991  -8.419  20.990  1.00  0.00     0.188 HD
BRANCH  30  32
HETATM   32  N6  UNL     1      12.052  -9.829  22.442  1.00  0.00    -0.192 N
HETATM   33  C21 UNL     1      11.981  -9.133  23.600  1.00  0.00     0.228 A
HETATM   34  N7  UNL     1      11.504  -9.954  24.539  1.00  0.00    -0.345 N
HETATM   35  C22 UNL     1      11.275 -11.156  23.981  1.00  0.00     0.200 A
ATOM     36  H7  UNL     1      11.339  -9.710  25.515  1.00  0.00     0.167 HD
HETATM   37  N8  UNL     1      11.620 -11.049  22.691  1.00  0.00    -0.274 N
ATOM     38  H8  UNL     1      11.558 -11.800  22.004  1.00  0.00     0.190 HD
ENDBRANCH  30  32
ENDBRANCH  25  29
ENDBRANCH  22  23
ENDBRANCH   1  22
TORSDOF 10
ENDMDL