MODEL 1
REMARK VINA RESULT: -8.569321727      0.000      0.000
REMARK  11 active torsions:
REMARK  status: ('A' for Active; 'I' for Inactive)
REMARK    1  A    between atoms: C2_2  and  N1_3
REMARK    2  A    between atoms: N2_6  and  C5_7
REMARK    3  A    between atoms: C5_7  and  C6_8
REMARK    4  A    between atoms: C6_8  and  C7_9
REMARK    5  A    between atoms: C7_9  and  C8_10
REMARK    6  A    between atoms: C8_10  and  N3_11
REMARK    7  A    between atoms: N3_11  and  C9_12
REMARK    8  A    between atoms: C9_12  and  C10_13
REMARK    9  A    between atoms: C10_13  and  C11_14
REMARK   10  A    between atoms: C11_14  and  N4_15
REMARK   11  A    between atoms: N7_23  and  O1_24
ROOT
HETATM    1  N3  UNL     1      13.842 -15.595  20.077  1.00  0.00    -0.039 N
HETATM    2  C16 UNL     1      12.849 -15.697  19.026  1.00  0.00     0.269 C
HETATM    3  C17 UNL     1      12.004 -16.865  19.478  1.00  0.00     0.290 C
HETATM    4  N8  UNL     1      12.946 -17.718  20.132  1.00  0.00     0.038 N
HETATM    5  C18 UNL     1      13.080 -19.047  19.562  1.00  0.00     0.280 C
HETATM    6  C19 UNL     1      11.907 -19.363  20.463  1.00  0.00     0.172 C
HETATM    7  N9  UNL     1      12.466 -18.293  21.289  1.00  0.00    -0.043 NA
HETATM    8  C20 UNL     1      14.208 -17.012  20.213  1.00  0.00     0.496 C
ENDROOT
BRANCH   1   9
HETATM    9  C8  UNL     1      14.957 -14.781  19.714  1.00  0.00     0.239 C
BRANCH   9  10
HETATM   10  C7  UNL     1      14.757 -13.919  18.498  1.00  0.00     0.030 C
BRANCH  10  11
HETATM   11  C6  UNL     1      15.720 -12.727  18.570  1.00  0.00     0.032 C
BRANCH  11  12
HETATM   12  C5  UNL     1      16.883 -13.055  19.492  1.00  0.00     0.272 C
BRANCH  12  13
HETATM   13  N2  UNL     1      17.230 -11.956  20.358  1.00  0.00     0.090 N
HETATM   14  C4  UNL     1      16.957 -12.225  21.744  1.00  0.00     0.292 C
HETATM   15  C3  UNL     1      17.308 -13.620  22.188  1.00  0.00     0.156 C
HETATM   16  N1  UNL     1      18.722 -13.814  22.319  1.00  0.00    -0.351 N
HETATM   17  C23 UNL     1      19.740 -13.157  21.555  1.00  0.00     0.221 C
HETATM   18  C22 UNL     1      19.663 -12.447  20.284  1.00  0.00     0.133 C
HETATM   19  O2  UNL     1      20.917 -13.194  22.062  1.00  0.00    -0.273 OA
HETATM   20  C21 UNL     1      18.561 -11.462  20.135  1.00  0.00     0.281 C
BRANCH  16  21
HETATM   21  C2  UNL     1      19.193 -14.761  23.322  1.00  0.00     0.121 C
HETATM   22  C1  UNL     1      18.963 -14.218  24.720  1.00  0.00     0.026 C
ENDBRANCH  16  21
ENDBRANCH  12  13
ENDBRANCH  11  12
ENDBRANCH  10  11
ENDBRANCH   9  10
ENDBRANCH   1   9
BRANCH   1  23
HETATM   23  C9  UNL     1      13.288 -15.194  21.334  1.00  0.00     0.241 C
BRANCH  23  24
HETATM   24  C10 UNL     1      13.594 -13.797  21.729  1.00  0.00     0.048 C
BRANCH  24  25
HETATM   25  C11 UNL     1      12.545 -12.813  21.265  1.00  0.00     0.133 C
BRANCH  25  26
HETATM   26  N4  UNL     1      12.823 -11.446  21.605  1.00  0.00    -0.324 N
HETATM   27  C12 UNL     1      13.718 -10.649  20.954  1.00  0.00     0.186 A
HETATM   28  N5  UNL     1      13.757  -9.446  21.530  1.00  0.00    -0.335 N
HETATM   29  C13 UNL     1      12.902  -9.429  22.554  1.00  0.00     0.154 A
ATOM     30  H5  UNL     1      14.346  -8.666  21.236  1.00  0.00     0.168 HD
HETATM   31  N6  UNL     1      12.411  -8.653  23.532  1.00  0.00    -0.333 N
HETATM   32  C15 UNL     1      12.316 -10.699  22.594  1.00  0.00     0.181 A
HETATM   33  C14 UNL     1      11.520  -9.400  24.197  1.00  0.00     0.217 A
ATOM     34  H6  UNL     1      12.666  -7.686  23.730  1.00  0.00     0.168 HD
HETATM   35  N7  UNL     1      11.458 -10.640  23.632  1.00  0.00    -0.200 N
BRANCH  35  36
HETATM   36  O1  UNL     1      10.653 -11.678  24.027  1.00  0.00    -0.280 OA
ATOM     37  H1  UNL     1      10.781 -12.599  23.833  1.00  0.00     0.245 HD
ENDBRANCH  35  36
ENDBRANCH  25  26
ENDBRANCH  24  25
ENDBRANCH  23  24
ENDBRANCH   1  23
TORSDOF 11
ENDMDL