MODEL 4
REMARK VINA RESULT: -8.287951664      2.488      3.499
REMARK  12 active torsions:
REMARK  status: ('A' for Active; 'I' for Inactive)
REMARK    1  A    between atoms: C2_5  and  N3_6
REMARK    2  A    between atoms: C3_11  and  C4_12
REMARK    3  A    between atoms: N5_15  and  C7_16
REMARK    4  A    between atoms: C7_16  and  C8_17
REMARK    5  A    between atoms: C8_17  and  C9_18
REMARK    6  A    between atoms: N6_21  and  C12_22
REMARK    7  A    between atoms: C12_22  and  C13_23
REMARK    8  A    between atoms: C13_23  and  N7_24
REMARK    9  A    between atoms: C16_27  and  C17_28
REMARK   10  A    between atoms: C17_28  and  N8_29
REMARK   11  A    between atoms: C23_38  and  C24_39
REMARK   12  A    between atoms: C24_39  and  C25_40
ROOT
HETATM    1  C4  UNL     1      22.030 -16.119  25.505  1.00  0.00     0.019 A
HETATM    2  C5  UNL     1      21.200 -15.200  26.156  1.00  0.00     0.033 A
HETATM    3  C6  UNL     1      20.520 -14.210  25.470  1.00  0.00     0.091 A
HETATM    4  N5  UNL     1      20.617 -14.078  24.144  1.00  0.00    -0.366 N
HETATM    5  C22 UNL     1      21.396 -14.937  23.502  1.00  0.00     0.099 A
HETATM    6  C23 UNL     1      22.118 -15.968  24.139  1.00  0.00    -0.019 A
ENDROOT
BRANCH   4   7
HETATM    7  C7  UNL     1      19.908 -13.042  23.427  1.00  0.00     0.132 C
BRANCH   7   8
HETATM    8  C8  UNL     1      20.136 -13.241  21.935  1.00  0.00     0.058 C
BRANCH   8   9
HETATM    9  C9  UNL     1      18.861 -13.077  21.188  1.00  0.00    -0.054 A
HETATM   10  C10 UNL     1      17.880 -14.035  21.314  1.00  0.00     0.024 A
HETATM   11  C11 UNL     1      16.691 -13.900  20.631  1.00  0.00     0.091 A
HETATM   12  N6  UNL     1      16.421 -12.855  19.822  1.00  0.00    -0.365 N
HETATM   13  C20 UNL     1      17.379 -11.921  19.700  1.00  0.00     0.091 A
HETATM   14  C21 UNL     1      18.598 -12.004  20.364  1.00  0.00     0.024 A
BRANCH  12  15
HETATM   15  C12 UNL     1      15.194 -12.704  19.107  1.00  0.00     0.148 C
BRANCH  15  16
HETATM   16  C13 UNL     1      14.585 -11.345  19.130  1.00  0.00     0.148 C
BRANCH  16  17
HETATM   17  N7  UNL     1      13.835 -11.055  20.333  1.00  0.00    -0.365 N
HETATM   18  C14 UNL     1      13.088 -12.030  20.909  1.00  0.00     0.091 A
HETATM   19  C15 UNL     1      12.351 -11.826  22.056  1.00  0.00     0.026 A
HETATM   20  C16 UNL     1      12.356 -10.584  22.665  1.00  0.00    -0.030 A
HETATM   21  C18 UNL     1      13.108  -9.594  22.090  1.00  0.00     0.026 A
HETATM   22  C19 UNL     1      13.837  -9.857  20.928  1.00  0.00     0.091 A
BRANCH  20  23
HETATM   23  C17 UNL     1      11.552 -10.404  23.894  1.00  0.00     0.268 C
BRANCH  23  24
HETATM   24  N8  UNL     1      10.767 -11.605  24.157  1.00  0.00    -0.075 N
ATOM     25  H83 UNL     1      10.060 -11.764  23.440  1.00  0.00     0.274 HD
ATOM     26  H82 UNL     1      11.313 -12.456  24.020  1.00  0.00     0.274 HD
ATOM     27  H81 UNL     1      10.360 -11.559  25.091  1.00  0.00     0.274 HD
ENDBRANCH  23  24
ENDBRANCH  20  23
ENDBRANCH  16  17
ENDBRANCH  15  16
ENDBRANCH  12  15
ENDBRANCH   8   9
ENDBRANCH   7   8
ENDBRANCH   4   7
BRANCH   6  28
HETATM   28  C24 UNL     1      22.967 -16.863  23.316  1.00  0.00     0.154 C
BRANCH  28  29
HETATM   29  C25 UNL     1      24.374 -16.392  23.357  1.00  0.00     0.177 C
HETATM   30  O1  UNL     1      24.723 -15.341  22.793  1.00  0.00    -0.648 OA
HETATM   31  O2  UNL     1      25.282 -17.195  24.060  1.00  0.00    -0.648 OA
ENDBRANCH  28  29
ENDBRANCH   6  28
BRANCH   1  32
HETATM   32  C3  UNL     1      22.812 -17.070  26.292  1.00  0.00     0.148 A
HETATM   33  N1  UNL     1      22.400 -18.314  26.601  1.00  0.00    -0.266 N
HETATM   34  C1  UNL     1      21.206 -19.032  26.248  1.00  0.00     0.180 C
HETATM   35  N2  UNL     1      23.317 -18.884  27.418  1.00  0.00    -0.129 N
HETATM   36  C2  UNL     1      24.306 -18.038  27.641  1.00  0.00     0.692 A
ATOM     37  H2  UNL     1      23.254 -19.826  27.804  1.00  0.00     0.206 HD
HETATM   38  N4  UNL     1      23.984 -16.913  26.937  1.00  0.00    -0.173 N
ATOM     39  H4  UNL     1      24.553 -16.068  26.904  1.00  0.00     0.186 HD
BRANCH  36  40
HETATM   40  N3  UNL     1      25.349 -18.204  28.355  1.00  0.00    -0.233 N
ATOM     41  H32 UNL     1      25.680 -19.089  28.738  1.00  0.00     0.174 HD
ATOM     42  H31 UNL     1      26.025 -17.506  28.665  1.00  0.00     0.174 HD
ENDBRANCH  36  40
ENDBRANCH   1  32
TORSDOF 12
ENDMDL