MODEL 3
REMARK VINA RESULT: -6.748026757      1.220      2.251
REMARK  12 active torsions:
REMARK  status: ('A' for Active; 'I' for Inactive)
REMARK    1  A    between atoms: C3_3  and  C4_4
REMARK    2  A    between atoms: C4_4  and  N1_5
REMARK    3  A    between atoms: N1_5  and  C5_6
REMARK    4  A    between atoms: C5_6  and  C6_7
REMARK    5  A    between atoms: C6_7  and  C7_8
REMARK    6  A    between atoms: C6_7  and  N3_13
REMARK    7  A    between atoms: C7_8  and  N2_9
REMARK       I    between atoms: N3_13  and  C11_15
REMARK    8  A    between atoms: C11_15  and  C12_17
REMARK       I    between atoms: C12_17  and  N4_19
REMARK    9  A    between atoms: C13_20  and  C14_21
REMARK   10  A    between atoms: C14_21  and  N5_22
REMARK   11  A    between atoms: C19_30  and  C20_31
REMARK   12  A    between atoms: C20_31  and  O3_32
ROOT
HETATM    1  C1  UNL     1      23.048 -17.953  21.399  1.00  0.00     0.112 C
HETATM    2  C2  UNL     1      22.046 -17.412  22.323  1.00  0.00    -0.109 C
HETATM    3  C3  UNL     1      21.207 -16.961  23.088  1.00  0.00    -0.079 C
ENDROOT
BRANCH   3   4
HETATM    4  C4  UNL     1      20.198 -16.461  23.992  1.00  0.00     0.337 C
BRANCH   4   5
HETATM    5  N1  UNL     1      19.803 -15.055  23.735  1.00  0.00    -0.029 N
HETATM    6  C21 UNL     1      20.959 -14.144  23.690  1.00  0.00     0.256 C
HETATM    7  C22 UNL     1      20.811 -13.793  25.135  1.00  0.00     0.012 A
HETATM    8  C23 UNL     1      20.968 -12.354  25.495  1.00  0.00     0.019 C
HETATM    9  C24 UNL     1      20.258 -14.693  26.135  1.00  0.00     0.048 A
HETATM   10  C25 UNL     1      19.410 -14.393  24.937  1.00  0.00     0.207 A
BRANCH   5  11
HETATM   11  C5  UNL     1      19.084 -14.985  22.544  1.00  0.00     0.230 C
BRANCH  11  12
HETATM   12  C6  UNL     1      17.636 -15.259  22.412  1.00  0.00     0.062 C
BRANCH  12  13
HETATM   13  C7  UNL     1      17.262 -16.285  21.420  1.00  0.00     0.294 C
BRANCH  13  14
HETATM   14  N2  UNL     1      16.872 -17.582  21.912  1.00  0.00    -0.073 N
HETATM   15  C8  UNL     1      18.046 -18.494  21.818  1.00  0.00     0.272 C
HETATM   16  C9  UNL     1      16.320 -17.626  23.219  1.00  0.00     0.272 C
HETATM   17  C10 UNL     1      15.923 -18.154  20.976  1.00  0.00     0.272 C
ENDBRANCH  13  14
ENDBRANCH  12  13
BRANCH  12  18
HETATM   18  N3  UNL     1      16.835 -14.050  22.412  1.00  0.00    -0.320 N
HETATM   19  C11 UNL     1      16.651 -13.211  21.275  1.00  0.00     0.314 C
HETATM   20  O1  UNL     1      17.216 -13.556  20.226  1.00  0.00    -0.262 OA
ATOM     21  H3  UNL     1      16.374 -13.783  23.281  1.00  0.00     0.169 HD
BRANCH  19  22
HETATM   22  C12 UNL     1      15.846 -12.010  21.324  1.00  0.00     0.314 C
HETATM   23  O2  UNL     1      16.472 -10.887  21.176  1.00  0.00    -0.262 OA
HETATM   24  N4  UNL     1      14.457 -11.919  21.515  1.00  0.00    -0.306 N
HETATM   25  C13 UNL     1      13.513 -13.015  21.699  1.00  0.00     0.141 C
HETATM   26  C19 UNL     1      13.722 -10.658  21.571  1.00  0.00     0.313 C
HETATM   27  C18 UNL     1      12.413 -12.316  22.486  1.00  0.00     0.261 C
HETATM   28  N6  UNL     1      12.386 -10.967  21.950  1.00  0.00    -0.050 N
ATOM     29  H62 UNL     1      11.714 -10.847  21.192  1.00  0.00     0.279 HD
ATOM     30  H61 UNL     1      11.979 -10.286  22.590  1.00  0.00     0.279 HD
BRANCH  25  31
HETATM   31  C14 UNL     1      13.057 -13.474  20.364  1.00  0.00     0.263 C
BRANCH  31  32
HETATM   32  N5  UNL     1      13.199 -14.865  20.095  1.00  0.00    -0.077 N
HETATM   33  C15 UNL     1      13.604 -15.498  21.365  1.00  0.00     0.271 C
HETATM   34  C16 UNL     1      12.002 -15.538  19.684  1.00  0.00     0.271 C
HETATM   35  C17 UNL     1      14.300 -15.105  19.182  1.00  0.00     0.271 C
ENDBRANCH  31  32
ENDBRANCH  25  31
BRANCH  26  36
HETATM   36  C20 UNL     1      13.744  -9.883  20.301  1.00  0.00     0.218 C
BRANCH  36  37
HETATM   37  O3  UNL     1      14.575  -8.751  20.400  1.00  0.00    -0.397 OA
ATOM     38  H3  UNL     1      15.096  -8.631  19.615  1.00  0.00     0.209 HD
ENDBRANCH  36  37
ENDBRANCH  26  36
ENDBRANCH  19  22
ENDBRANCH  12  18
ENDBRANCH  11  12
ENDBRANCH   5  11
ENDBRANCH   4   5
ENDBRANCH   3   4
TORSDOF 12
ENDMDL