MODEL 1
REMARK VINA RESULT: -7.331081819      0.000      0.000
REMARK  12 active torsions:
REMARK  status: ('A' for Active; 'I' for Inactive)
REMARK    1  A    between atoms: C3_3  and  N1_4
REMARK    2  A    between atoms: N1_4  and  C4_5
REMARK    3  A    between atoms: N1_4  and  C5_11
REMARK    4  A    between atoms: N2_6  and  N3_8
REMARK    5  A    between atoms: C5_11  and  C6_12
REMARK    6  A    between atoms: C6_12  and  C7_13
REMARK    7  A    between atoms: C9_17  and  N5_18
REMARK    8  A    between atoms: N5_18  and  N6_19
REMARK    9  A    between atoms: N6_19  and  N7_21
REMARK   10  A    between atoms: N8_24  and  C10_25
REMARK   11  A    between atoms: C10_25  and  C11_26
REMARK   12  A    between atoms: N9_34  and  C19_35
ROOT
HETATM    1  C1  UNL     1      20.167 -11.913  19.737  1.00  0.00     0.014 C
HETATM    2  C2  UNL     1      18.973 -11.908  19.586  1.00  0.00    -0.098 C
HETATM    3  C3  UNL     1      17.516 -11.896  19.373  1.00  0.00     0.216 C
ENDROOT
BRANCH   3   4
HETATM    4  N1  UNL     1      16.818 -12.000  20.628  1.00  0.00    -0.365 N
BRANCH   4   5
HETATM    5  C4  UNL     1      15.732 -11.139  20.890  1.00  0.00     0.195 C
HETATM    6  N2  UNL     1      15.639 -10.018  20.290  1.00  0.00    -0.303 N
ATOM      7  H2  UNL     1      16.365  -9.762  19.621  1.00  0.00     0.187 HD
BRANCH   6   8
HETATM    8  N3  UNL     1      14.576  -9.117  20.511  1.00  0.00    -0.344 N
ATOM      9  H32 UNL     1      14.806  -8.125  20.585  1.00  0.00     0.176 HD
ATOM     10  H31 UNL     1      13.605  -9.417  20.597  1.00  0.00     0.176 HD
ENDBRANCH   6   8
ENDBRANCH   4   5
BRANCH   4  11
HETATM   11  C5  UNL     1      17.277 -13.007  21.575  1.00  0.00     0.130 C
BRANCH  11  12
HETATM   12  C6  UNL     1      17.219 -14.383  20.948  1.00  0.00     0.079 C
BRANCH  12  13
HETATM   13  C7  UNL     1      16.338 -15.309  21.743  1.00  0.00     0.037 A
HETATM   14  C8  UNL     1      14.979 -15.159  21.718  1.00  0.00     0.118 A
HETATM   15  N4  UNL     1      14.485 -16.134  22.442  1.00  0.00    -0.323 N
HETATM   16  C9  UNL     1      15.484 -16.896  22.921  1.00  0.00     0.289 A
ATOM     17  H4  UNL     1      13.492 -16.291  22.616  1.00  0.00     0.169 HD
HETATM   18  N8  UNL     1      16.681 -16.360  22.471  1.00  0.00    -0.286 N
BRANCH  16  19
HETATM   19  N5  UNL     1      15.296 -17.888  23.590  1.00  0.00    -0.272 NA
BRANCH  19  20
HETATM   20  N6  UNL     1      15.146 -18.948  24.284  1.00  0.00    -0.179 N
ATOM     21  H6  UNL     1      14.338 -19.544  24.101  1.00  0.00     0.223 HD
BRANCH  20  22
HETATM   22  N7  UNL     1      15.978 -19.298  25.212  1.00  0.00    -0.320 N
ATOM     23  H72 UNL     1      15.958 -18.775  26.087  1.00  0.00     0.179 HD
ATOM     24  H71 UNL     1      16.638 -20.067  25.097  1.00  0.00     0.179 HD
ENDBRANCH  20  22
ENDBRANCH  19  20
ENDBRANCH  16  19
BRANCH  18  25
HETATM   25  C10 UNL     1      17.936 -16.939  22.756  1.00  0.00     0.087 C
BRANCH  25  26
HETATM   26  C11 UNL     1      18.907 -16.576  23.743  1.00  0.00     0.032 C
HETATM   27  C12 UNL     1      18.413 -16.548  25.211  1.00  0.00     0.019 C
HETATM   28  C13 UNL     1      19.036 -15.264  25.819  1.00  0.00     0.012 C
HETATM   29  C14 UNL     1      19.151 -14.494  24.582  1.00  0.00     0.041 C
HETATM   30  C15 UNL     1      19.890 -13.298  24.386  1.00  0.00    -0.019 C
HETATM   31  C18 UNL     1      19.911 -15.554  23.761  1.00  0.00     0.072 C
HETATM   32  C16 UNL     1      20.410 -13.483  23.001  1.00  0.00    -0.005 C
HETATM   33  C17 UNL     1      20.403 -14.777  22.685  1.00  0.00     0.006 C
HETATM   34  N9  UNL     1      21.058 -16.058  24.562  1.00  0.00    -0.350 N
HETATM   35  C22 UNL     1      20.750 -17.409  24.872  1.00  0.00     0.082 C
HETATM   36  S1  UNL     1      21.226 -18.368  26.096  1.00  0.00    -0.065 SA
HETATM   37  C23 UNL     1      19.818 -17.881  23.816  1.00  0.00     0.059 C
HETATM   38  C24 UNL     1      20.520 -18.139  22.548  1.00  0.00     0.018 C
BRANCH  34  39
HETATM   39  C19 UNL     1      22.239 -15.390  24.972  1.00  0.00     0.218 C
HETATM   40  C20 UNL     1      23.443 -15.696  24.206  1.00  0.00    -0.098 C
HETATM   41  C21 UNL     1      24.450 -15.920  23.570  1.00  0.00     0.014 C
ENDBRANCH  34  39
ENDBRANCH  25  26
ENDBRANCH  18  25
ENDBRANCH  12  13
ENDBRANCH  11  12
ENDBRANCH   4  11
ENDBRANCH   3   4
TORSDOF 12
ENDMDL