MODEL 3
REMARK VINA RESULT: -7.036421915      2.570      5.153
REMARK  12 active torsions:
REMARK  status: ('A' for Active; 'I' for Inactive)
REMARK    1  A    between atoms: C4_4  and  N1_5
REMARK    2  A    between atoms: N1_5  and  C6_7
REMARK    3  A    between atoms: C6_7  and  C7_8
REMARK    4  A    between atoms: C8_9  and  C9_10
REMARK    5  A    between atoms: C9_10  and  N2_11
REMARK    6  A    between atoms: C13_18  and  N4_19
REMARK    7  A    between atoms: C13_18  and  C14_23
REMARK    8  A    between atoms: C17_28  and  C18_29
REMARK    9  A    between atoms: C18_29  and  N6_30
REMARK   10  A    between atoms: N6_30  and  C19_31
REMARK   11  A    between atoms: C21_33  and  C22_34
REMARK   12  A    between atoms: C22_34  and  N7_35
ROOT
HETATM    1  C1  UNL     1      19.272 -15.362  26.549  1.00  0.00     0.102 C
HETATM    2  C2  UNL     1      19.106 -16.505  26.152  1.00  0.00    -0.159 C
HETATM    3  C3  UNL     1      18.923 -17.835  25.666  1.00  0.00     0.062 C
HETATM    4  C4  UNL     1      17.724 -18.288  25.370  1.00  0.00     0.068 C
ENDROOT
BRANCH   4   5
HETATM    5  N1  UNL     1      17.585 -19.610  24.892  1.00  0.00    -0.285 NA
HETATM    6  C5  UNL     1      18.878 -20.251  24.743  1.00  0.00     0.117 C
BRANCH   5   7
HETATM    7  C6  UNL     1      16.790 -19.679  23.710  1.00  0.00     0.188 C
BRANCH   7   8
HETATM    8  C7  UNL     1      16.977 -18.539  22.798  1.00  0.00    -0.090 C
HETATM    9  C8  UNL     1      17.103 -17.599  22.064  1.00  0.00    -0.085 C
BRANCH   9  10
HETATM   10  C9  UNL     1      17.222 -16.434  21.179  1.00  0.00     0.222 C
BRANCH  10  11
HETATM   11  N2  UNL     1      16.384 -15.341  21.551  1.00  0.00    -0.316 N
HETATM   12  C10 UNL     1      14.949 -15.299  21.376  1.00  0.00     0.319 C
HETATM   13  O1  UNL     1      14.211 -16.185  20.871  1.00  0.00    -0.247 OA
HETATM   14  N3  UNL     1      14.478 -14.052  21.883  1.00  0.00    -0.336 N
HETATM   15  C11 UNL     1      15.643 -13.167  21.642  1.00  0.00     0.112 C
ATOM     16  H3  UNL     1      13.575 -13.828  22.301  1.00  0.00     0.164 HD
HETATM   17  C12 UNL     1      15.636 -12.965  20.160  1.00  0.00     0.075 C
HETATM   18  C26 UNL     1      16.728 -14.096  22.140  1.00  0.00     0.121 C
HETATM   19  C13 UNL     1      16.397 -11.786  19.662  1.00  0.00     0.203 C
HETATM   20  C15 UNL     1      17.860 -12.072  19.912  1.00  0.00     0.049 C
HETATM   21  C16 UNL     1      18.173 -12.200  21.398  1.00  0.00     0.015 C
HETATM   22  C17 UNL     1      18.125 -13.583  21.890  1.00  0.00     0.049 C
BRANCH  19  23
HETATM   23  N4  UNL     1      15.979 -10.515  20.144  1.00  0.00    -0.062 N
ATOM     24  H43 UNL     1      15.039 -10.587  20.536  1.00  0.00     0.275 HD
ATOM     25  H42 UNL     1      16.510 -10.271  20.980  1.00  0.00     0.275 HD
ATOM     26  H41 UNL     1      16.014  -9.744  19.477  1.00  0.00     0.275 HD
ENDBRANCH  19  23
BRANCH  19  27
HETATM   27  C14 UNL     1      16.236 -11.773  18.169  1.00  0.00     0.267 C
HETATM   28  N5  UNL     1      15.497 -12.806  17.542  1.00  0.00    -0.060 NA
HETATM   29  O2  UNL     1      16.734 -10.875  17.450  1.00  0.00    -0.274 OA
ENDBRANCH  19  27
BRANCH  22  30
HETATM   30  C18 UNL     1      18.886 -13.802  23.153  1.00  0.00     0.069 C
BRANCH  30  31
HETATM   31  N6  UNL     1      20.054 -14.504  23.257  1.00  0.00    -0.372 N
HETATM   32  C21 UNL     1      20.391 -15.735  22.790  1.00  0.00     0.090 C
BRANCH  31  33
HETATM   33  C19 UNL     1      21.150 -13.581  23.530  1.00  0.00     0.122 C
HETATM   34  C20 UNL     1      20.877 -12.661  24.678  1.00  0.00     0.027 C
ENDBRANCH  31  33
BRANCH  32  35
HETATM   35  C22 UNL     1      21.776 -16.241  23.199  1.00  0.00     0.280 C
BRANCH  35  36
HETATM   36  N7  UNL     1      21.919 -17.612  22.789  1.00  0.00    -0.074 N
HETATM   37  C23 UNL     1      22.242 -18.443  23.960  1.00  0.00     0.272 C
HETATM   38  C24 UNL     1      22.994 -17.841  21.848  1.00  0.00     0.272 C
HETATM   39  C25 UNL     1      20.703 -18.110  22.173  1.00  0.00     0.272 C
ENDBRANCH  35  36
ENDBRANCH  32  35
ENDBRANCH  30  31
ENDBRANCH  22  30
ENDBRANCH  10  11
ENDBRANCH   9  10
ENDBRANCH   7   8
ENDBRANCH   5   7
ENDBRANCH   4   5
TORSDOF 12
ENDMDL