MODEL 4
REMARK VINA RESULT: -8.010400204      2.020      3.243
REMARK  10 active torsions:
REMARK  status: ('A' for Active; 'I' for Inactive)
REMARK    1  A    between atoms: C2_2  and  N1_3
REMARK    2  A    between atoms: N3_12  and  C9_13
REMARK    3  A    between atoms: C9_13  and  C10_14
REMARK    4  A    between atoms: C10_14  and  C11_15
REMARK    5  A    between atoms: C11_15  and  C12_16
REMARK    6  A    between atoms: C12_16  and  C13_17
REMARK    7  A    between atoms: C13_17  and  N4_18
REMARK    8  A    between atoms: C14_21  and  C15_22
REMARK    9  A    between atoms: C19_30  and  C20_31
REMARK   10  A    between atoms: C21_32  and  C22_33
ROOT
HETATM    1  N1  UNL     1      18.700 -16.731  25.259  1.00  0.00    -0.322 N
HETATM    2  C3  UNL     1      19.577 -15.972  26.047  1.00  0.00     0.100 A
HETATM    3  C4  UNL     1      20.028 -14.741  25.762  1.00  0.00     0.048 A
HETATM    4  C5  UNL     1      19.618 -14.141  24.614  1.00  0.00     0.044 A
HETATM    5  N2  UNL     1      20.041 -12.955  24.314  1.00  0.00    -0.393 N
ATOM      6  H2  UNL     1      19.746 -12.489  23.457  1.00  0.00     0.159 HD
HETATM    7  C6  UNL     1      20.966 -12.305  25.258  1.00  0.00     0.146 C
HETATM    8  C7  UNL     1      18.756 -14.841  23.803  1.00  0.00     0.051 A
HETATM    9  C8  UNL     1      18.252 -14.228  22.674  1.00  0.00     0.110 A
HETATM   10  N3  UNL     1      17.367 -14.845  21.931  1.00  0.00    -0.342 N
HETATM   11  C19 UNL     1      16.919 -16.100  22.242  1.00  0.00     0.110 A
HETATM   12  N9  UNL     1      17.384 -16.754  23.323  1.00  0.00    -0.322 N
HETATM   13  C23 UNL     1      17.172 -18.142  23.523  1.00  0.00     0.159 C
HETATM   14  C24 UNL     1      18.305 -16.136  24.135  1.00  0.00     0.128 A
ENDROOT
BRANCH  10  15
HETATM   15  C9  UNL     1      16.866 -14.194  20.760  1.00  0.00     0.130 C
BRANCH  15  16
HETATM   16  C10 UNL     1      17.318 -12.735  20.645  1.00  0.00     0.020 C
BRANCH  16  17
HETATM   17  C11 UNL     1      16.527 -12.118  19.509  1.00  0.00     0.003 C
BRANCH  17  18
HETATM   18  C12 UNL     1      15.800 -10.904  19.997  1.00  0.00     0.022 C
BRANCH  18  19
HETATM   19  C13 UNL     1      14.367 -10.881  19.581  1.00  0.00     0.148 C
BRANCH  19  20
HETATM   20  N4  UNL     1      13.501 -11.041  20.758  1.00  0.00    -0.296 N
HETATM   21  N5  UNL     1      13.148 -10.081  21.594  1.00  0.00    -0.295 N
HETATM   22  C14 UNL     1      12.344 -10.534  22.570  1.00  0.00     0.090 A
ATOM     23  H5  UNL     1      13.451  -9.111  21.508  1.00  0.00     0.187 HD
HETATM   24  C16 UNL     1      12.205 -11.898  22.286  1.00  0.00     0.060 A
HETATM   25  C17 UNL     1      12.931 -12.192  21.159  1.00  0.00     0.027 A
HETATM   26  C18 UNL     1      13.073 -13.500  20.495  1.00  0.00     0.070 C
BRANCH  22  27
HETATM   27  C15 UNL     1      11.747  -9.799  23.672  1.00  0.00     0.138 C
HETATM   28  N6  UNL     1      10.913 -10.397  24.436  1.00  0.00    -0.386 N
ATOM     29  H62 UNL     1      10.685 -11.375  24.256  1.00  0.00     0.157 HD
ATOM     30  H61 UNL     1      10.493  -9.881  25.209  1.00  0.00     0.157 HD
HETATM   31  N7  UNL     1      12.062  -8.450  23.920  1.00  0.00    -0.081 NA
ENDBRANCH  22  27
ENDBRANCH  19  20
ENDBRANCH  18  19
ENDBRANCH  17  18
ENDBRANCH  16  17
ENDBRANCH  15  16
ENDBRANCH  10  15
BRANCH  11  32
HETATM   32  C20 UNL     1      15.905 -16.663  21.381  1.00  0.00     0.054 C
HETATM   33  C21 UNL     1      14.623 -16.702  21.628  1.00  0.00     0.074 C
BRANCH  33  34
HETATM   34  C22 UNL     1      13.685 -17.321  20.653  1.00  0.00     0.254 C
HETATM   35  N8  UNL     1      12.725 -18.281  20.998  1.00  0.00    -0.058 NA
HETATM   36  O1  UNL     1      13.780 -16.945  19.467  1.00  0.00    -0.272 OA
ENDBRANCH  33  34
ENDBRANCH  11  32
BRANCH   1  37
HETATM   37  C2  UNL     1      18.368 -18.013  25.711  1.00  0.00     0.067 C
HETATM   38  C1  UNL     1      19.270 -18.702  26.710  1.00  0.00     0.055 C
ENDBRANCH   1  37
TORSDOF 10
ENDMDL