MODEL 5
REMARK VINA RESULT: -8.619989636      1.530      3.376
REMARK  11 active torsions:
REMARK  status: ('A' for Active; 'I' for Inactive)
REMARK    1  A    between atoms: N1_5  and  C5_6
REMARK    2  A    between atoms: C5_6  and  C6_7
REMARK    3  A    between atoms: C6_7  and  C7_8
REMARK    4  A    between atoms: C7_8  and  C8_9
REMARK    5  A    between atoms: N2_12  and  C11_13
REMARK    6  A    between atoms: C11_13  and  C12_14
REMARK    7  A    between atoms: C12_14  and  C13_15
REMARK    8  A    between atoms: C13_15  and  C14_16
REMARK    9  A    between atoms: C14_16  and  C15_17
REMARK   10  A    between atoms: C15_17  and  C16_18
REMARK   11  A    between atoms: N6_30  and  N7_31
ROOT
HETATM    1  C14 UNL     1      13.098 -15.366  21.200  1.00  0.00     0.008 C
ENDROOT
BRANCH   1   2
HETATM    2  C13 UNL     1      14.269 -16.217  20.829  1.00  0.00     0.002 C
BRANCH   2   3
HETATM    3  C12 UNL     1      15.503 -15.996  21.634  1.00  0.00     0.020 C
BRANCH   3   4
HETATM    4  C11 UNL     1      16.720 -15.717  20.804  1.00  0.00     0.128 C
BRANCH   4   5
HETATM    5  N2  UNL     1      17.788 -15.060  21.482  1.00  0.00    -0.366 N
HETATM    6  C10 UNL     1      18.855 -15.758  21.872  1.00  0.00     0.091 A
HETATM    7  C9  UNL     1      19.920 -15.185  22.530  1.00  0.00     0.024 A
HETATM    8  C8  UNL     1      19.910 -13.853  22.807  1.00  0.00    -0.056 A
HETATM    9  C23 UNL     1      18.789 -13.116  22.398  1.00  0.00     0.024 A
HETATM   10  C22 UNL     1      17.765 -13.750  21.747  1.00  0.00     0.091 A
BRANCH   8  11
HETATM   11  C7  UNL     1      21.024 -13.135  23.494  1.00  0.00     0.040 C
BRANCH  11  12
HETATM   12  C6  UNL     1      20.748 -12.602  24.824  1.00  0.00     0.025 C
BRANCH  12  13
HETATM   13  C5  UNL     1      21.075 -13.306  26.067  1.00  0.00     0.128 C
BRANCH  13  14
HETATM   14  N1  UNL     1      20.766 -14.712  26.063  1.00  0.00    -0.366 N
HETATM   15  C4  UNL     1      19.461 -15.069  26.300  1.00  0.00     0.091 A
HETATM   16  C3  UNL     1      19.042 -16.375  26.356  1.00  0.00     0.024 A
HETATM   17  C2  UNL     1      19.930 -17.411  26.176  1.00  0.00    -0.059 A
HETATM   18  C1  UNL     1      19.485 -18.826  26.235  1.00  0.00     0.048 C
HETATM   19  C25 UNL     1      21.242 -17.065  25.939  1.00  0.00     0.024 A
HETATM   20  C24 UNL     1      21.615 -15.721  25.891  1.00  0.00     0.091 A
ENDBRANCH  13  14
ENDBRANCH  12  13
ENDBRANCH  11  12
ENDBRANCH   8  11
ENDBRANCH   4   5
ENDBRANCH   3   4
ENDBRANCH   2   3
ENDBRANCH   1   2
BRANCH   1  21
HETATM   21  C15 UNL     1      12.700 -14.417  20.116  1.00  0.00     0.079 C
BRANCH  21  22
HETATM   22  C16 UNL     1      13.427 -13.130  20.184  1.00  0.00     0.124 A
HETATM   23  N3  UNL     1      13.162 -12.129  21.042  1.00  0.00    -0.128 N
HETATM   24  C17 UNL     1      12.188 -12.121  21.989  1.00  0.00     0.211 C
HETATM   25  C20 UNL     1      14.096 -11.062  20.777  1.00  0.00     0.730 A
HETATM   26  N4  UNL     1      11.674 -11.091  22.682  1.00  0.00    -0.314 N
HETATM   27  C18 UNL     1      12.220  -9.849  22.831  1.00  0.00     0.315 C
ATOM     28  H4  UNL     1      10.781 -11.254  23.147  1.00  0.00     0.170 HD
HETATM   29  O1  UNL     1      11.535  -9.101  23.593  1.00  0.00    -0.262 OA
HETATM   30  C19 UNL     1      13.363  -9.315  22.294  1.00  0.00     0.328 C
HETATM   31  O2  UNL     1      13.657  -8.170  22.694  1.00  0.00    -0.261 OA
HETATM   32  N5  UNL     1      14.196  -9.861  21.403  1.00  0.00    -0.148 N
ATOM     33  H5  UNL     1      15.013  -9.302  21.159  1.00  0.00     0.188 HD
HETATM   34  N6  UNL     1      14.856 -11.510  19.772  1.00  0.00    -0.023 N
HETATM   35  N8  UNL     1      14.446 -12.738  19.431  1.00  0.00    -0.248 N
HETATM   36  C21 UNL     1      15.050 -13.512  18.381  1.00  0.00     0.182 C
BRANCH  34  37
HETATM   37  N7  UNL     1      15.905 -10.792  19.187  1.00  0.00    -0.309 N
ATOM     38  H72 UNL     1      16.777 -10.517  19.638  1.00  0.00     0.179 HD
ATOM     39  H71 UNL     1      15.912 -10.457  18.223  1.00  0.00     0.179 HD
ENDBRANCH  34  37
ENDBRANCH  21  22
ENDBRANCH   1  21
TORSDOF 11
ENDMDL