MODEL 4
REMARK VINA RESULT: -7.257937655      2.712      7.780
REMARK  13 active torsions:
REMARK  status: ('A' for Active; 'I' for Inactive)
REMARK    1  A    between atoms: C4_5  and  C5_6
REMARK    2  A    between atoms: C5_6  and  C6_7
REMARK    3  A    between atoms: C6_7  and  C7_8
REMARK    4  A    between atoms: C7_8  and  N2_9
REMARK    5  A    between atoms: C10_12  and  C11_13
REMARK    6  A    between atoms: C11_13  and  C12_14
REMARK    7  A    between atoms: C12_14  and  C13_15
REMARK    8  A    between atoms: C13_15  and  N3_16
REMARK    9  A    between atoms: N6_23  and  C17_24
REMARK   10  A    between atoms: C17_24  and  C18_25
REMARK   11  A    between atoms: C18_25  and  C19_26
REMARK   12  A    between atoms: C20_27  and  C21_28
REMARK   13  A    between atoms: N7_32  and  N8_34
ROOT
HETATM    1  C1  UNL     1      19.929 -15.053  26.317  1.00  0.00     0.158 C
HETATM    2  N1  UNL     1      19.886 -14.710  24.895  1.00  0.00    -0.339 N
HETATM    3  C2  UNL     1      19.687 -13.425  24.553  1.00  0.00     0.094 A
HETATM    4  C3  UNL     1      19.655 -13.150  23.207  1.00  0.00     0.042 A
HETATM    5  C4  UNL     1      19.823 -14.166  22.254  1.00  0.00     0.015 A
HETATM    6  N6  UNL     1      20.018 -15.427  22.651  1.00  0.00    -0.322 N
HETATM    7  C25 UNL     1      20.048 -15.688  23.991  1.00  0.00     0.193 A
HETATM    8  C26 UNL     1      20.233 -17.039  24.496  1.00  0.00     0.137 C
HETATM    9  N9  UNL     1      20.382 -18.126  24.879  1.00  0.00    -0.188 NA
ENDROOT
BRANCH   6  10
HETATM   10  C17 UNL     1      20.185 -16.511  21.745  1.00  0.00     0.199 C
BRANCH  10  11
HETATM   11  C18 UNL     1      19.007 -17.371  21.537  1.00  0.00     0.096 C
HETATM   12  N7  UNL     1      19.148 -18.652  21.615  1.00  0.00    -0.301 N
ATOM     13  H7  UNL     1      18.324 -19.237  21.469  1.00  0.00     0.186 HD
BRANCH  11  14
HETATM   14  C19 UNL     1      17.701 -16.871  21.223  1.00  0.00    -0.049 C
HETATM   15  C20 UNL     1      16.573 -16.471  20.951  1.00  0.00    -0.091 C
BRANCH  15  16
HETATM   16  C21 UNL     1      15.235 -15.987  20.602  1.00  0.00     0.013 C
HETATM   17  C22 UNL     1      14.251 -17.145  20.473  1.00  0.00     0.028 C
HETATM   18  C23 UNL     1      14.711 -15.040  21.661  1.00  0.00     0.028 C
HETATM   19  C24 UNL     1      15.324 -15.297  19.252  1.00  0.00     0.028 C
ENDBRANCH  15  16
ENDBRANCH  11  14
BRANCH  12  20
HETATM   20  N8  UNL     1      20.367 -19.285  21.888  1.00  0.00    -0.344 N
ATOM     21  H82 UNL     1      21.195 -18.692  21.944  1.00  0.00     0.176 HD
ATOM     22  H81 UNL     1      20.464 -20.290  22.030  1.00  0.00     0.176 HD
ENDBRANCH  12  20
ENDBRANCH  10  11
ENDBRANCH   6  10
BRANCH   5  23
HETATM   23  C5  UNL     1      19.770 -13.770  20.833  1.00  0.00     0.059 C
BRANCH  23  24
HETATM   24  C6  UNL     1      19.974 -12.285  20.617  1.00  0.00     0.026 C
BRANCH  24  25
HETATM   25  C7  UNL     1      19.257 -11.896  19.333  1.00  0.00     0.128 C
BRANCH  25  26
HETATM   26  N2  UNL     1      17.829 -11.787  19.589  1.00  0.00    -0.366 N
HETATM   27  C8  UNL     1      17.377 -11.646  20.846  1.00  0.00     0.091 A
HETATM   28  C9  UNL     1      16.019 -11.538  21.127  1.00  0.00     0.024 A
HETATM   29  C10 UNL     1      15.084 -11.574  20.115  1.00  0.00    -0.056 A
HETATM   30  C15 UNL     1      15.568 -11.722  18.811  1.00  0.00     0.024 A
HETATM   31  C16 UNL     1      16.926 -11.824  18.582  1.00  0.00     0.091 A
BRANCH  29  32
HETATM   32  C11 UNL     1      13.636 -11.466  20.347  1.00  0.00     0.040 C
BRANCH  32  33
HETATM   33  C12 UNL     1      13.305 -11.715  21.785  1.00  0.00     0.024 C
BRANCH  33  34
HETATM   34  C13 UNL     1      11.912 -11.323  22.158  1.00  0.00     0.122 C
BRANCH  34  35
HETATM   35  N3  UNL     1      11.958  -9.928  22.630  1.00  0.00    -0.367 N
HETATM   36  C14 UNL     1      11.667  -9.687  23.847  1.00  0.00     0.196 C
HETATM   37  N4  UNL     1      11.714  -8.328  24.294  1.00  0.00    -0.067 NA
HETATM   38  N5  UNL     1      11.308 -10.729  24.732  1.00  0.00    -0.067 NA
ATOM     39  H3  UNL     1      12.216  -9.171  21.997  1.00  0.00     0.161 HD
ENDBRANCH  34  35
ENDBRANCH  33  34
ENDBRANCH  32  33
ENDBRANCH  29  32
ENDBRANCH  25  26
ENDBRANCH  24  25
ENDBRANCH  23  24
ENDBRANCH   5  23
TORSDOF 13
ENDMDL