MODEL 1
REMARK VINA RESULT: -7.822077884      0.000      0.000
REMARK  13 active torsions:
REMARK  status: ('A' for Active; 'I' for Inactive)
REMARK    1  A    between atoms: N1_2  and  C2_4
REMARK    2  A    between atoms: N4_8  and  C3_9
REMARK    3  A    between atoms: C3_9  and  C4_10
REMARK    4  A    between atoms: C7_13  and  C8_14
REMARK    5  A    between atoms: C8_14  and  N5_15
REMARK    6  A    between atoms: C11_18  and  O1_19
REMARK    7  A    between atoms: C16_25  and  C17_26
REMARK    8  A    between atoms: C17_26  and  N6_27
REMARK    9  A    between atoms: N6_27  and  C20_30
REMARK   10  A    between atoms: C20_30  and  C21_31
REMARK   11  A    between atoms: C21_31  and  O2_32
REMARK   12  A    between atoms: C21_31  and  C22_34
REMARK   13  A    between atoms: C22_34  and  S1_35
ROOT
HETATM    1  C2  UNL     1      20.842 -14.132  24.321  1.00  0.00     0.140 A
HETATM    2  N2  UNL     1      21.526 -13.422  23.432  1.00  0.00    -0.268 N
ATOM      3  H2  UNL     1      22.427 -12.975  23.599  1.00  0.00     0.186 HD
HETATM    4  N3  UNL     1      20.852 -13.388  22.294  1.00  0.00    -0.018 NA
HETATM    5  N4  UNL     1      19.713 -14.097  22.467  1.00  0.00    -0.270 N
HETATM    6  C16 UNL     1      19.651 -14.559  23.675  1.00  0.00     0.097 A
ENDROOT
BRANCH   5   7
HETATM    7  C3  UNL     1      18.995 -14.483  21.202  1.00  0.00     0.185 C
BRANCH   7   8
HETATM    8  C4  UNL     1      17.956 -13.327  21.113  1.00  0.00    -0.039 A
HETATM    9  C5  UNL     1      16.861 -13.324  21.929  1.00  0.00     0.009 A
HETATM   10  C6  UNL     1      15.798 -12.420  21.684  1.00  0.00     0.009 A
HETATM   11  C7  UNL     1      15.854 -11.544  20.637  1.00  0.00    -0.040 A
HETATM   12  C14 UNL     1      16.996 -11.563  19.824  1.00  0.00     0.009 A
HETATM   13  C15 UNL     1      18.038 -12.447  20.058  1.00  0.00     0.009 A
BRANCH  11  14
HETATM   14  C8  UNL     1      14.686 -10.701  20.249  1.00  0.00     0.166 C
BRANCH  14  15
HETATM   15  N5  UNL     1      13.700 -10.628  21.289  1.00  0.00    -0.362 N
HETATM   16  C9  UNL     1      12.923 -11.655  21.611  1.00  0.00     0.093 A
HETATM   17  C10 UNL     1      11.956 -11.506  22.579  1.00  0.00     0.053 A
HETATM   18  C11 UNL     1      11.763 -10.316  23.231  1.00  0.00     0.068 A
HETATM   19  C12 UNL     1      12.568  -9.251  22.894  1.00  0.00     0.053 A
HETATM   20  C13 UNL     1      13.524  -9.437  21.925  1.00  0.00     0.093 A
BRANCH  18  21
HETATM   21  O1  UNL     1      10.785 -10.155  24.211  1.00  0.00    -0.361 OA
ATOM     22  H1  UNL     1      10.776  -9.411  24.801  1.00  0.00     0.217 HD
ENDBRANCH  18  21
ENDBRANCH  14  15
ENDBRANCH  11  14
ENDBRANCH   7   8
ENDBRANCH   5   7
BRANCH   6  23
HETATM   23  C17 UNL     1      18.694 -15.412  24.388  1.00  0.00     0.298 C
BRANCH  23  24
HETATM   24  N6  UNL     1      18.601 -16.773  23.983  1.00  0.00    -0.067 N
HETATM   25  C18 UNL     1      18.556 -17.607  25.261  1.00  0.00     0.272 C
HETATM   26  C19 UNL     1      20.039 -17.061  23.594  1.00  0.00     0.272 C
BRANCH  24  27
HETATM   27  C20 UNL     1      17.693 -17.339  23.140  1.00  0.00     0.269 C
BRANCH  27  28
HETATM   28  C21 UNL     1      16.440 -16.703  22.698  1.00  0.00     0.155 C
BRANCH  28  29
HETATM   29  O2  UNL     1      15.464 -17.054  23.693  1.00  0.00    -0.393 OA
ATOM     30  H2  UNL     1      15.358 -16.274  24.225  1.00  0.00     0.210 HD
ENDBRANCH  28  29
BRANCH  28  31
HETATM   31  C22 UNL     1      15.842 -16.813  21.387  1.00  0.00     0.141 C
BRANCH  31  32
HETATM   32  S1  UNL     1      14.280 -16.089  21.027  1.00  0.00     0.013 S
HETATM   33  C23 UNL     1      14.456 -15.097  19.527  1.00  0.00     0.127 C
HETATM   34  O3  UNL     1      13.635 -15.191  22.259  1.00  0.00    -0.258 OA
ENDBRANCH  31  32
ENDBRANCH  28  31
ENDBRANCH  27  28
ENDBRANCH  24  27
ENDBRANCH  23  24
ENDBRANCH   6  23
BRANCH   1  35
HETATM   35  N1  UNL     1      21.159 -14.376  25.537  1.00  0.00    -0.378 N
HETATM   36  C1  UNL     1      20.905 -13.462  26.618  1.00  0.00     0.147 C
ATOM     37  H1  UNL     1      21.614 -15.264  25.750  1.00  0.00     0.160 HD
ENDBRANCH   1  35
TORSDOF 13
ENDMDL