MODEL 4
REMARK VINA RESULT: -7.095474458      1.759      3.452
REMARK  16 active torsions:
REMARK  status: ('A' for Active; 'I' for Inactive)
REMARK    1  A    between atoms: C4_5  and  C5_6
REMARK    2  A    between atoms: C5_6  and  N2_7
REMARK    3  A    between atoms: N2_7  and  C6_8
REMARK    4  A    between atoms: C6_8  and  C7_9
REMARK    5  A    between atoms: C7_9  and  C8_10
REMARK    6  A    between atoms: C8_10  and  C9_11
REMARK    7  A    between atoms: C9_11  and  N3_12
REMARK       I    between atoms: N3_12  and  C10_14
REMARK    8  A    between atoms: C10_14  and  C11_16
REMARK    9  A    between atoms: C11_16  and  C12_17
REMARK   10  A    between atoms: C11_16  and  C17_24
REMARK   11  A    between atoms: C13_18  and  C14_19
REMARK   12  A    between atoms: C15_20  and  C16_21
REMARK   13  A    between atoms: C16_21  and  O2_22
REMARK   14  A    between atoms: C17_24  and  N4_25
REMARK   15  A    between atoms: C22_32  and  O3_33
REMARK   16  A    between atoms: C23_35  and  O4_36
ROOT
HETATM    1  C9  UNL     1      17.529 -11.992  19.742  1.00  0.00     0.122 C
ENDROOT
BRANCH   1   2
HETATM    2  C8  UNL     1      18.855 -11.793  20.434  1.00  0.00     0.021 C
BRANCH   2   3
HETATM    3  C7  UNL     1      19.540 -13.088  20.761  1.00  0.00     0.030 C
BRANCH   3   4
HETATM    4  C6  UNL     1      19.812 -13.172  22.219  1.00  0.00     0.241 C
BRANCH   4   5
HETATM    5  N2  UNL     1      19.494 -14.515  22.753  1.00  0.00    -0.035 N
HETATM    6  C21 UNL     1      18.987 -14.480  24.085  1.00  0.00     0.276 C
HETATM    7  C22 UNL     1      20.017 -15.492  24.538  1.00  0.00     0.201 C
HETATM    8  C23 UNL     1      20.712 -15.091  23.266  1.00  0.00     0.354 C
BRANCH   5   9
HETATM    9  C5  UNL     1      18.778 -15.248  21.773  1.00  0.00     0.248 C
BRANCH   9  10
HETATM   10  C4  UNL     1      17.460 -15.786  22.175  1.00  0.00     0.064 C
HETATM   11  C3  UNL     1      17.428 -17.305  21.940  1.00  0.00     0.244 C
HETATM   12  N1  UNL     1      16.053 -17.146  21.512  1.00  0.00    -0.074 N
HETATM   13  C1  UNL     1      15.163 -17.183  22.639  1.00  0.00     0.272 C
HETATM   14  C2  UNL     1      15.669 -18.009  20.411  1.00  0.00     0.272 C
HETATM   15  C24 UNL     1      16.385 -15.798  21.103  1.00  0.00     0.244 C
ENDBRANCH   9  10
ENDBRANCH   5   9
BRANCH   7  16
HETATM   16  O3  UNL     1      20.693 -15.116  25.718  1.00  0.00    -0.389 OA
ATOM     17  H3  UNL     1      20.770 -15.820  26.350  1.00  0.00     0.210 HD
ENDBRANCH   7  16
BRANCH   8  18
HETATM   18  O4  UNL     1      21.292 -16.090  22.526  1.00  0.00    -0.367 OA
ATOM     19  H4  UNL     1      21.403 -16.934  22.948  1.00  0.00     0.212 HD
ENDBRANCH   8  18
ENDBRANCH   4   5
ENDBRANCH   3   4
ENDBRANCH   2   3
ENDBRANCH   1   2
BRANCH   1  20
HETATM   20  N3  UNL     1      16.438 -12.218  20.647  1.00  0.00    -0.360 N
HETATM   21  C10 UNL     1      15.174 -11.625  20.448  1.00  0.00     0.235 C
HETATM   22  O1  UNL     1      14.991 -10.880  19.463  1.00  0.00    -0.272 OA
ATOM     23  H3  UNL     1      16.581 -12.823  21.455  1.00  0.00     0.162 HD
BRANCH  21  24
HETATM   24  C11 UNL     1      14.052 -11.868  21.389  1.00  0.00     0.176 C
BRANCH  24  25
HETATM   25  C12 UNL     1      13.485 -13.212  21.162  1.00  0.00    -0.076 C
HETATM   26  C13 UNL     1      13.033 -14.323  20.954  1.00  0.00    -0.014 C
BRANCH  26  27
HETATM   27  C14 UNL     1      12.527 -15.621  20.702  1.00  0.00    -0.013 C
HETATM   28  C15 UNL     1      12.111 -16.743  20.477  1.00  0.00    -0.067 C
BRANCH  28  29
HETATM   29  C16 UNL     1      11.613 -18.094  20.179  1.00  0.00     0.258 C
BRANCH  29  30
HETATM   30  O2  UNL     1      10.834 -18.113  19.023  1.00  0.00    -0.389 OA
ATOM     31  H2  UNL     1      10.012 -18.569  19.161  1.00  0.00     0.210 HD
ENDBRANCH  29  30
ENDBRANCH  28  29
ENDBRANCH  26  27
ENDBRANCH  24  25
BRANCH  24  32
HETATM   32  C17 UNL     1      12.988 -10.839  21.153  1.00  0.00     0.156 C
BRANCH  32  33
HETATM   33  N4  UNL     1      12.265 -10.559  22.375  1.00  0.00    -0.350 N
HETATM   34  C18 UNL     1      12.233  -9.364  23.034  1.00  0.00     0.108 A
HETATM   35  C19 UNL     1      11.438  -9.477  24.151  1.00  0.00     0.106 A
HETATM   36  N5  UNL     1      10.980 -10.738  24.183  1.00  0.00    -0.361 N
HETATM   37  C20 UNL     1      11.487 -11.376  23.107  1.00  0.00     0.182 A
ATOM     38  H5  UNL     1      10.363 -11.140  24.889  1.00  0.00     0.166 HD
ENDBRANCH  32  33
ENDBRANCH  24  32
ENDBRANCH  21  24
ENDBRANCH   1  20
TORSDOF 16
ENDMDL