MODEL 2
REMARK VINA RESULT: -7.979578071      1.729      2.220
REMARK  12 active torsions:
REMARK  status: ('A' for Active; 'I' for Inactive)
REMARK    1  A    between atoms: C2_2  and  C3_3
REMARK    2  A    between atoms: C3_3  and  C4_4
REMARK    3  A    between atoms: C4_4  and  C5_5
REMARK    4  A    between atoms: C4_4  and  O2_26
REMARK    5  A    between atoms: C5_5  and  C6_6
REMARK    6  A    between atoms: C6_6  and  C7_7
REMARK    7  A    between atoms: N1_8  and  C8_10
REMARK    8  A    between atoms: C10_12  and  C11_13
REMARK    9  A    between atoms: N2_15  and  N3_17
REMARK   10  A    between atoms: C13_22  and  O1_24
REMARK   11  A    between atoms: O2_26  and  C15_27
REMARK       I    between atoms: C15_27  and  N5_29
REMARK       I    between atoms: N6_32  and  C18_33
REMARK   12  A    between atoms: N8_35  and  C19_37
ROOT
HETATM    1  C5  UNL     1      19.787 -12.945  21.931  1.00  0.00     0.037 C
ENDROOT
BRANCH   1   2
HETATM    2  C4  UNL     1      20.019 -13.543  23.248  1.00  0.00     0.134 C
BRANCH   2   3
HETATM    3  C3  UNL     1      21.095 -13.178  24.158  1.00  0.00     0.032 C
BRANCH   3   4
HETATM    4  C2  UNL     1      20.861 -12.309  25.329  1.00  0.00    -0.002 C
HETATM    5  C1  UNL     1      20.838 -13.209  26.606  1.00  0.00     0.005 C
ENDBRANCH   3   4
ENDBRANCH   2   3
BRANCH   2   6
HETATM    6  O2  UNL     1      19.893 -14.995  23.157  1.00  0.00    -0.298 OA
BRANCH   6   7
HETATM    7  C15 UNL     1      18.874 -15.702  23.722  1.00  0.00     0.363 C
HETATM    8  O3  UNL     1      18.582 -15.470  24.936  1.00  0.00    -0.238 OA
HETATM    9  N5  UNL     1      18.114 -16.689  23.025  1.00  0.00    -0.325 N
HETATM   10  C16 UNL     1      17.033 -17.378  23.739  1.00  0.00     0.148 C
HETATM   11  C22 UNL     1      18.350 -17.048  21.646  1.00  0.00     0.148 C
HETATM   12  C17 UNL     1      15.738 -17.202  22.937  1.00  0.00     0.145 C
HETATM   13  N6  UNL     1      15.989 -17.568  21.566  1.00  0.00    -0.352 N
HETATM   14  C18 UNL     1      15.297 -18.572  20.873  1.00  0.00     0.190 C
HETATM   15  C21 UNL     1      17.059 -16.843  20.875  1.00  0.00     0.145 C
HETATM   16  N7  UNL     1      16.182 -19.593  20.295  1.00  0.00    -0.063 NA
HETATM   17  N8  UNL     1      14.064 -18.685  20.706  1.00  0.00    -0.345 N
ATOM     18  H8  UNL     1      13.753 -19.494  20.168  1.00  0.00     0.167 HD
BRANCH  17  19
HETATM   19  C19 UNL     1      13.055 -17.823  21.178  1.00  0.00     0.059 C
HETATM   20  C20 UNL     1      12.123 -17.272  20.152  1.00  0.00     0.055 C
ENDBRANCH  17  19
ENDBRANCH   6   7
ENDBRANCH   2   6
ENDBRANCH   1   2
BRANCH   1  21
HETATM   21  C6  UNL     1      18.373 -12.965  21.458  1.00  0.00     0.047 C
BRANCH  21  22
HETATM   22  C7  UNL     1      17.931 -11.624  20.975  1.00  0.00     0.060 C
HETATM   23  N1  UNL     1      16.798 -11.139  20.806  1.00  0.00    -0.379 N
ATOM     24  H1  UNL     1      16.873 -10.183  20.459  1.00  0.00     0.164 HD
BRANCH  23  25
HETATM   25  C8  UNL     1      15.485 -11.492  20.941  1.00  0.00     0.094 C
HETATM   26  C9  UNL     1      14.339 -10.847  20.978  1.00  0.00    -0.017 A
HETATM   27  C10 UNL     1      12.846 -10.994  21.105  1.00  0.00     0.104 A
HETATM   28  C13 UNL     1      13.433  -9.650  20.952  1.00  0.00     0.092 A
HETATM   29  C14 UNL     1      13.488  -8.713  22.112  1.00  0.00     0.052 C
BRANCH  27  30
HETATM   30  C11 UNL     1      12.251 -11.428  22.378  1.00  0.00     0.013 C
HETATM   31  C12 UNL     1      11.751 -10.466  23.397  1.00  0.00     0.066 C
HETATM   32  N2  UNL     1      12.202 -12.656  22.695  1.00  0.00    -0.295 N
ATOM     33  H2  UNL     1      11.780 -12.919  23.586  1.00  0.00     0.187 HD
BRANCH  32  34
HETATM   34  N3  UNL     1      12.704 -13.645  21.873  1.00  0.00    -0.249 N
HETATM   35  N4  UNL     1      13.499 -14.490  22.351  1.00  0.00    -0.331 N
ATOM     36  H42 UNL     1      13.762 -14.433  23.335  1.00  0.00     0.178 HD
ATOM     37  H41 UNL     1      13.869 -15.221  21.743  1.00  0.00     0.178 HD
ATOM     38  H3  UNL     1      12.431 -13.689  20.891  1.00  0.00     0.207 HD
ENDBRANCH  32  34
ENDBRANCH  27  30
BRANCH  28  39
HETATM   39  O1  UNL     1      13.247  -9.037  19.703  1.00  0.00    -0.385 OA
ATOM     40  H1  UNL     1      12.347  -8.881  19.440  1.00  0.00     0.211 HD
ENDBRANCH  28  39
ENDBRANCH  23  25
ENDBRANCH  21  22
ENDBRANCH   1  21
TORSDOF 12
ENDMDL