MODEL 4
REMARK VINA RESULT: -7.760797263      1.727      2.237
REMARK  11 active torsions:
REMARK  status: ('A' for Active; 'I' for Inactive)
REMARK    1  A    between atoms: N1_3  and  C3_4
REMARK    2  A    between atoms: C3_4  and  C4_5
REMARK    3  A    between atoms: C4_5  and  C5_6
REMARK    4  A    between atoms: C5_6  and  C6_7
REMARK    5  A    between atoms: N2_10  and  C9_11
REMARK    6  A    between atoms: C9_11  and  C10_12
REMARK    7  A    between atoms: C10_12  and  C11_13
REMARK    8  A    between atoms: C11_13  and  C12_14
REMARK    9  A    between atoms: C12_14  and  N3_15
REMARK   10  A    between atoms: C15_18  and  C16_19
REMARK   11  A    between atoms: C20_26  and  N4_27
ROOT
HETATM    1  C6  UNL     1      18.148 -13.654  22.130  1.00  0.00     0.012 C
HETATM    2  C7  UNL     1      18.985 -14.396  21.322  1.00  0.00     0.042 C
HETATM    3  C8  UNL     1      19.586 -15.641  21.535  1.00  0.00     0.096 C
HETATM    4  N2  UNL     1      19.447 -16.464  22.588  1.00  0.00    -0.321 N
HETATM    5  C19 UNL     1      18.896 -16.142  23.772  1.00  0.00     0.291 C
HETATM    6  O3  UNL     1      18.954 -17.091  24.605  1.00  0.00    -0.264 OA
HETATM    7  C20 UNL     1      18.298 -14.960  24.181  1.00  0.00     0.169 C
HETATM    8  N5  UNL     1      17.984 -13.866  23.465  1.00  0.00    -0.342 N
ATOM      9  H5  UNL     1      17.570 -13.096  23.990  1.00  0.00     0.167 HD
ENDROOT
BRANCH   1  10
HETATM   10  C5  UNL     1      17.360 -12.546  21.529  1.00  0.00     0.059 C
BRANCH  10  11
HETATM   11  C4  UNL     1      16.032 -13.042  21.004  1.00  0.00     0.026 C
BRANCH  11  12
HETATM   12  C3  UNL     1      15.194 -11.889  20.528  1.00  0.00     0.131 C
BRANCH  12  13
HETATM   13  N1  UNL     1      14.041 -11.765  21.361  1.00  0.00    -0.332 N
HETATM   14  C2  UNL     1      13.510 -10.599  21.723  1.00  0.00     0.098 A
HETATM   15  C1  UNL     1      14.127  -9.331  21.260  1.00  0.00     0.090 C
HETATM   16  N8  UNL     1      12.420 -10.551  22.508  1.00  0.00    -0.177 N
HETATM   17  C22 UNL     1      11.834 -11.684  22.950  1.00  0.00     0.679 A
HETATM   18  C23 UNL     1      11.831  -9.303  22.910  1.00  0.00     0.177 C
HETATM   19  N6  UNL     1      12.364 -12.863  22.588  1.00  0.00    -0.188 N
HETATM   20  N7  UNL     1      10.792 -11.673  23.700  1.00  0.00    -0.234 N
HETATM   21  C21 UNL     1      13.451 -12.906  21.807  1.00  0.00     0.201 A
ATOM     22  H6  UNL     1      11.937 -13.731  22.910  1.00  0.00     0.185 HD
ATOM     23  H72 UNL     1      10.349 -12.528  24.034  1.00  0.00     0.174 HD
ATOM     24  H71 UNL     1      10.389 -10.777  23.975  1.00  0.00     0.174 HD
ENDBRANCH  12  13
ENDBRANCH  11  12
ENDBRANCH  10  11
ENDBRANCH   1  10
BRANCH   7  25
HETATM   25  N4  UNL     1      18.015 -14.942  25.446  1.00  0.00    -0.381 N
ATOM     26  H42 UNL     1      18.073 -15.828  25.949  1.00  0.00     0.157 HD
ATOM     27  H41 UNL     1      17.762 -14.016  25.788  1.00  0.00     0.157 HD
ENDBRANCH   7  25
BRANCH   4  28
HETATM   28  C9  UNL     1      19.939 -17.847  22.441  1.00  0.00     0.132 C
BRANCH  28  29
HETATM   29  C10 UNL     1      21.410 -17.873  22.206  1.00  0.00     0.022 C
BRANCH  29  30
HETATM   30  C11 UNL     1      22.098 -18.533  23.368  1.00  0.00     0.022 C
BRANCH  30  31
HETATM   31  C12 UNL     1      23.270 -17.684  23.794  1.00  0.00     0.128 C
BRANCH  31  32
HETATM   32  N3  UNL     1      22.697 -16.472  24.407  1.00  0.00    -0.366 N
HETATM   33  C13 UNL     1      22.709 -15.288  23.772  1.00  0.00     0.091 A
HETATM   34  C14 UNL     1      22.177 -14.140  24.330  1.00  0.00     0.035 A
HETATM   35  C15 UNL     1      21.607 -14.178  25.584  1.00  0.00     0.043 A
HETATM   36  C17 UNL     1      21.596 -15.395  26.234  1.00  0.00     0.035 A
HETATM   37  C18 UNL     1      22.141 -16.514  25.631  1.00  0.00     0.091 A
BRANCH  35  38
HETATM   38  C16 UNL     1      21.043 -12.970  26.180  1.00  0.00     0.209 C
HETATM   39  O1  UNL     1      20.708 -12.889  27.372  1.00  0.00    -0.644 OA
HETATM   40  O2  UNL     1      20.867 -11.846  25.386  1.00  0.00    -0.644 OA
ENDBRANCH  35  38
ENDBRANCH  31  32
ENDBRANCH  30  31
ENDBRANCH  29  30
ENDBRANCH  28  29
ENDBRANCH   4  28
TORSDOF 11
ENDMDL