MODEL 5
REMARK VINA RESULT: -8.182847053      2.923      3.416
REMARK  14 active torsions:
REMARK  status: ('A' for Active; 'I' for Inactive)
REMARK    1  A    between atoms: C2_4  and  N2_5
REMARK    2  A    between atoms: C2_4  and  C17_41
REMARK    3  A    between atoms: N2_5  and  C3_7
REMARK    4  A    between atoms: C5_13  and  C6_14
REMARK    5  A    between atoms: C6_14  and  C7_15
REMARK    6  A    between atoms: C7_15  and  N5_16
REMARK    7  A    between atoms: N6_20  and  N7_22
REMARK    8  A    between atoms: C12_28  and  C13_29
REMARK    9  A    between atoms: C13_29  and  C14_30
REMARK   10  A    between atoms: C14_30  and  C15_31
REMARK   11  A    between atoms: C15_31  and  C16_32
REMARK   12  A    between atoms: C16_32  and  N9_33
REMARK   13  A    between atoms: N9_33  and  S1_35
REMARK   14  A    between atoms: S1_35  and  N10_36
ROOT
HETATM    1  C3  UNL     1      19.660 -13.898  22.520  1.00  0.00     0.133 A
HETATM    2  N3  UNL     1      20.530 -13.139  21.881  1.00  0.00    -0.284 N
ATOM      3  H3  UNL     1      21.530 -13.112  22.079  1.00  0.00     0.188 HD
HETATM    4  N4  UNL     1      19.942 -12.426  20.964  1.00  0.00    -0.299 N
ATOM      5  H4  UNL     1      20.397 -11.763  20.337  1.00  0.00     0.187 HD
HETATM    6  C4  UNL     1      18.578 -12.728  20.989  1.00  0.00     0.058 A
HETATM    7  C5  UNL     1      17.817 -12.122  20.138  1.00  0.00     0.007 C
HETATM    8  C12 UNL     1      18.356 -13.662  21.967  1.00  0.00     0.033 A
ENDROOT
BRANCH   7   9
HETATM    9  C6  UNL     1      16.416 -12.089  19.781  1.00  0.00     0.059 C
BRANCH   9  10
HETATM   10  C7  UNL     1      15.620 -11.358  20.889  1.00  0.00     0.276 C
BRANCH  10  11
HETATM   11  N5  UNL     1      14.258 -11.134  20.517  1.00  0.00     0.094 N
HETATM   12  C8  UNL     1      13.511 -12.334  20.404  1.00  0.00     0.278 C
HETATM   13  C9  UNL     1      12.958 -12.518  21.825  1.00  0.00     0.086 C
HETATM   14  C10 UNL     1      12.620 -11.122  22.189  1.00  0.00     0.035 C
HETATM   15  N6  UNL     1      11.687 -10.719  22.973  1.00  0.00    -0.293 N
HETATM   16  C11 UNL     1      13.591 -10.275  21.451  1.00  0.00     0.326 C
ATOM     17  H6  UNL     1      11.588  -9.714  23.117  1.00  0.00     0.188 HD
BRANCH  15  18
HETATM   18  N7  UNL     1      10.812 -11.551  23.633  1.00  0.00    -0.249 N
HETATM   19  N8  UNL     1      10.827 -11.576  24.910  1.00  0.00    -0.331 N
ATOM     20  H82 UNL     1      11.484 -10.984  25.417  1.00  0.00     0.178 HD
ATOM     21  H81 UNL     1      10.178 -12.192  25.399  1.00  0.00     0.178 HD
ATOM     22  H7  UNL     1      10.161 -12.137  23.111  1.00  0.00     0.207 HD
ENDBRANCH  15  18
ENDBRANCH  10  11
ENDBRANCH   9  10
ENDBRANCH   7   9
BRANCH   8  23
HETATM   23  C13 UNL     1      17.324 -14.308  22.437  1.00  0.00    -0.009 C
BRANCH  23  24
HETATM   24  C14 UNL     1      16.461 -15.317  21.902  1.00  0.00     0.030 C
BRANCH  24  25
HETATM   25  C15 UNL     1      17.196 -16.232  20.875  1.00  0.00     0.024 C
BRANCH  25  26
HETATM   26  C16 UNL     1      17.934 -17.268  21.662  1.00  0.00     0.134 C
BRANCH  26  27
HETATM   27  N9  UNL     1      18.896 -17.990  20.818  1.00  0.00    -0.303 N
ATOM     28  H9  UNL     1      18.658 -18.620  20.052  1.00  0.00     0.173 HD
BRANCH  27  29
HETATM   29  S1  UNL     1      20.477 -17.600  21.330  1.00  0.00     0.312 S
HETATM   30  O1  UNL     1      20.924 -16.243  20.924  1.00  0.00    -0.183 OA
HETATM   31  O2  UNL     1      20.606 -17.717  22.822  1.00  0.00    -0.183 OA
BRANCH  29  32
HETATM   32  N10 UNL     1      21.567 -18.737  20.588  1.00  0.00    -0.312 N
ATOM     33 2H10 UNL     1      21.960 -18.653  19.651  1.00  0.00     0.170 HD
ATOM     34 1H10 UNL     1      21.732 -19.488  21.257  1.00  0.00     0.170 HD
ENDBRANCH  29  32
ENDBRANCH  27  29
ENDBRANCH  26  27
ENDBRANCH  25  26
ENDBRANCH  24  25
ENDBRANCH  23  24
ENDBRANCH   8  23
BRANCH   1  35
HETATM   35  N2  UNL     1      19.887 -14.732  23.491  1.00  0.00    -0.330 N
ATOM     36  H2  UNL     1      19.209 -15.453  23.736  1.00  0.00     0.168 HD
BRANCH  35  37
HETATM   37  C2  UNL     1      21.153 -14.600  24.224  1.00  0.00     0.081 C
HETATM   38  N1  UNL     1      22.135 -15.166  23.743  1.00  0.00    -0.384 N
HETATM   39  C1  UNL     1      23.486 -15.366  23.987  1.00  0.00     0.147 C
ATOM     40  H1  UNL     1      21.868 -15.646  22.883  1.00  0.00     0.160 HD
BRANCH  37  41
HETATM   41  C17 UNL     1      21.147 -13.806  25.457  1.00  0.00     0.045 C
HETATM   42  C18 UNL     1      20.939 -12.345  25.327  1.00  0.00     0.017 C
HETATM   43  C19 UNL     1      20.051 -14.310  26.419  1.00  0.00     0.017 C
ENDBRANCH  37  41
ENDBRANCH  35  37
ENDBRANCH   1  35
TORSDOF 14
ENDMDL