MODEL 2
REMARK VINA RESULT: -8.477412363      0.684      2.802
REMARK  11 active torsions:
REMARK  status: ('A' for Active; 'I' for Inactive)
REMARK    1  A    between atoms: C2_2  and  C3_3
REMARK    2  A    between atoms: C2_2  and  N5_19
REMARK    3  A    between atoms: C3_3  and  C4_4
REMARK    4  A    between atoms: C4_4  and  C5_5
REMARK    5  A    between atoms: C5_5  and  C6_6
REMARK    6  A    between atoms: C6_6  and  C7_7
REMARK    7  A    between atoms: C7_7  and  C8_8
REMARK    8  A    between atoms: C8_8  and  N1_9
REMARK       I    between atoms: N5_19  and  C11_20
REMARK    9  A    between atoms: C11_20  and  C12_22
REMARK   10  A    between atoms: C12_22  and  C13_24
REMARK   11  A    between atoms: C13_24  and  N6_25
ROOT
HETATM    1  N5  UNL     1      19.748 -13.286  21.085  1.00  0.00    -0.373 NA
HETATM    2  C11 UNL     1      19.453 -12.390  20.187  1.00  0.00     0.363 C
HETATM    3  O1  UNL     1      20.190 -12.193  19.146  1.00  0.00    -0.248 OA
ENDROOT
BRANCH   2   4
HETATM    4  C12 UNL     1      18.257 -11.518  20.265  1.00  0.00     0.249 C
HETATM    5  O2  UNL     1      18.337 -10.531  21.061  1.00  0.00    -0.284 OA
BRANCH   4   6
HETATM    6  C13 UNL     1      17.069 -11.811  19.454  1.00  0.00     0.221 C
BRANCH   6   7
HETATM    7  N6  UNL     1      15.994 -12.480  20.202  1.00  0.00    -0.319 N
HETATM    8  C14 UNL     1      15.111 -11.661  20.691  1.00  0.00     0.137 A
HETATM    9  N7  UNL     1      15.121 -10.324  20.555  1.00  0.00    -0.336 N
HETATM   10  C17 UNL     1      13.983 -11.961  21.459  1.00  0.00     0.082 A
HETATM   11  C15 UNL     1      14.046  -9.830  21.212  1.00  0.00     0.184 A
ATOM     12  H7  UNL     1      15.817  -9.778  20.047  1.00  0.00     0.168 HD
HETATM   13  N8  UNL     1      13.340 -10.800  21.768  1.00  0.00    -0.344 N
HETATM   14  C16 UNL     1      12.134 -10.769  22.555  1.00  0.00     0.157 C
HETATM   15  C18 UNL     1      13.565 -13.148  21.859  1.00  0.00     0.065 A
HETATM   16  C19 UNL     1      14.155 -14.455  21.614  1.00  0.00     0.058 A
HETATM   17  C20 UNL     1      13.608 -15.623  22.128  1.00  0.00     0.119 A
HETATM   18  N10 UNL     1      15.248 -14.708  20.904  1.00  0.00    -0.302 N
HETATM   19  N9  UNL     1      14.436 -16.598  21.686  1.00  0.00    -0.359 N
HETATM   20  C21 UNL     1      15.405 -16.067  20.963  1.00  0.00     0.189 A
ATOM     21  H9  UNL     1      14.328 -17.593  21.882  1.00  0.00     0.166 HD
HETATM   22  C22 UNL     1      16.144 -13.887  20.195  1.00  0.00     0.194 A
ENDBRANCH   6   7
ENDBRANCH   4   6
ENDBRANCH   2   4
BRANCH   1  23
HETATM   23  C2  UNL     1      20.076 -13.945  22.052  1.00  0.00     0.062 C
HETATM   24  C1  UNL     1      19.616 -15.393  22.088  1.00  0.00     0.080 C
BRANCH  23  25
HETATM   25  C3  UNL     1      20.882 -13.461  23.203  1.00  0.00     0.068 C
BRANCH  25  26
HETATM   26  C4  UNL     1      20.134 -12.887  24.334  1.00  0.00     0.007 C
BRANCH  26  27
HETATM   27  C5  UNL     1      20.869 -12.592  25.599  1.00  0.00     0.000 C
BRANCH  27  28
HETATM   28  C6  UNL     1      20.510 -13.664  26.643  1.00  0.00     0.002 C
BRANCH  28  29
HETATM   29  C7  UNL     1      21.629 -14.642  26.843  1.00  0.00     0.022 C
BRANCH  29  30
HETATM   30  C8  UNL     1      21.462 -15.913  26.064  1.00  0.00     0.150 C
BRANCH  30  31
HETATM   31  N1  UNL     1      22.441 -15.963  24.988  1.00  0.00    -0.273 N
HETATM   32  C9  UNL     1      22.375 -16.833  23.959  1.00  0.00     0.218 A
HETATM   33  N2  UNL     1      23.443 -16.565  23.186  1.00  0.00    -0.185 N
HETATM   34  C10 UNL     1      24.143 -15.553  23.734  1.00  0.00     0.691 A
ATOM     35  H2  UNL     1      23.685 -17.051  22.323  1.00  0.00     0.185 HD
HETATM   36  N3  UNL     1      25.218 -15.082  23.206  1.00  0.00    -0.233 N
HETATM   37  N4  UNL     1      23.501 -15.189  24.863  1.00  0.00    -0.129 N
ATOM     38  H32 UNL     1      25.704 -15.358  22.352  1.00  0.00     0.174 HD
ATOM     39  H31 UNL     1      25.748 -14.315  23.621  1.00  0.00     0.174 HD
ATOM     40  H4  UNL     1      23.785 -14.448  25.504  1.00  0.00     0.206 HD
ENDBRANCH  30  31
ENDBRANCH  29  30
ENDBRANCH  28  29
ENDBRANCH  27  28
ENDBRANCH  26  27
ENDBRANCH  25  26
ENDBRANCH  23  25
ENDBRANCH   1  23
TORSDOF 11
ENDMDL