MODEL 1
REMARK VINA RESULT: -8.098069048      0.000      0.000
REMARK  13 active torsions:
REMARK  status: ('A' for Active; 'I' for Inactive)
REMARK    1  A    between atoms: C2_2  and  N1_3
REMARK    2  A    between atoms: N1_3  and  C5_6
REMARK    3  A    between atoms: C5_6  and  C6_7
REMARK    4  A    between atoms: C6_7  and  C7_8
REMARK    5  A    between atoms: C7_8  and  C8_9
REMARK    6  A    between atoms: C8_9  and  C9_10
REMARK    7  A    between atoms: C9_10  and  N2_11
REMARK    8  A    between atoms: C13_15  and  C14_16
REMARK    9  A    between atoms: C14_16  and  N3_17
REMARK   10  A    between atoms: N3_17  and  C15_19
REMARK   11  A    between atoms: C16_22  and  N5_23
REMARK   12  A    between atoms: C18_28  and  N7_29
REMARK   13  A    between atoms: N7_29  and  C19_31
ROOT
HETATM    1  C15 UNL     1      14.479 -11.558  21.272  1.00  0.00     0.707 A
HETATM    2  N4  UNL     1      13.592 -10.781  21.917  1.00  0.00    -0.022 N
ATOM      3  H4  UNL     1      13.800  -9.791  22.048  1.00  0.00     0.203 HD
HETATM    4  C16 UNL     1      12.425 -11.284  22.399  1.00  0.00     0.706 A
HETATM    5  N6  UNL     1      12.140 -12.578  22.234  1.00  0.00    -0.021 N
ATOM      6  H6  UNL     1      11.265 -12.959  22.593  1.00  0.00     0.203 HD
HETATM    7  C18 UNL     1      13.024 -13.393  21.581  1.00  0.00     0.710 A
HETATM    8  N10 UNL     1      14.169 -12.854  21.120  1.00  0.00    -0.021 N
ATOM      9  H10 UNL     1      14.831 -13.459  20.633  1.00  0.00     0.203 HD
ENDROOT
BRANCH   1  10
HETATM   10  N3  UNL     1      15.570 -11.048  20.833  1.00  0.00    -0.221 N
ATOM     11  H3  UNL     1      15.882 -10.195  21.298  1.00  0.00     0.178 HD
BRANCH  10  12
HETATM   12  C14 UNL     1      16.399 -11.518  19.782  1.00  0.00     0.178 C
BRANCH  12  13
HETATM   13  C13 UNL     1      17.570 -12.296  20.218  1.00  0.00    -0.024 A
HETATM   14  C12 UNL     1      18.846 -11.824  20.066  1.00  0.00     0.011 A
HETATM   15  C11 UNL     1      19.896 -12.605  20.499  1.00  0.00     0.018 A
HETATM   16  C10 UNL     1      19.658 -13.836  21.073  1.00  0.00     0.090 A
HETATM   17  N2  UNL     1      18.401 -14.293  21.219  1.00  0.00    -0.366 N
HETATM   18  C24 UNL     1      17.374 -13.524  20.793  1.00  0.00     0.099 A
BRANCH  17  19
HETATM   19  C9  UNL     1      18.229 -15.582  21.814  1.00  0.00     0.128 C
BRANCH  19  20
HETATM   20  C8  UNL     1      19.063 -15.844  23.033  1.00  0.00     0.020 C
BRANCH  20  21
HETATM   21  C7  UNL     1      18.231 -16.000  24.263  1.00  0.00     0.003 C
BRANCH  21  22
HETATM   22  C6  UNL     1      18.640 -15.091  25.399  1.00  0.00     0.028 C
BRANCH  22  23
HETATM   23  C5  UNL     1      19.381 -13.921  24.846  1.00  0.00     0.236 C
BRANCH  23  24
HETATM   24  N1  UNL     1      20.630 -13.667  25.538  1.00  0.00    -0.075 N
HETATM   25  C3  UNL     1      20.479 -13.803  26.955  1.00  0.00     0.272 C
HETATM   26  C4  UNL     1      20.984 -12.269  25.263  1.00  0.00     0.272 C
BRANCH  24  27
HETATM   27  C2  UNL     1      21.719 -14.475  25.087  1.00  0.00     0.232 C
HETATM   28  C1  UNL     1      22.671 -13.754  24.160  1.00  0.00     0.034 C
ENDBRANCH  24  27
ENDBRANCH  23  24
ENDBRANCH  22  23
ENDBRANCH  21  22
ENDBRANCH  20  21
ENDBRANCH  19  20
ENDBRANCH  17  19
ENDBRANCH  12  13
ENDBRANCH  10  12
ENDBRANCH   1  10
BRANCH   4  29
HETATM   29  N5  UNL     1      11.561 -10.552  23.021  1.00  0.00    -0.229 N
HETATM   30  C17 UNL     1      11.977  -9.226  23.420  1.00  0.00     0.165 C
ATOM     31  H5  UNL     1      10.622 -10.897  23.224  1.00  0.00     0.177 HD
ENDBRANCH   4  29
BRANCH   7  32
HETATM   32  N7  UNL     1      12.720 -14.634  21.440  1.00  0.00    -0.172 N
ATOM     33  H7  UNL     1      12.152 -15.107  22.143  1.00  0.00     0.181 HD
BRANCH  32  34
HETATM   34  C19 UNL     1      13.184 -15.350  20.285  1.00  0.00     0.502 C
HETATM   35  N8  UNL     1      12.104 -15.363  19.319  1.00  0.00    -0.026 N
HETATM   36  C20 UNL     1      11.314 -16.556  19.570  1.00  0.00     0.265 C
ATOM     37  H82 UNL     1      11.550 -14.507  19.329  1.00  0.00     0.281 HD
ATOM     38  H81 UNL     1      12.431 -15.297  18.355  1.00  0.00     0.281 HD
HETATM   39  C21 UNL     1      12.011 -17.223  20.760  1.00  0.00     0.268 C
HETATM   40  N9  UNL     1      13.363 -16.768  20.560  1.00  0.00    -0.026 N
HETATM   41  C22 UNL     1      13.938 -17.375  19.395  1.00  0.00     0.276 C
HETATM   42  C23 UNL     1      14.168 -16.993  21.732  1.00  0.00     0.276 C
ENDBRANCH  32  34
ENDBRANCH   7  32
TORSDOF 13
ENDMDL