MODEL 3
REMARK VINA RESULT: -8.204109014      1.525      2.026
REMARK  12 active torsions:
REMARK  status: ('A' for Active; 'I' for Inactive)
REMARK    1  A    between atoms: C3_3  and  C4_4
REMARK    2  A    between atoms: C4_4  and  C5_5
REMARK    3  A    between atoms: C5_5  and  C6_6
REMARK    4  A    between atoms: C7_7  and  C8_8
REMARK    5  A    between atoms: C13_14  and  C14_15
REMARK       I    between atoms: N2_17  and  C16_18
REMARK    6  A    between atoms: C16_18  and  C17_20
REMARK    7  A    between atoms: C17_20  and  O2_21
REMARK    8  A    between atoms: C19_26  and  N4_27
REMARK    9  A    between atoms: N4_27  and  C20_29
REMARK   10  A    between atoms: C20_29  and  C21_30
REMARK   11  A    between atoms: C21_30  and  N5_31
REMARK       I    between atoms: N5_31  and  C22_33
REMARK       I    between atoms: C22_33  and  N7_37
REMARK   12  A    between atoms: N7_37  and  N8_39
ROOT
HETATM    1  C1  UNL     1      20.907 -13.136  27.402  1.00  0.00     0.012 C
HETATM    2  C2  UNL     1      20.906 -12.826  26.227  1.00  0.00    -0.117 C
HETATM    3  C3  UNL     1      20.927 -12.451  24.802  1.00  0.00     0.094 C
ENDROOT
BRANCH   3   4
HETATM    4  C4  UNL     1      19.855 -13.252  24.117  1.00  0.00     0.024 C
BRANCH   4   5
HETATM    5  C5  UNL     1      19.966 -13.230  22.623  1.00  0.00     0.095 C
BRANCH   5   6
HETATM    6  C6  UNL     1      18.752 -13.849  22.081  1.00  0.00    -0.101 C
HETATM    7  C7  UNL     1      17.747 -14.361  21.655  1.00  0.00    -0.063 C
BRANCH   7   8
HETATM    8  C8  UNL     1      16.543 -14.985  21.157  1.00  0.00     0.062 A
HETATM    9  C9  UNL     1      16.480 -16.332  20.896  1.00  0.00     0.041 A
HETATM   10  C10 UNL     1      15.313 -16.918  20.415  1.00  0.00     0.026 A
HETATM   11  C11 UNL     1      15.346 -18.267  20.184  1.00  0.00     0.107 A
HETATM   12  C18 UNL     1      14.175 -16.178  20.180  1.00  0.00     0.129 A
HETATM   13  N1  UNL     1      14.272 -18.874  19.730  1.00  0.00    -0.346 N
HETATM   14  C12 UNL     1      14.307 -20.325  19.516  1.00  0.00     0.157 C
HETATM   15  C13 UNL     1      13.141 -18.161  19.491  1.00  0.00     0.117 A
HETATM   16  N2  UNL     1      13.068 -16.822  19.707  1.00  0.00    -0.250 N
HETATM   17  C16 UNL     1      11.902 -16.075  19.465  1.00  0.00     0.254 C
HETATM   18  O1  UNL     1      11.913 -14.820  19.691  1.00  0.00    -0.270 OA
HETATM   19  N3  UNL     1      14.253 -14.866  20.439  1.00  0.00    -0.326 N
HETATM   20  C19 UNL     1      15.397 -14.277  20.914  1.00  0.00     0.121 A
ATOM     21  H3  UNL     1      13.432 -14.283  20.278  1.00  0.00     0.169 HD
BRANCH  15  22
HETATM   22  C14 UNL     1      12.043 -18.966  18.951  1.00  0.00     0.039 C
HETATM   23  C15 UNL     1      11.323 -19.703  19.809  1.00  0.00     0.015 C
ENDBRANCH  15  22
BRANCH  17  24
HETATM   24  C17 UNL     1      10.610 -16.609  18.957  1.00  0.00     0.267 C
BRANCH  24  25
HETATM   25  O2  UNL     1      10.487 -16.122  17.593  1.00  0.00    -0.392 OA
ATOM     26  H2  UNL     1      10.782 -16.832  17.035  1.00  0.00     0.210 HD
ENDBRANCH  24  25
ENDBRANCH  17  24
BRANCH  20  27
HETATM   27  N4  UNL     1      15.395 -13.019  21.137  1.00  0.00    -0.373 N
ATOM     28  H4  UNL     1      15.635 -12.719  22.082  1.00  0.00     0.161 HD
BRANCH  27  29
HETATM   29  C20 UNL     1      15.090 -11.992  20.194  1.00  0.00     0.141 C
BRANCH  29  30
HETATM   30  C21 UNL     1      13.745 -11.330  20.438  1.00  0.00     0.157 C
BRANCH  30  31
HETATM   31  N5  UNL     1      13.622 -11.072  21.854  1.00  0.00    -0.224 N
HETATM   32  C22 UNL     1      12.373 -10.748  22.406  1.00  0.00     0.687 C
HETATM   33  N6  UNL     1      12.089  -9.516  22.645  1.00  0.00    -0.234 N
HETATM   34  N7  UNL     1      11.422 -11.779  22.699  1.00  0.00    -0.119 N
ATOM     35  H62 UNL     1      12.766  -8.781  22.437  1.00  0.00     0.174 HD
ATOM     36  H61 UNL     1      11.181  -9.279  23.046  1.00  0.00     0.174 HD
ATOM     37  H7  UNL     1      11.407 -12.619  22.120  1.00  0.00     0.207 HD
ATOM     38  H5  UNL     1      14.444 -11.126  22.455  1.00  0.00     0.177 HD
BRANCH  34  39
HETATM   39  N8  UNL     1      10.527 -11.666  23.742  1.00  0.00    -0.235 N
HETATM   40  N9  UNL     1      10.805 -12.025  24.937  1.00  0.00    -0.330 N
ATOM     41  H92 UNL     1      11.734 -12.410  25.110  1.00  0.00     0.178 HD
ATOM     42  H91 UNL     1      10.143 -11.941  25.708  1.00  0.00     0.178 HD
ATOM     43  H8  UNL     1       9.603 -11.279  23.551  1.00  0.00     0.208 HD
ENDBRANCH  34  39
ENDBRANCH  30  31
ENDBRANCH  29  30
ENDBRANCH  27  29
ENDBRANCH  20  27
ENDBRANCH   7   8
ENDBRANCH   5   6
ENDBRANCH   4   5
ENDBRANCH   3   4
TORSDOF 12
ENDMDL