MODEL 5
REMARK VINA RESULT: -7.620738962      4.407      9.919
REMARK  15 active torsions:
REMARK  status: ('A' for Active; 'I' for Inactive)
REMARK    1  A    between atoms: C6_6  and  C7_7
REMARK    2  A    between atoms: C7_7  and  C8_8
REMARK    3  A    between atoms: C8_8  and  N1_9
REMARK    4  A    between atoms: C11_12  and  C12_13
REMARK    5  A    between atoms: C12_13  and  O1_14
REMARK    6  A    between atoms: C12_13  and  N2_16
REMARK    7  A    between atoms: N2_16  and  C13_17
REMARK    8  A    between atoms: N2_16  and  C15_21
REMARK    9  A    between atoms: C13_17  and  C14_18
REMARK   10  A    between atoms: C14_18  and  O2_19
REMARK   11  A    between atoms: C15_21  and  C16_22
REMARK   12  A    between atoms: C16_22  and  O3_23
REMARK   13  A    between atoms: N3_28  and  C20_29
REMARK   14  A    between atoms: C20_29  and  C21_30
REMARK   15  A    between atoms: C23_34  and  N5_35
ROOT
HETATM    1  C1  UNL     1      20.143 -11.991  19.325  1.00  0.00     0.019 C
HETATM    2  C2  UNL     1      19.843 -12.513  20.364  1.00  0.00    -0.059 C
HETATM    3  C3  UNL     1      19.488 -13.109  21.619  1.00  0.00     0.088 A
HETATM    4  C4  UNL     1      20.416 -13.148  22.649  1.00  0.00     0.039 A
HETATM    5  C5  UNL     1      20.151 -13.667  23.888  1.00  0.00     0.011 A
HETATM    6  C6  UNL     1      18.864 -14.176  24.088  1.00  0.00    -0.041 A
HETATM    7  C19 UNL     1      17.976 -14.123  23.055  1.00  0.00     0.099 A
HETATM    8  N3  UNL     1      18.260 -13.607  21.843  1.00  0.00    -0.345 N
ENDROOT
BRANCH   8   9
HETATM    9  C20 UNL     1      17.215 -13.642  20.834  1.00  0.00     0.170 C
BRANCH   9  10
HETATM   10  C21 UNL     1      16.235 -12.556  20.925  1.00  0.00    -0.008 A
HETATM   11  C22 UNL     1      16.499 -11.282  20.451  1.00  0.00     0.116 A
HETATM   12  N4  UNL     1      15.512 -10.354  20.583  1.00  0.00    -0.201 N
HETATM   13  C23 UNL     1      14.329 -10.638  21.146  1.00  0.00     0.677 A
ATOM     14  H4  UNL     1      15.679  -9.407  20.241  1.00  0.00     0.183 HD
HETATM   15  N6  UNL     1      14.084 -11.882  21.607  1.00  0.00    -0.197 N
HETATM   16  C24 UNL     1      12.793 -12.164  22.212  1.00  0.00     0.174 C
HETATM   17  C25 UNL     1      15.004 -12.850  21.512  1.00  0.00     0.118 A
BRANCH  13  18
HETATM   18  N5  UNL     1      13.393  -9.752  21.271  1.00  0.00    -0.234 N
ATOM     19  H52 UNL     1      13.672  -8.777  21.383  1.00  0.00     0.174 HD
ATOM     20  H51 UNL     1      12.403  -9.999  21.259  1.00  0.00     0.174 HD
ENDBRANCH  13  18
ENDBRANCH   9  10
ENDBRANCH   8   9
BRANCH   6  21
HETATM   21  C7  UNL     1      18.540 -14.766  25.404  1.00  0.00     0.060 C
BRANCH  21  22
HETATM   22  C8  UNL     1      18.461 -16.244  25.310  1.00  0.00     0.132 C
BRANCH  22  23
HETATM   23  N1  UNL     1      19.743 -16.864  25.041  1.00  0.00    -0.366 N
HETATM   24  C9  UNL     1      19.963 -17.545  23.912  1.00  0.00     0.091 A
HETATM   25  C10 UNL     1      21.175 -18.145  23.584  1.00  0.00     0.033 A
HETATM   26  C11 UNL     1      22.245 -18.066  24.429  1.00  0.00     0.018 A
HETATM   27  C17 UNL     1      21.984 -17.338  25.618  1.00  0.00     0.033 A
HETATM   28  C18 UNL     1      20.778 -16.772  25.886  1.00  0.00     0.091 A
BRANCH  26  29
HETATM   29  C12 UNL     1      23.550 -18.627  24.247  1.00  0.00     0.152 C
BRANCH  29  30
HETATM   30  O1  UNL     1      23.907 -19.499  25.163  1.00  0.00    -0.345 OA
ATOM     31  H1  UNL     1      23.265 -20.175  25.341  1.00  0.00     0.219 HD
ENDBRANCH  29  30
BRANCH  29  32
HETATM   32  N2  UNL     1      24.539 -18.436  23.280  1.00  0.00    -0.337 N
BRANCH  32  33
HETATM   33  C13 UNL     1      25.546 -17.396  23.687  1.00  0.00     0.156 C
BRANCH  33  34
HETATM   34  C14 UNL     1      24.982 -16.050  23.584  1.00  0.00     0.184 C
BRANCH  34  35
HETATM   35  O2  UNL     1      25.361 -15.429  22.373  1.00  0.00    -0.399 OA
ATOM     36  H2  UNL     1      24.818 -14.670  22.193  1.00  0.00     0.209 HD
ENDBRANCH  34  35
ENDBRANCH  33  34
ENDBRANCH  32  33
BRANCH  32  37
HETATM   37  C15 UNL     1      24.657 -18.988  21.975  1.00  0.00     0.092 C
BRANCH  37  38
HETATM   38  C16 UNL     1      23.799 -18.557  20.866  1.00  0.00     0.208 C
BRANCH  38  39
HETATM   39  O3  UNL     1      23.336 -17.283  20.815  1.00  0.00    -0.396 OA
ATOM     40  H3  UNL     1      23.830 -16.576  21.213  1.00  0.00     0.209 HD
ENDBRANCH  38  39
ENDBRANCH  37  38
ENDBRANCH  32  37
ENDBRANCH  29  32
ENDBRANCH  26  29
ENDBRANCH  22  23
ENDBRANCH  21  22
ENDBRANCH   6  21
TORSDOF 15
ENDMDL