MODEL 2
REMARK VINA RESULT: -7.452345964      1.704      2.083
REMARK  11 active torsions:
REMARK  status: ('A' for Active; 'I' for Inactive)
REMARK    1  A    between atoms: C3_3  and  C4_4
REMARK    2  A    between atoms: C4_4  and  N9_38
REMARK    3  A    between atoms: N1_5  and  C5_7
REMARK    4  A    between atoms: C5_7  and  C6_8
REMARK    5  A    between atoms: C6_8  and  N2_9
REMARK    6  A    between atoms: N3_12  and  N4_14
REMARK    7  A    between atoms: C9_21  and  C10_22
REMARK    8  A    between atoms: C10_22  and  N7_23
REMARK       I    between atoms: N7_23  and  C11_25
REMARK    9  A    between atoms: C11_25  and  C12_27
REMARK   10  A    between atoms: C13_28  and  C14_29
REMARK   11  A    between atoms: N8_33  and  C18_34
ROOT
HETATM    1  C1  UNL     1      16.620 -16.905  23.649  1.00  0.00     0.012 C
HETATM    2  C2  UNL     1      15.954 -16.931  22.635  1.00  0.00    -0.110 C
HETATM    3  C3  UNL     1      15.144 -16.942  21.431  1.00  0.00     0.168 C
ENDROOT
BRANCH   3   4
HETATM    4  C4  UNL     1      14.058 -15.932  21.461  1.00  0.00     0.083 C
HETATM    5  N1  UNL     1      14.328 -14.745  21.796  1.00  0.00    -0.378 N
ATOM      6  H1  UNL     1      15.303 -14.560  22.028  1.00  0.00     0.160 HD
BRANCH   5   7
HETATM    7  C5  UNL     1      13.445 -13.631  21.891  1.00  0.00     0.149 C
BRANCH   7   8
HETATM    8  C6  UNL     1      13.274 -12.884  20.599  1.00  0.00     0.269 C
BRANCH   8   9
HETATM    9  N2  UNL     1      13.661 -11.513  20.632  1.00  0.00     0.015 N
HETATM   10  C7  UNL     1      13.806 -10.915  19.294  1.00  0.00     0.286 C
HETATM   11  C8  UNL     1      13.051 -10.654  21.562  1.00  0.00     0.299 C
HETATM   12  N3  UNL     1      11.963 -10.482  22.158  1.00  0.00    -0.251 N
HETATM   13  N6  UNL     1      14.267  -9.946  21.591  1.00  0.00    -0.325 N
ATOM     14  H3  UNL     1      11.217 -11.147  21.956  1.00  0.00     0.191 HD
HETATM   15  C9  UNL     1      14.890 -11.240  21.351  1.00  0.00     0.318 C
ATOM     16  H6  UNL     1      14.569  -8.981  21.720  1.00  0.00     0.164 HD
BRANCH  12  17
HETATM   17  N4  UNL     1      11.674  -9.475  23.067  1.00  0.00    -0.247 N
HETATM   18  N5  UNL     1      11.052  -9.748  24.115  1.00  0.00    -0.331 N
ATOM     19  H52 UNL     1      10.766 -10.712  24.287  1.00  0.00     0.178 HD
ATOM     20  H51 UNL     1      10.839  -9.007  24.783  1.00  0.00     0.178 HD
ATOM     21  H4  UNL     1      11.966  -8.516  22.879  1.00  0.00     0.207 HD
ENDBRANCH  12  17
BRANCH  15  22
HETATM   22  C10 UNL     1      16.180 -11.245  20.680  1.00  0.00     0.178 C
BRANCH  22  23
HETATM   23  N7  UNL     1      17.240 -11.757  21.516  1.00  0.00    -0.354 N
HETATM   24  C11 UNL     1      17.599 -13.141  21.503  1.00  0.00     0.241 C
HETATM   25  O1  UNL     1      16.966 -13.908  20.739  1.00  0.00    -0.269 OA
ATOM     26  H7  UNL     1      17.744 -11.117  22.130  1.00  0.00     0.162 HD
BRANCH  24  27
HETATM   27  C12 UNL     1      18.655 -13.712  22.322  1.00  0.00     0.075 C
HETATM   28  C13 UNL     1      18.609 -13.833  23.619  1.00  0.00     0.018 C
BRANCH  28  29
HETATM   29  C14 UNL     1      19.663 -14.401  24.417  1.00  0.00    -0.020 A
HETATM   30  C15 UNL     1      19.757 -13.955  25.739  1.00  0.00     0.014 A
HETATM   31  C16 UNL     1      20.750 -14.477  26.525  1.00  0.00     0.018 A
HETATM   32  C17 UNL     1      21.640 -15.412  26.054  1.00  0.00     0.091 A
HETATM   33  N8  UNL     1      21.543 -15.834  24.786  1.00  0.00    -0.355 N
HETATM   34  C21 UNL     1      20.568 -15.330  23.990  1.00  0.00     0.102 A
BRANCH  33  35
HETATM   35  C18 UNL     1      22.446 -16.816  24.222  1.00  0.00     0.220 C
HETATM   36  C19 UNL     1      23.729 -16.211  23.915  1.00  0.00    -0.097 C
HETATM   37  C20 UNL     1      24.799 -15.714  23.644  1.00  0.00     0.014 C
ENDBRANCH  33  35
ENDBRANCH  28  29
ENDBRANCH  24  27
ENDBRANCH  22  23
ENDBRANCH  15  22
ENDBRANCH   8   9
ENDBRANCH   7   8
ENDBRANCH   5   7
BRANCH   4  38
HETATM   38  N9  UNL     1      12.746 -16.339  21.108  1.00  0.00    -0.384 N
HETATM   39  C22 UNL     1      12.337 -16.561  19.735  1.00  0.00     0.147 C
ATOM     40  H9  UNL     1      12.062 -16.482  21.850  1.00  0.00     0.160 HD
ENDBRANCH   4  38
ENDBRANCH   3   4
TORSDOF 11
ENDMDL