MODEL 3
REMARK VINA RESULT: -6.870974421      1.636      4.606
REMARK  12 active torsions:
REMARK  status: ('A' for Active; 'I' for Inactive)
REMARK    1  A    between atoms: C5_6  and  N2_7
REMARK    2  A    between atoms: N2_7  and  N3_8
REMARK    3  A    between atoms: N4_11  and  C6_12
REMARK    4  A    between atoms: N4_11  and  C16_30
REMARK    5  A    between atoms: C6_12  and  C7_13
REMARK    6  A    between atoms: C7_13  and  C8_14
REMARK    7  A    between atoms: C8_14  and  N5_15
REMARK    8  A    between atoms: N5_15  and  C11_18
REMARK    9  A    between atoms: C11_18  and  C12_19
REMARK       I    between atoms: C12_19  and  N6_21
REMARK   10  A    between atoms: N6_21  and  C13_23
REMARK   11  A    between atoms: C16_30  and  C17_31
REMARK   12  A    between atoms: C17_31  and  N9_32
REMARK       I    between atoms: N9_32  and  C18_34
REMARK       I    between atoms: C18_34  and  N11_38
ROOT
HETATM    1  N9  UNL     1      19.730 -14.864  25.228  1.00  0.00    -0.224 N
ATOM      2  H9  UNL     1      19.953 -15.372  26.084  1.00  0.00     0.177 HD
HETATM    3  C18 UNL     1      20.712 -14.086  24.573  1.00  0.00     0.680 C
HETATM    4  N10 UNL     1      20.776 -12.810  24.741  1.00  0.00    -0.234 N
ATOM      5 1H10 UNL     1      21.485 -12.248  24.268  1.00  0.00     0.174 HD
ATOM      6 2H10 UNL     1      20.091 -12.387  25.367  1.00  0.00     0.174 HD
HETATM    7  N11 UNL     1      21.669 -14.676  23.701  1.00  0.00    -0.127 N
ATOM      8  H11 UNL     1      21.395 -15.444  23.088  1.00  0.00     0.197 HD
HETATM    9  C19 UNL     1      22.985 -14.205  23.683  1.00  0.00     0.196 C
HETATM   10  N12 UNL     1      24.092 -13.826  23.667  1.00  0.00    -0.171 NA
ENDROOT
BRANCH   1  11
HETATM   11  C17 UNL     1      18.402 -14.923  24.658  1.00  0.00     0.167 C
BRANCH  11  12
HETATM   12  C16 UNL     1      18.205 -16.281  24.044  1.00  0.00     0.275 C
BRANCH  12  13
HETATM   13  N4  UNL     1      17.906 -16.215  22.597  1.00  0.00     0.032 N
HETATM   14  C2  UNL     1      16.725 -16.976  22.330  1.00  0.00     0.187 C
HETATM   15  C1  UNL     1      15.310 -16.546  22.434  1.00  0.00     0.097 C
HETATM   16  N1  UNL     1      17.023 -18.181  21.966  1.00  0.00    -0.360 N
HETATM   17  C3  UNL     1      16.107 -19.233  21.627  1.00  0.00     0.151 C
HETATM   18  C4  UNL     1      18.447 -18.339  21.921  1.00  0.00     0.226 C
HETATM   19  C5  UNL     1      18.945 -16.938  21.978  1.00  0.00     0.302 C
BRANCH  19  20
HETATM   20  N2  UNL     1      20.062 -16.585  21.556  1.00  0.00    -0.309 NA
BRANCH  20  21
HETATM   21  N3  UNL     1      21.124 -16.483  20.887  1.00  0.00    -0.279 N
ATOM     22  H32 UNL     1      21.692 -16.977  21.574  1.00  0.00     0.191 HD
ATOM     23  H31 UNL     1      21.807 -16.262  20.163  1.00  0.00     0.191 HD
ENDBRANCH  20  21
ENDBRANCH  19  20
BRANCH  13  24
HETATM   24  C6  UNL     1      17.833 -14.835  22.291  1.00  0.00     0.256 C
BRANCH  24  25
HETATM   25  C7  UNL     1      17.944 -14.376  20.889  1.00  0.00     0.057 C
BRANCH  25  26
HETATM   26  C8  UNL     1      16.720 -13.697  20.408  1.00  0.00     0.238 C
BRANCH  26  27
HETATM   27  N5  UNL     1      16.935 -12.309  19.971  1.00  0.00    -0.066 N
HETATM   28  C9  UNL     1      16.266 -12.176  18.692  1.00  0.00     0.272 C
HETATM   29  C10 UNL     1      18.333 -12.029  19.785  1.00  0.00     0.272 C
BRANCH  27  30
HETATM   30  C11 UNL     1      16.335 -11.444  20.959  1.00  0.00     0.339 C
BRANCH  30  31
HETATM   31  C12 UNL     1      14.955 -11.815  21.332  1.00  0.00     0.262 C
HETATM   32  O1  UNL     1      14.745 -12.901  21.979  1.00  0.00    -0.271 OA
HETATM   33  N6  UNL     1      13.826 -11.034  21.017  1.00  0.00    -0.158 N
ATOM     34  H6  UNL     1      13.642 -10.756  20.053  1.00  0.00     0.187 HD
BRANCH  33  35
HETATM   35  C13 UNL     1      13.030 -10.678  21.962  1.00  0.00     0.684 A
HETATM   36  N7  UNL     1      12.908  -9.401  22.385  1.00  0.00    -0.200 N
HETATM   37  C14 UNL     1      12.002  -9.351  23.382  1.00  0.00     0.123 A
ATOM     38  H7  UNL     1      13.420  -8.602  22.011  1.00  0.00     0.183 HD
HETATM   39  C15 UNL     1      11.562 -10.633  23.568  1.00  0.00     0.123 A
HETATM   40  N8  UNL     1      12.200 -11.441  22.689  1.00  0.00    -0.200 N
ATOM     41  H8  UNL     1      12.073 -12.449  22.596  1.00  0.00     0.183 HD
ENDBRANCH  33  35
ENDBRANCH  30  31
ENDBRANCH  27  30
ENDBRANCH  26  27
ENDBRANCH  25  26
ENDBRANCH  24  25
ENDBRANCH  13  24
ENDBRANCH  12  13
ENDBRANCH  11  12
ENDBRANCH   1  11
TORSDOF 12
ENDMDL