MODEL 2
REMARK VINA RESULT: -9.508164068      1.286      1.766
REMARK  12 active torsions:
REMARK  status: ('A' for Active; 'I' for Inactive)
REMARK    1  A    between atoms: C2_3  and  C3_4
REMARK    2  A    between atoms: C3_4  and  N2_5
REMARK    3  A    between atoms: C6_8  and  C7_9
REMARK    4  A    between atoms: C7_9  and  C8_10
REMARK    5  A    between atoms: C8_10  and  N3_11
REMARK    6  A    between atoms: C10_13  and  N4_14
REMARK    7  A    between atoms: N7_22  and  O1_23
REMARK    8  A    between atoms: C13_28  and  C14_29
REMARK    9  A    between atoms: C14_29  and  C15_30
REMARK   10  A    between atoms: C15_30  and  C16_31
REMARK   11  A    between atoms: C16_31  and  N9_32
REMARK   12  A    between atoms: N9_32  and  C17_34
ROOT
HETATM    1  N2  UNL     1      17.257 -13.085  21.209  1.00  0.00    -0.271 N
HETATM    2  C4  UNL     1      16.067 -13.580  21.569  1.00  0.00     0.113 A
HETATM    3  C5  UNL     1      14.914 -12.862  21.333  1.00  0.00     0.027 A
HETATM    4  C6  UNL     1      14.924 -11.627  20.730  1.00  0.00    -0.036 A
HETATM    5  C11 UNL     1      16.193 -11.161  20.376  1.00  0.00     0.150 A
HETATM    6  N7  UNL     1      17.275 -11.891  20.624  1.00  0.00    -0.172 N
ENDROOT
BRANCH   1   7
HETATM    7  C3  UNL     1      18.494 -13.755  21.351  1.00  0.00     0.227 C
BRANCH   7   8
HETATM    8  C2  UNL     1      18.587 -14.833  22.330  1.00  0.00     0.104 A
HETATM    9  N1  UNL     1      18.401 -16.157  22.281  1.00  0.00    -0.338 N
HETATM   10  C1  UNL     1      18.075 -16.956  21.136  1.00  0.00     0.158 C
HETATM   11  C21 UNL     1      18.588 -16.708  23.504  1.00  0.00     0.062 A
HETATM   12  C12 UNL     1      18.905 -15.695  24.368  1.00  0.00     0.067 A
HETATM   13  C20 UNL     1      18.528 -18.003  23.990  1.00  0.00     0.032 A
HETATM   14  N8  UNL     1      18.900 -14.576  23.644  1.00  0.00    -0.342 N
HETATM   15  C13 UNL     1      19.167 -15.958  25.716  1.00  0.00    -0.029 A
ATOM     16  H8  UNL     1      19.102 -13.649  24.017  1.00  0.00     0.167 HD
HETATM   17  C18 UNL     1      19.101 -17.242  26.153  1.00  0.00     0.009 A
HETATM   18  C19 UNL     1      18.779 -18.301  25.304  1.00  0.00     0.003 A
BRANCH  15  19
HETATM   19  C14 UNL     1      19.504 -14.838  26.580  1.00  0.00     0.042 C
BRANCH  19  20
HETATM   20  C15 UNL     1      20.916 -14.346  26.560  1.00  0.00     0.024 C
BRANCH  20  21
HETATM   21  C16 UNL     1      21.029 -12.861  26.378  1.00  0.00     0.122 C
BRANCH  21  22
HETATM   22  N9  UNL     1      21.407 -12.486  25.053  1.00  0.00    -0.368 N
ATOM     23  H9  UNL     1      21.065 -11.599  24.683  1.00  0.00     0.161 HD
BRANCH  22  24
HETATM   24  C17 UNL     1      22.227 -13.280  24.233  1.00  0.00     0.348 C
HETATM   25  O2  UNL     1      21.816 -13.735  23.161  1.00  0.00    -0.284 OA
ENDBRANCH  22  24
ENDBRANCH  21  22
ENDBRANCH  20  21
ENDBRANCH  19  20
ENDBRANCH  15  19
ENDBRANCH   7   8
ENDBRANCH   1   7
BRANCH   6  26
HETATM   26  O1  UNL     1      18.474 -11.317  20.172  1.00  0.00    -0.268 OA
ATOM     27  H1  UNL     1      18.587 -11.061  19.264  1.00  0.00     0.247 HD
ENDBRANCH   6  26
BRANCH   4  28
HETATM   28  C7  UNL     1      13.757 -10.813  20.420  1.00  0.00     0.062 C
BRANCH  28  29
HETATM   29  C8  UNL     1      13.671  -9.482  21.124  1.00  0.00     0.154 C
BRANCH  29  30
HETATM   30  N3  UNL     1      12.826  -9.739  22.299  1.00  0.00    -0.285 N
HETATM   31  C9  UNL     1      12.114 -10.847  22.510  1.00  0.00     0.160 A
HETATM   32  C10 UNL     1      11.486 -10.701  23.721  1.00  0.00     0.132 A
HETATM   33  N5  UNL     1      11.844  -9.503  24.197  1.00  0.00    -0.270 N
HETATM   34  N6  UNL     1      12.659  -8.944  23.307  1.00  0.00    -0.239 N
ATOM     35  H5  UNL     1      11.546  -9.093  25.083  1.00  0.00     0.190 HD
ATOM     36  H6  UNL     1      13.090  -8.025  23.405  1.00  0.00     0.208 HD
BRANCH  32  37
HETATM   37  N4  UNL     1      10.706 -11.522  24.323  1.00  0.00    -0.383 N
ATOM     38  H42 UNL     1      10.328 -12.373  23.908  1.00  0.00     0.157 HD
ATOM     39  H41 UNL     1      10.339 -11.472  25.274  1.00  0.00     0.157 HD
ENDBRANCH  32  37
ENDBRANCH  29  30
ENDBRANCH  28  29
ENDBRANCH   4  28
TORSDOF 12
ENDMDL