MODEL 4
REMARK VINA RESULT: -7.804847547      1.886      3.466
REMARK  12 active torsions:
REMARK  status: ('A' for Active; 'I' for Inactive)
REMARK    1  A    between atoms: C2_2  and  C3_3
REMARK    2  A    between atoms: C3_3  and  C4_4
REMARK    3  A    between atoms: C4_4  and  C5_5
REMARK    4  A    between atoms: C5_5  and  C6_6
REMARK    5  A    between atoms: C6_6  and  N1_7
REMARK    6  A    between atoms: C9_10  and  C10_11
REMARK    7  A    between atoms: C10_11  and  C11_12
REMARK    8  A    between atoms: C11_12  and  C12_13
REMARK    9  A    between atoms: C12_13  and  C13_14
REMARK   10  A    between atoms: C13_14  and  C14_15
REMARK   11  A    between atoms: C16_19  and  N3_20
REMARK   12  A    between atoms: C21_32  and  N7_33
ROOT
HETATM    1  C11 UNL     1      18.867 -13.072  20.713  1.00  0.00     0.005 C
ENDROOT
BRANCH   1   2
HETATM    2  C10 UNL     1      20.043 -13.032  21.689  1.00  0.00     0.042 C
BRANCH   2   3
HETATM    3  C9  UNL     1      20.180 -14.254  22.448  1.00  0.00    -0.013 C
HETATM    4  C8  UNL     1      19.988 -15.460  21.767  1.00  0.00     0.028 C
HETATM    5  C7  UNL     1      19.460 -16.657  22.282  1.00  0.00     0.096 C
HETATM    6  N1  UNL     1      19.154 -16.942  23.560  1.00  0.00    -0.310 N
HETATM    7  C24 UNL     1      19.075 -16.070  24.578  1.00  0.00     0.327 C
HETATM    8  N8  UNL     1      19.697 -14.853  24.751  1.00  0.00    -0.294 N
HETATM    9  O1  UNL     1      18.309 -16.449  25.502  1.00  0.00    -0.246 OA
HETATM   10  C21 UNL     1      20.433 -14.165  23.799  1.00  0.00     0.112 C
ATOM     11  H8  UNL     1      19.607 -14.415  25.668  1.00  0.00     0.172 HD
BRANCH   6  12
HETATM   12  C6  UNL     1      18.878 -18.379  23.883  1.00  0.00     0.133 C
BRANCH  12  13
HETATM   13  C5  UNL     1      17.992 -18.831  22.772  1.00  0.00     0.020 C
BRANCH  13  14
HETATM   14  C4  UNL     1      16.563 -19.026  22.977  1.00  0.00     0.002 C
BRANCH  14  15
HETATM   15  C3  UNL     1      15.837 -18.588  24.165  1.00  0.00    -0.000 C
BRANCH  15  16
HETATM   16  C2  UNL     1      15.274 -19.645  25.030  1.00  0.00    -0.005 C
HETATM   17  C1  UNL     1      16.171 -19.970  26.221  1.00  0.00     0.005 C
ENDBRANCH  15  16
ENDBRANCH  14  15
ENDBRANCH  13  14
ENDBRANCH  12  13
ENDBRANCH   6  12
BRANCH  10  18
HETATM   18  N7  UNL     1      21.397 -13.499  24.246  1.00  0.00    -0.375 N
HETATM   19  C22 UNL     1      21.097 -12.411  25.152  1.00  0.00     0.150 C
HETATM   20  C23 UNL     1      22.777 -13.766  24.011  1.00  0.00     0.150 C
ENDBRANCH  10  18
ENDBRANCH   2   3
ENDBRANCH   1   2
BRANCH   1  21
HETATM   21  C12 UNL     1      18.174 -11.753  20.616  1.00  0.00     0.006 C
BRANCH  21  22
HETATM   22  C13 UNL     1      16.960 -11.954  19.716  1.00  0.00     0.061 C
BRANCH  22  23
HETATM   23  C14 UNL     1      15.751 -11.382  20.369  1.00  0.00     0.055 A
HETATM   24  C15 UNL     1      14.858 -12.169  20.990  1.00  0.00     0.102 A
HETATM   25  N2  UNL     1      14.840 -13.509  21.153  1.00  0.00    -0.188 N
HETATM   26  C18 UNL     1      13.732 -11.683  21.602  1.00  0.00     0.102 A
HETATM   27  C16 UNL     1      13.749 -13.864  21.842  1.00  0.00     0.678 A
ATOM     28  H2  UNL     1      15.550 -14.153  20.804  1.00  0.00     0.184 HD
HETATM   29  N4  UNL     1      13.070 -12.735  22.115  1.00  0.00    -0.188 N
ATOM     30  H4  UNL     1      12.191 -12.686  22.631  1.00  0.00     0.184 HD
HETATM   31  C19 UNL     1      13.495 -10.386  21.594  1.00  0.00     0.051 A
HETATM   32  C20 UNL     1      12.289  -9.864  22.251  1.00  0.00     0.072 C
HETATM   33  N5  UNL     1      14.429  -9.539  20.939  1.00  0.00    -0.303 N
HETATM   34  N6  UNL     1      15.586  -9.983  20.313  1.00  0.00    -0.302 N
ATOM     35  H5  UNL     1      14.237  -8.537  20.929  1.00  0.00     0.186 HD
ATOM     36  H6  UNL     1      16.251  -9.358  19.856  1.00  0.00     0.186 HD
BRANCH  27  37
HETATM   37  N3  UNL     1      13.401 -15.062  22.186  1.00  0.00    -0.230 N
HETATM   38  C17 UNL     1      14.209 -16.218  21.868  1.00  0.00     0.165 C
ATOM     39  H3  UNL     1      12.528 -15.195  22.697  1.00  0.00     0.177 HD
ENDBRANCH  27  37
ENDBRANCH  22  23
ENDBRANCH  21  22
ENDBRANCH   1  21
TORSDOF 12
ENDMDL