MODEL 4
REMARK VINA RESULT: -7.524298795      3.582      5.861
REMARK  15 active torsions:
REMARK  status: ('A' for Active; 'I' for Inactive)
REMARK    1  A    between atoms: C4_7  and  C5_8
REMARK    2  A    between atoms: C5_8  and  C6_9
REMARK    3  A    between atoms: C6_9  and  C7_10
REMARK    4  A    between atoms: C7_10  and  C8_11
REMARK    5  A    between atoms: C9_12  and  C10_13
REMARK    6  A    between atoms: C10_13  and  N3_14
REMARK    7  A    between atoms: N3_14  and  C12_16
REMARK    8  A    between atoms: N3_14  and  N7_26
REMARK    9  A    between atoms: C12_16  and  C13_17
REMARK   10  A    between atoms: C13_17  and  N4_18
REMARK   11  A    between atoms: N4_18  and  C14_20
REMARK   12  A    between atoms: C14_20  and  N5_22
REMARK   13  A    between atoms: N7_26  and  C16_28
REMARK   14  A    between atoms: C16_28  and  C17_29
REMARK   15  A    between atoms: C18_30  and  O1_31
ROOT
HETATM    1  N5  UNL     1      12.252 -11.816  22.532  1.00  0.00    -0.270 N
ATOM      2  H5  UNL     1      11.715 -12.683  22.543  1.00  0.00     0.180 HD
HETATM    3  C15 UNL     1      11.820 -10.748  23.319  1.00  0.00     0.184 C
HETATM    4  N6  UNL     1      11.472  -9.868  23.984  1.00  0.00    -0.172 NA
ENDROOT
BRANCH   1   5
HETATM    5  C14 UNL     1      13.397 -11.740  21.728  1.00  0.00     0.180 C
HETATM    6  S1  UNL     1      13.753 -10.342  20.980  1.00  0.00    -0.040 SA
BRANCH   5   7
HETATM    7  N4  UNL     1      14.225 -12.912  21.590  1.00  0.00    -0.365 N
ATOM      8  H4  UNL     1      13.874 -13.849  21.787  1.00  0.00     0.161 HD
BRANCH   7   9
HETATM    9  C13 UNL     1      15.581 -12.681  21.159  1.00  0.00     0.152 C
BRANCH   9  10
HETATM   10  C12 UNL     1      16.637 -13.179  22.081  1.00  0.00     0.285 C
BRANCH  10  11
HETATM   11  N3  UNL     1      17.568 -14.126  21.524  1.00  0.00     0.019 N
HETATM   12  C11 UNL     1      18.571 -13.549  20.663  1.00  0.00     0.303 C
BRANCH  11  13
HETATM   13  C10 UNL     1      18.256 -14.929  22.504  1.00  0.00     0.358 C
BRANCH  13  14
HETATM   14  C9  UNL     1      19.117 -14.075  23.304  1.00  0.00    -0.076 C
HETATM   15  C8  UNL     1      19.829 -13.358  23.996  1.00  0.00    -0.105 C
BRANCH  15  16
HETATM   16  C7  UNL     1      20.658 -12.486  24.829  1.00  0.00     0.094 C
BRANCH  16  17
HETATM   17  C6  UNL     1      21.843 -13.286  25.321  1.00  0.00     0.020 C
BRANCH  17  18
HETATM   18  C5  UNL     1      21.285 -14.214  26.401  1.00  0.00     0.077 C
BRANCH  18  19
HETATM   19  C4  UNL     1      21.568 -15.629  26.154  1.00  0.00     0.082 A
HETATM   20  N1  UNL     1      20.631 -16.613  26.050  1.00  0.00    -0.350 N
HETATM   21  C1  UNL     1      19.201 -16.479  26.152  1.00  0.00     0.156 C
HETATM   22  C2  UNL     1      21.267 -17.772  25.827  1.00  0.00     0.108 A
HETATM   23  C3  UNL     1      22.618 -17.503  25.794  1.00  0.00     0.106 A
HETATM   24  N2  UNL     1      22.770 -16.174  25.999  1.00  0.00    -0.354 N
ATOM     25  H2  UNL     1      23.659 -15.674  26.028  1.00  0.00     0.166 HD
ENDBRANCH  18  19
ENDBRANCH  17  18
ENDBRANCH  16  17
ENDBRANCH  15  16
ENDBRANCH  13  14
ENDBRANCH  11  13
BRANCH  11  26
HETATM   26  N7  UNL     1      16.773 -14.977  20.677  1.00  0.00    -0.225 N
ATOM     27  H7  UNL     1      16.406 -14.698  19.767  1.00  0.00     0.193 HD
BRANCH  26  28
HETATM   28  C16 UNL     1      16.567 -16.236  21.258  1.00  0.00     0.146 C
BRANCH  28  29
HETATM   29  C17 UNL     1      15.405 -16.981  20.776  1.00  0.00     0.084 A
HETATM   30  C18 UNL     1      14.140 -16.703  21.370  1.00  0.00     0.093 A
HETATM   31  C19 UNL     1      12.985 -17.300  21.005  1.00  0.00     0.040 A
HETATM   32  C20 UNL     1      13.027 -18.232  20.000  1.00  0.00     0.020 A
HETATM   33  C21 UNL     1      14.236 -18.496  19.433  1.00  0.00     0.091 A
HETATM   34  N8  UNL     1      15.416 -17.893  19.798  1.00  0.00    -0.358 N
HETATM   35  C22 UNL     1      16.552 -18.300  19.034  1.00  0.00     0.156 C
BRANCH  30  36
HETATM   36  O1  UNL     1      14.158 -15.751  22.383  1.00  0.00    -0.358 OA
ATOM     37  H1  UNL     1      13.484 -15.085  22.323  1.00  0.00     0.217 HD
ENDBRANCH  30  36
ENDBRANCH  28  29
ENDBRANCH  26  28
ENDBRANCH  11  26
ENDBRANCH  10  11
ENDBRANCH   9  10
ENDBRANCH   7   9
ENDBRANCH   5   7
ENDBRANCH   1   5
TORSDOF 15
ENDMDL