MODEL 4
REMARK VINA RESULT: -6.491308831      1.361      1.947
REMARK  10 active torsions:
REMARK  status: ('A' for Active; 'I' for Inactive)
REMARK    1  A    between atoms: C2_2  and  N1_3
REMARK    2  A    between atoms: N1_3  and  C3_4
REMARK    3  A    between atoms: C3_4  and  C4_5
REMARK    4  A    between atoms: C4_5  and  C5_6
REMARK    5  A    between atoms: C4_5  and  C10_19
REMARK    6  A    between atoms: C5_6  and  C6_7
REMARK    7  A    between atoms: C6_7  and  N3_10
REMARK       I    between atoms: C8_12  and  N5_14
REMARK    8  A    between atoms: C10_19  and  N8_20
REMARK    9  A    between atoms: C15_25  and  C16_26
REMARK   10  A    between atoms: C16_26  and  N9_27
ROOT
HETATM    1  C6  UNL     1      15.848 -15.637  21.887  1.00  0.00     0.192 C
HETATM    2  C7  UNL     1      14.711 -16.481  21.784  1.00  0.00     0.084 C
HETATM    3  N2  UNL     1      13.786 -17.133  21.702  1.00  0.00    -0.195 NA
ENDROOT
BRANCH   1   4
HETATM    4  C5  UNL     1      17.207 -16.183  21.671  1.00  0.00     0.048 C
BRANCH   4   5
HETATM    5  C4  UNL     1      18.163 -16.276  22.791  1.00  0.00     0.043 C
BRANCH   5   6
HETATM    6  C3  UNL     1      19.518 -15.815  22.827  1.00  0.00     0.247 C
BRANCH   6   7
HETATM    7  N1  UNL     1      20.051 -14.604  23.327  1.00  0.00    -0.041 N
HETATM    8  C13 UNL     1      19.596 -14.385  24.710  1.00  0.00     0.289 C
HETATM    9  C14 UNL     1      20.206 -15.476  25.519  1.00  0.00     0.063 C
HETATM   10  N10 UNL     1      20.134 -13.153  25.176  1.00  0.00    -0.375 N
HETATM   11  C15 UNL     1      21.405 -15.953  24.668  1.00  0.00     0.047 C
HETATM   12  C20 UNL     1      21.475 -14.859  23.689  1.00  0.00     0.203 C
HETATM   13  C21 UNL     1      22.191 -13.633  24.110  1.00  0.00     0.078 C
HETATM   14  C22 UNL     1      21.322 -12.770  24.925  1.00  0.00     0.059 C
ATOM     15  H10 UNL     1      19.538 -12.546  25.739  1.00  0.00     0.160 HD
BRANCH   7  16
HETATM   16  C2  UNL     1      19.837 -13.501  22.502  1.00  0.00     0.236 C
HETATM   17  C1  UNL     1      19.914 -13.783  21.010  1.00  0.00     0.035 C
ENDBRANCH   7  16
BRANCH  11  18
HETATM   18  C16 UNL     1      22.472 -16.238  25.637  1.00  0.00     0.242 C
BRANCH  18  19
HETATM   19  N9  UNL     1      23.526 -17.127  25.267  1.00  0.00    -0.078 N
HETATM   20  C17 UNL     1      24.041 -17.787  26.465  1.00  0.00     0.271 C
HETATM   21  C18 UNL     1      24.609 -16.599  24.513  1.00  0.00     0.271 C
HETATM   22  C19 UNL     1      22.958 -18.270  24.487  1.00  0.00     0.271 C
ENDBRANCH  18  19
ENDBRANCH  11  18
ENDBRANCH   6   7
ENDBRANCH   5   6
BRANCH   5  23
HETATM   23  C10 UNL     1      18.137 -17.753  23.327  1.00  0.00     0.277 C
BRANCH  23  24
HETATM   24  N8  UNL     1      17.380 -17.842  24.529  1.00  0.00     0.080 N
HETATM   25  C11 UNL     1      18.207 -18.450  25.535  1.00  0.00     0.309 C
HETATM   26  C12 UNL     1      16.143 -18.546  24.408  1.00  0.00     0.309 C
ENDBRANCH  23  24
ENDBRANCH   5  23
ENDBRANCH   4   5
ENDBRANCH   1   4
BRANCH   1  27
HETATM   27  N3  UNL     1      15.710 -14.542  20.929  1.00  0.00    -0.347 N
HETATM   28  C8  UNL     1      15.980 -13.334  21.084  1.00  0.00     0.191 C
HETATM   29  N4  UNL     1      16.491 -12.828  22.298  1.00  0.00    -0.063 NA
HETATM   30  N5  UNL     1      15.769 -12.426  20.014  1.00  0.00    -0.307 N
HETATM   31  C9  UNL     1      14.631 -11.788  19.966  1.00  0.00     0.203 C
ATOM     32  H5  UNL     1      16.486 -12.276  19.304  1.00  0.00     0.170 HD
HETATM   33  N6  UNL     1      13.631 -11.985  20.942  1.00  0.00    -0.066 NA
HETATM   34  N7  UNL     1      14.349 -10.860  18.920  1.00  0.00    -0.066 NA
ATOM     35  H3  UNL     1      15.345 -14.800  20.012  1.00  0.00     0.163 HD
ENDBRANCH   1  27
TORSDOF 10
ENDMDL