MODEL 2
REMARK VINA RESULT: -6.882695635      1.487      1.974
REMARK  15 active torsions:
REMARK  status: ('A' for Active; 'I' for Inactive)
REMARK    1  A    between atoms: C3_3  and  C4_4
REMARK    2  A    between atoms: C4_4  and  C5_5
REMARK    3  A    between atoms: C5_5  and  C6_6
REMARK    4  A    between atoms: C7_7  and  C8_8
REMARK    5  A    between atoms: C9_9  and  C10_10
REMARK    6  A    between atoms: C10_10  and  N1_12
REMARK    7  A    between atoms: N1_12  and  C12_15
REMARK    8  A    between atoms: C12_15  and  C13_16
REMARK    9  A    between atoms: C12_15  and  C19_32
REMARK   10  A    between atoms: C13_16  and  O1_17
REMARK   11  A    between atoms: C13_16  and  N2_19
REMARK       I    between atoms: N2_19  and  C14_20
REMARK       I    between atoms: C14_20  and  N4_22
REMARK   12  A    between atoms: N4_22  and  C15_24
REMARK   13  A    between atoms: C15_24  and  C16_25
REMARK   14  A    between atoms: C16_25  and  C17_26
REMARK   15  A    between atoms: C17_26  and  N5_27
ROOT
HETATM    1  C1  UNL     1      23.693 -13.721  23.955  1.00  0.00     0.012 C
HETATM    2  C2  UNL     1      22.524 -13.440  24.079  1.00  0.00    -0.117 C
HETATM    3  C3  UNL     1      21.093 -13.094  24.237  1.00  0.00     0.094 C
ENDROOT
BRANCH   3   4
HETATM    4  C4  UNL     1      21.002 -12.399  25.592  1.00  0.00     0.024 C
BRANCH   4   5
HETATM    5  C5  UNL     1      20.932 -13.496  26.631  1.00  0.00     0.096 C
BRANCH   5   6
HETATM    6  C6  UNL     1      20.049 -14.540  26.063  1.00  0.00    -0.092 C
HETATM    7  C7  UNL     1      19.334 -15.384  25.581  1.00  0.00    -0.015 C
BRANCH   7   8
HETATM    8  C8  UNL     1      18.495 -16.362  24.996  1.00  0.00    -0.013 C
HETATM    9  C9  UNL     1      17.759 -17.185  24.496  1.00  0.00    -0.059 C
BRANCH   9  10
HETATM   10  C10 UNL     1      16.846 -18.168  23.903  1.00  0.00     0.262 C
HETATM   11  C11 UNL     1      16.295 -19.034  25.002  1.00  0.00     0.054 C
BRANCH  10  12
HETATM   12  N1  UNL     1      15.835 -17.430  23.203  1.00  0.00    -0.044 N
ATOM     13  H12 UNL     1      14.961 -17.420  23.729  1.00  0.00     0.279 HD
ATOM     14  H11 UNL     1      16.044 -16.432  23.208  1.00  0.00     0.279 HD
BRANCH  12  15
HETATM   15  C12 UNL     1      15.618 -17.912  21.838  1.00  0.00     0.332 C
BRANCH  15  16
HETATM   16  C13 UNL     1      15.892 -16.688  20.990  1.00  0.00     0.229 C
BRANCH  16  17
HETATM   17  O1  UNL     1      15.817 -16.913  19.697  1.00  0.00    -0.337 OA
ATOM     18  H1  UNL     1      15.282 -16.283  19.230  1.00  0.00     0.220 HD
ENDBRANCH  16  17
BRANCH  16  19
HETATM   19  N2  UNL     1      16.185 -15.455  21.392  1.00  0.00    -0.351 NA
HETATM   20  C14 UNL     1      16.455 -14.369  21.751  1.00  0.00     0.265 C
HETATM   21  N3  UNL     1      17.773 -14.038  22.226  1.00  0.00    -0.049 NA
HETATM   22  N4  UNL     1      15.544 -13.238  21.765  1.00  0.00    -0.353 N
ATOM     23  H4  UNL     1      14.832 -13.155  22.490  1.00  0.00     0.163 HD
BRANCH  22  24
HETATM   24  C15 UNL     1      15.663 -12.246  20.746  1.00  0.00     0.125 C
BRANCH  24  25
HETATM   25  C16 UNL     1      14.375 -11.695  20.227  1.00  0.00     0.039 C
BRANCH  25  26
HETATM   26  C17 UNL     1      13.228 -11.755  21.187  1.00  0.00     0.123 C
BRANCH  26  27
HETATM   27  N5  UNL     1      12.999 -10.469  21.840  1.00  0.00    -0.367 N
HETATM   28  C18 UNL     1      12.206 -10.363  22.853  1.00  0.00     0.196 C
HETATM   29  N6  UNL     1      12.018  -9.095  23.449  1.00  0.00    -0.067 NA
HETATM   30  N7  UNL     1      11.498 -11.464  23.411  1.00  0.00    -0.067 NA
ATOM     31  H5  UNL     1      13.474  -9.638  21.487  1.00  0.00     0.161 HD
ENDBRANCH  26  27
ENDBRANCH  25  26
ENDBRANCH  24  25
ENDBRANCH  22  24
ENDBRANCH  16  19
ENDBRANCH  15  16
BRANCH  15  32
HETATM   32  C19 UNL     1      14.131 -18.267  21.825  1.00  0.00     0.365 C
HETATM   33  O2  UNL     1      13.370 -17.224  21.378  1.00  0.00    -0.355 OA
HETATM   34  C20 UNL     1      12.568 -17.717  20.387  1.00  0.00     0.198 C
HETATM   35  C21 UNL     1      12.370 -19.194  20.744  1.00  0.00     0.266 C
HETATM   36  N8  UNL     1      13.724 -19.464  21.269  1.00  0.00    -0.044 N
HETATM   37  C22 UNL     1      13.573 -20.547  22.277  1.00  0.00     0.275 C
HETATM   38  C23 UNL     1      14.467 -20.001  20.173  1.00  0.00     0.275 C
ENDBRANCH  15  32
ENDBRANCH  12  15
ENDBRANCH  10  12
ENDBRANCH   9  10
ENDBRANCH   7   8
ENDBRANCH   5   6
ENDBRANCH   4   5
ENDBRANCH   3   4
TORSDOF 15
ENDMDL