MODEL 4
REMARK VINA RESULT: -6.737535906      3.466      6.326
REMARK  13 active torsions:
REMARK  status: ('A' for Active; 'I' for Inactive)
REMARK    1  A    between atoms: C3_3  and  C4_4
REMARK    2  A    between atoms: C4_4  and  N1_5
REMARK    3  A    between atoms: N1_5  and  C5_6
REMARK    4  A    between atoms: C5_6  and  C6_7
REMARK    5  A    between atoms: C6_7  and  N2_8
REMARK       I    between atoms: N2_8  and  C7_10
REMARK    6  A    between atoms: N4_12  and  C8_14
REMARK    7  A    between atoms: C8_14  and  C9_15
REMARK    8  A    between atoms: C9_15  and  C10_16
REMARK    9  A    between atoms: C10_16  and  C11_17
REMARK   10  A    between atoms: C11_17  and  N5_18
REMARK   11  A    between atoms: N6_25  and  N7_27
REMARK   12  A    between atoms: C19_33  and  O1_34
REMARK   13  A    between atoms: C21_37  and  O2_38
ROOT
HETATM    1  C1  UNL     1      16.441 -12.372  19.522  1.00  0.00     0.112 C
HETATM    2  C2  UNL     1      16.983 -13.213  20.588  1.00  0.00    -0.109 C
HETATM    3  C3  UNL     1      17.436 -13.917  21.455  1.00  0.00    -0.079 C
ENDROOT
BRANCH   3   4
HETATM    4  C4  UNL     1      17.971 -14.741  22.510  1.00  0.00     0.331 C
BRANCH   4   5
HETATM    5  N1  UNL     1      19.397 -14.579  22.758  1.00  0.00    -0.048 N
HETATM    6  C15 UNL     1      19.575 -13.197  23.072  1.00  0.00     0.245 C
HETATM    7  C16 UNL     1      20.914 -12.823  23.533  1.00  0.00     0.082 C
HETATM    8  C17 UNL     1      21.741 -13.988  23.864  1.00  0.00     0.015 C
HETATM    9  N6  UNL     1      23.023 -13.873  23.708  1.00  0.00    -0.294 N
HETATM   10  C18 UNL     1      21.124 -15.229  24.352  1.00  0.00     0.095 C
ATOM     11  H6  UNL     1      23.375 -12.979  23.365  1.00  0.00     0.187 HD
HETATM   12  C19 UNL     1      21.066 -15.199  25.885  1.00  0.00     0.132 C
HETATM   13  C22 UNL     1      19.737 -15.439  23.895  1.00  0.00     0.232 C
HETATM   14  C20 UNL     1      19.748 -15.903  26.198  1.00  0.00     0.066 C
HETATM   15  C21 UNL     1      18.881 -15.351  25.073  1.00  0.00     0.152 C
BRANCH   5  16
HETATM   16  C5  UNL     1      20.138 -15.075  21.644  1.00  0.00     0.258 C
BRANCH  16  17
HETATM   17  C6  UNL     1      20.164 -16.510  21.344  1.00  0.00     0.150 C
BRANCH  17  18
HETATM   18  N2  UNL     1      21.407 -17.114  20.959  1.00  0.00    -0.363 N
HETATM   19  C7  UNL     1      22.278 -17.609  21.993  1.00  0.00     0.184 C
HETATM   20  N3  UNL     1      23.648 -17.320  21.937  1.00  0.00    -0.064 NA
HETATM   21  N4  UNL     1      21.766 -18.298  22.929  1.00  0.00    -0.365 N
ATOM     22  H4  UNL     1      20.761 -18.469  22.905  1.00  0.00     0.162 HD
ATOM     23  H2  UNL     1      21.668 -17.189  19.975  1.00  0.00     0.162 HD
BRANCH  21  24
HETATM   24  C8  UNL     1      22.523 -18.854  24.024  1.00  0.00     0.122 C
BRANCH  24  25
HETATM   25  C9  UNL     1      21.570 -19.199  25.146  1.00  0.00     0.021 C
BRANCH  25  26
HETATM   26  C10 UNL     1      20.133 -19.187  24.728  1.00  0.00     0.029 C
BRANCH  26  27
HETATM   27  C11 UNL     1      19.198 -19.582  25.832  1.00  0.00     0.236 C
BRANCH  27  28
HETATM   28  N5  UNL     1      17.962 -20.147  25.326  1.00  0.00    -0.079 N
HETATM   29  C12 UNL     1      16.846 -19.874  26.210  1.00  0.00     0.271 C
HETATM   30  C13 UNL     1      17.719 -19.614  24.009  1.00  0.00     0.271 C
HETATM   31  C14 UNL     1      18.138 -21.601  25.218  1.00  0.00     0.271 C
ENDBRANCH  27  28
ENDBRANCH  26  27
ENDBRANCH  25  26
ENDBRANCH  24  25
ENDBRANCH  21  24
ENDBRANCH  17  18
ENDBRANCH  16  17
ENDBRANCH   5  16
BRANCH   9  32
HETATM   32  N7  UNL     1      23.947 -14.860  23.967  1.00  0.00    -0.249 N
HETATM   33  N8  UNL     1      25.056 -14.910  23.373  1.00  0.00    -0.331 N
ATOM     34  H82 UNL     1      25.261 -14.189  22.682  1.00  0.00     0.178 HD
ATOM     35  H81 UNL     1      25.741 -15.641  23.565  1.00  0.00     0.178 HD
ATOM     36  H7  UNL     1      23.727 -15.573  24.661  1.00  0.00     0.207 HD
ENDBRANCH   9  32
BRANCH  12  37
HETATM   37  O1  UNL     1      22.149 -15.830  26.442  1.00  0.00    -0.395 OA
ATOM     38  H1  UNL     1      22.934 -15.701  25.922  1.00  0.00     0.210 HD
ENDBRANCH  12  37
BRANCH  15  39
HETATM   39  O2  UNL     1      17.757 -16.188  25.087  1.00  0.00    -0.393 OA
ATOM     40  H2  UNL     1      18.120 -17.048  24.908  1.00  0.00     0.210 HD
ENDBRANCH  15  39
ENDBRANCH   4   5
ENDBRANCH   3   4
TORSDOF 13
ENDMDL