MODEL 4
REMARK VINA RESULT: -6.158192696      2.256      7.319
REMARK  12 active torsions:
REMARK  status: ('A' for Active; 'I' for Inactive)
REMARK    1  A    between atoms: C3_3  and  N1_4
REMARK    2  A    between atoms: N1_4  and  C4_5
REMARK       I    between atoms: N1_4  and  C20_36
REMARK    3  A    between atoms: C4_5  and  C5_6
REMARK    4  A    between atoms: C5_6  and  N2_7
REMARK    5  A    between atoms: N2_7  and  C6_8
REMARK    6  A    between atoms: C6_8  and  C7_9
REMARK    7  A    between atoms: C7_9  and  N3_10
REMARK    8  A    between atoms: N3_10  and  C8_12
REMARK    9  A    between atoms: C9_17  and  N6_18
REMARK   10  A    between atoms: N6_18  and  C10_20
REMARK   11  A    between atoms: C10_20  and  C11_21
REMARK   12  A    between atoms: C11_21  and  N7_22
ROOT
HETATM    1  C1  UNL     1      18.616 -11.690  20.265  1.00  0.00     0.014 C
HETATM    2  C2  UNL     1      17.629 -12.184  19.793  1.00  0.00    -0.098 C
HETATM    3  C3  UNL     1      16.421 -12.791  19.187  1.00  0.00     0.219 C
ENDROOT
BRANCH   3   4
HETATM    4  N1  UNL     1      15.620 -11.685  18.697  1.00  0.00    -0.340 N
HETATM    5  C20 UNL     1      15.456 -11.499  17.301  1.00  0.00     0.216 C
HETATM    6  C21 UNL     1      16.059 -12.372  16.283  1.00  0.00     0.117 C
HETATM    7  O2  UNL     1      14.754 -10.528  16.920  1.00  0.00    -0.274 OA
BRANCH   4   8
HETATM    8  C4  UNL     1      14.993 -10.780  19.659  1.00  0.00     0.154 C
BRANCH   8   9
HETATM    9  C5  UNL     1      13.672 -11.369  19.998  1.00  0.00     0.257 C
BRANCH   9  10
HETATM   10  N2  UNL     1      13.426 -11.635  21.395  1.00  0.00    -0.064 N
HETATM   11  C17 UNL     1      12.035 -11.404  21.682  1.00  0.00     0.239 C
HETATM   12  C18 UNL     1      12.315  -9.912  21.668  1.00  0.00     0.056 C
HETATM   13  C19 UNL     1      13.699 -10.382  22.110  1.00  0.00     0.239 C
BRANCH  10  14
HETATM   14  C6  UNL     1      14.037 -12.800  21.878  1.00  0.00     0.257 C
BRANCH  14  15
HETATM   15  C7  UNL     1      13.308 -14.089  21.805  1.00  0.00     0.166 C
BRANCH  15  16
HETATM   16  N3  UNL     1      14.026 -15.234  22.325  1.00  0.00    -0.223 N
ATOM     17  H3  UNL     1      13.703 -15.688  23.179  1.00  0.00     0.177 HD
BRANCH  16  18
HETATM   18  C8  UNL     1      15.062 -15.684  21.724  1.00  0.00     0.707 A
HETATM   19  N4  UNL     1      15.126 -16.524  20.683  1.00  0.00    -0.117 N
HETATM   20  N5  UNL     1      16.421 -16.721  20.382  1.00  0.00    -0.117 N
ATOM     21  H4  UNL     1      14.330 -16.943  20.203  1.00  0.00     0.206 HD
HETATM   22  C9  UNL     1      17.192 -16.008  21.227  1.00  0.00     0.707 A
ATOM     23  H5  UNL     1      16.766 -17.317  19.630  1.00  0.00     0.206 HD
HETATM   24  N9  UNL     1      16.338 -15.379  22.041  1.00  0.00    -0.020 N
ATOM     25  H9  UNL     1      16.613 -14.755  22.799  1.00  0.00     0.203 HD
BRANCH  22  26
HETATM   26  N6  UNL     1      18.502 -15.950  21.240  1.00  0.00    -0.223 N
ATOM     27  H6  UNL     1      19.045 -16.658  20.745  1.00  0.00     0.177 HD
BRANCH  26  28
HETATM   28  C10 UNL     1      19.182 -14.886  21.952  1.00  0.00     0.166 C
BRANCH  28  29
HETATM   29  C11 UNL     1      19.725 -15.461  23.217  1.00  0.00     0.257 C
BRANCH  29  30
HETATM   30  N7  UNL     1      20.654 -14.609  23.913  1.00  0.00    -0.060 N
HETATM   31  C12 UNL     1      20.863 -13.435  23.060  1.00  0.00     0.273 C
HETATM   32  C13 UNL     1      21.939 -15.192  24.134  1.00  0.00     0.257 C
HETATM   33  C14 UNL     1      22.057 -15.931  25.466  1.00  0.00     0.150 C
HETATM   34  N8  UNL     1      21.933 -14.905  26.485  1.00  0.00    -0.358 N
HETATM   35  C15 UNL     1      20.964 -13.896  26.227  1.00  0.00     0.243 C
ATOM     36  H8  UNL     1      22.503 -14.907  27.331  1.00  0.00     0.162 HD
HETATM   37  O1  UNL     1      20.897 -12.840  26.894  1.00  0.00    -0.272 OA
HETATM   38  C16 UNL     1      20.014 -14.145  25.116  1.00  0.00     0.339 C
ENDBRANCH  29  30
ENDBRANCH  28  29
ENDBRANCH  26  28
ENDBRANCH  22  26
ENDBRANCH  16  18
ENDBRANCH  15  16
ENDBRANCH  14  15
ENDBRANCH  10  14
ENDBRANCH   9  10
ENDBRANCH   8   9
ENDBRANCH   4   8
ENDBRANCH   3   4
TORSDOF 12
ENDMDL