MODEL 2
REMARK VINA RESULT: -6.445003305      2.406      7.699
REMARK  14 active torsions:
REMARK  status: ('A' for Active; 'I' for Inactive)
REMARK    1  A    between atoms: C2_2  and  C3_3
REMARK    2  A    between atoms: C3_3  and  N1_4
REMARK       I    between atoms: N1_4  and  C4_6
REMARK    3  A    between atoms: C4_6  and  C5_8
REMARK    4  A    between atoms: C5_8  and  N2_9
REMARK    5  A    between atoms: N3_12  and  C8_13
REMARK    6  A    between atoms: C8_13  and  C9_14
REMARK    7  A    between atoms: C9_14  and  C10_15
REMARK    8  A    between atoms: C10_15  and  C11_16
REMARK    9  A    between atoms: N4_19  and  C14_20
REMARK   10  A    between atoms: C16_22  and  C17_23
REMARK   11  A    between atoms: C18_24  and  C19_25
REMARK   12  A    between atoms: C20_29  and  N6_30
REMARK   13  A    between atoms: N6_30  and  O2_32
REMARK   14  A    between atoms: C24_36  and  O3_37
ROOT
HETATM    1  C9  UNL     1      20.173 -14.369  21.672  1.00  0.00     0.033 C
ENDROOT
BRANCH   1   2
HETATM    2  C8  UNL     1      20.520 -13.241  22.630  1.00  0.00     0.243 C
BRANCH   2   3
HETATM    3  N3  UNL     1      20.735 -13.824  23.911  1.00  0.00    -0.011 N
HETATM    4  C7  UNL     1      20.885 -12.853  24.973  1.00  0.00     0.271 C
HETATM    5  C6  UNL     1      20.494 -13.628  26.245  1.00  0.00     0.276 C
HETATM    6  N2  UNL     1      20.214 -14.922  25.737  1.00  0.00     0.014 N
HETATM    7  C23 UNL     1      21.451 -15.524  25.279  1.00  0.00     0.276 C
HETATM    8  C24 UNL     1      19.614 -14.587  24.424  1.00  0.00     0.536 C
HETATM    9  C22 UNL     1      21.802 -14.769  24.005  1.00  0.00     0.271 C
BRANCH   6  10
HETATM   10  C5  UNL     1      19.363 -15.779  26.448  1.00  0.00     0.281 C
BRANCH  10  11
HETATM   11  C4  UNL     1      19.017 -17.053  25.863  1.00  0.00     0.265 C
HETATM   12  N1  UNL     1      18.078 -17.122  24.797  1.00  0.00    -0.353 N
ATOM     13  H1  UNL     1      17.657 -16.258  24.455  1.00  0.00     0.163 HD
HETATM   14  O1  UNL     1      19.517 -18.122  26.261  1.00  0.00    -0.267 OA
BRANCH  12  15
HETATM   15  C3  UNL     1      17.699 -18.378  24.181  1.00  0.00     0.149 C
BRANCH  15  16
HETATM   16  C2  UNL     1      16.390 -18.864  24.682  1.00  0.00    -0.018 C
HETATM   17  C1  UNL     1      15.309 -18.863  23.932  1.00  0.00     0.008 C
ENDBRANCH  15  16
ENDBRANCH  12  15
ENDBRANCH  10  11
ENDBRANCH   6  10
BRANCH   8  18
HETATM   18  O3  UNL     1      18.454 -13.869  24.570  1.00  0.00    -0.348 OA
ATOM     19  H3  UNL     1      17.691 -14.398  24.369  1.00  0.00     0.214 HD
ENDBRANCH   8  18
ENDBRANCH   2   3
ENDBRANCH   1   2
BRANCH   1  20
HETATM   20  C10 UNL     1      19.217 -13.848  20.666  1.00  0.00     0.042 C
BRANCH  20  21
HETATM   21  C11 UNL     1      17.833 -14.229  20.928  1.00  0.00    -0.030 A
HETATM   22  C12 UNL     1      17.631 -15.561  21.239  1.00  0.00     0.026 A
HETATM   23  C13 UNL     1      16.430 -16.068  21.597  1.00  0.00     0.092 A
HETATM   24  N4  UNL     1      15.375 -15.246  21.654  1.00  0.00    -0.349 N
HETATM   25  C16 UNL     1      15.541 -13.915  21.349  1.00  0.00     0.113 A
HETATM   26  C20 UNL     1      16.731 -13.362  20.982  1.00  0.00     0.078 A
BRANCH  24  27
HETATM   27  C14 UNL     1      14.080 -15.799  22.046  1.00  0.00     0.124 C
HETATM   28  C15 UNL     1      13.730 -16.998  21.196  1.00  0.00     0.027 C
ENDBRANCH  24  27
BRANCH  25  29
HETATM   29  C17 UNL     1      14.296 -13.172  21.484  1.00  0.00    -0.041 C
HETATM   30  C18 UNL     1      13.276 -12.521  21.622  1.00  0.00    -0.055 C
BRANCH  30  31
HETATM   31  C19 UNL     1      12.063 -11.777  21.778  1.00  0.00     0.146 C
HETATM   32  N5  UNL     1      11.397 -11.810  22.879  1.00  0.00    -0.401 N
ATOM     33  H52 UNL     1      11.755 -12.381  23.645  1.00  0.00     0.156 HD
ATOM     34  H51 UNL     1      10.532 -11.280  22.990  1.00  0.00     0.156 HD
ENDBRANCH  30  31
ENDBRANCH  25  29
BRANCH  26  35
HETATM   35  N6  UNL     1      16.974 -12.059  20.584  1.00  0.00    -0.166 NA
HETATM   36  C21 UNL     1      16.677 -11.670  19.254  1.00  0.00     0.150 C
BRANCH  35  37
HETATM   37  O2  UNL     1      16.336 -11.143  21.426  1.00  0.00    -0.308 OA
ATOM     38  H2  UNL     1      16.043 -10.378  20.945  1.00  0.00     0.237 HD
ENDBRANCH  35  37
ENDBRANCH  26  35
ENDBRANCH  20  21
ENDBRANCH   1  20
TORSDOF 14
ENDMDL