MODEL 2
REMARK VINA RESULT: -7.039241305      3.894      7.977
REMARK  10 active torsions:
REMARK  status: ('A' for Active; 'I' for Inactive)
REMARK       I    between atoms: C2_2  and  N1_4
REMARK    1  A    between atoms: C4_7  and  N2_8
REMARK       I    between atoms: N2_8  and  C5_10
REMARK    2  A    between atoms: C5_10  and  C6_12
REMARK    3  A    between atoms: C6_12  and  C7_13
REMARK    4  A    between atoms: C7_13  and  C8_14
REMARK    5  A    between atoms: C8_14  and  S1_15
REMARK    6  A    between atoms: C14_22  and  C15_23
REMARK    7  A    between atoms: C16_24  and  C17_25
REMARK    8  A    between atoms: C17_25  and  C18_26
REMARK    9  A    between atoms: C18_26  and  N4_27
REMARK       I    between atoms: C19_29  and  N6_31
REMARK   10  A    between atoms: N6_31  and  N7_33
ROOT
HETATM    1  C1  UNL     1      20.215 -13.214  24.717  1.00  0.00     0.117 C
HETATM    2  C2  UNL     1      20.174 -13.427  23.251  1.00  0.00     0.217 C
HETATM    3  O1  UNL     1      21.310 -13.383  22.661  1.00  0.00    -0.274 OA
HETATM    4  N1  UNL     1      19.055 -13.665  22.470  1.00  0.00    -0.330 N
ATOM      5  H1  UNL     1      18.444 -12.858  22.344  1.00  0.00     0.168 HD
HETATM    6  C3  UNL     1      18.663 -14.720  21.885  1.00  0.00     0.048 C
HETATM    7  C4  UNL     1      19.199 -16.080  21.787  1.00  0.00     0.159 C
HETATM    8  C11 UNL     1      17.902 -16.885  21.948  1.00  0.00     0.268 C
HETATM    9  N3  UNL     1      16.869 -16.047  21.380  1.00  0.00    -0.060 N
HETATM   10  C12 UNL     1      15.694 -16.002  22.228  1.00  0.00     0.273 C
HETATM   11  C13 UNL     1      16.406 -16.647  20.117  1.00  0.00     0.273 C
HETATM   12  C14 UNL     1      17.409 -14.766  21.079  1.00  0.00     0.259 C
ENDROOT
BRANCH  12  13
HETATM   13  C15 UNL     1      16.504 -13.641  21.405  1.00  0.00     0.008 C
HETATM   14  C16 UNL     1      16.258 -12.707  20.492  1.00  0.00    -0.023 C
BRANCH  14  15
HETATM   15  C17 UNL     1      15.326 -11.554  20.836  1.00  0.00     0.071 C
BRANCH  15  16
HETATM   16  C18 UNL     1      13.962 -12.146  20.982  1.00  0.00     0.067 C
BRANCH  16  17
HETATM   17  N4  UNL     1      13.196 -11.776  22.096  1.00  0.00    -0.343 N
HETATM   18  C19 UNL     1      12.490 -10.773  22.294  1.00  0.00     0.207 C
HETATM   19  N5  UNL     1      12.300  -9.730  21.377  1.00  0.00    -0.062 NA
HETATM   20  N6  UNL     1      11.802 -10.647  23.553  1.00  0.00    -0.259 N
ATOM     21  H6  UNL     1      12.007  -9.843  24.147  1.00  0.00     0.191 HD
ATOM     22  H4  UNL     1      13.223 -12.439  22.871  1.00  0.00     0.167 HD
BRANCH  20  23
HETATM   23  N7  UNL     1      10.873 -11.579  23.984  1.00  0.00    -0.247 N
HETATM   24  N8  UNL     1      10.908 -12.152  25.112  1.00  0.00    -0.331 N
ATOM     25  H82 UNL     1      11.678 -11.900  25.733  1.00  0.00     0.178 HD
ATOM     26  H81 UNL     1      10.224 -12.839  25.429  1.00  0.00     0.178 HD
ATOM     27  H7  UNL     1      10.111 -11.820  23.351  1.00  0.00     0.207 HD
ENDBRANCH  20  23
ENDBRANCH  16  17
ENDBRANCH  15  16
ENDBRANCH  14  15
ENDBRANCH  12  13
BRANCH   7  28
HETATM   28  N2  UNL     1      20.181 -16.436  22.739  1.00  0.00    -0.350 N
HETATM   29  C5  UNL     1      21.438 -16.923  22.324  1.00  0.00     0.218 C
HETATM   30  O2  UNL     1      21.716 -17.049  21.111  1.00  0.00    -0.274 OA
ATOM     31  H2  UNL     1      19.980 -16.340  23.734  1.00  0.00     0.163 HD
BRANCH  29  32
HETATM   32  C6  UNL     1      22.489 -17.307  23.336  1.00  0.00     0.103 C
BRANCH  32  33
HETATM   33  C7  UNL     1      22.085 -16.722  24.653  1.00  0.00     0.019 C
BRANCH  33  34
HETATM   34  C8  UNL     1      21.913 -17.683  25.781  1.00  0.00     0.063 C
BRANCH  34  35
HETATM   35  S1  UNL     1      20.272 -18.033  26.270  1.00  0.00    -0.228 SA
HETATM   36  C9  UNL     1      19.599 -19.130  24.996  1.00  0.00     0.078 C
HETATM   37  C10 UNL     1      19.263 -16.587  26.247  1.00  0.00     0.078 C
ENDBRANCH  34  35
ENDBRANCH  33  34
ENDBRANCH  32  33
ENDBRANCH  29  32
ENDBRANCH   7  28
TORSDOF 10
ENDMDL