MODEL 4
REMARK VINA RESULT: -8.533932788      2.239      8.841
REMARK  11 active torsions:
REMARK  status: ('A' for Active; 'I' for Inactive)
REMARK    1  A    between atoms: C6_7  and  C7_8
REMARK    2  A    between atoms: C7_8  and  C8_9
REMARK    3  A    between atoms: C8_9  and  N2_10
REMARK    4  A    between atoms: N4_16  and  C11_17
REMARK    5  A    between atoms: C11_17  and  C12_18
REMARK    6  A    between atoms: C12_18  and  C13_19
REMARK    7  A    between atoms: C16_22  and  C17_23
REMARK    8  A    between atoms: C17_23  and  C18_24
REMARK    9  A    between atoms: C18_24  and  C19_25
REMARK   10  A    between atoms: C21_27  and  N5_28
REMARK   11  A    between atoms: N9_39  and  C25_40
ROOT
HETATM    1  C25 UNL     1      18.338 -14.917  23.166  1.00  0.00     0.271 C
HETATM    2  C26 UNL     1      19.384 -14.439  22.282  1.00  0.00     0.080 C
HETATM    3  N10 UNL     1      20.231 -14.066  21.565  1.00  0.00    -0.196 NA
ENDROOT
BRANCH   1   4
HETATM    4  N9  UNL     1      17.957 -16.275  22.781  1.00  0.00    -0.166 N
HETATM    5  C9  UNL     1      18.037 -17.323  23.616  1.00  0.00     0.682 A
HETATM    6  N2  UNL     1      18.437 -17.310  24.785  1.00  0.00    -0.225 N
HETATM    7  N3  UNL     1      17.627 -18.547  23.094  1.00  0.00    -0.188 N
ATOM      8  H2  UNL     1      18.368 -18.270  25.122  1.00  0.00     0.177 HD
HETATM    9  C10 UNL     1      17.182 -18.673  21.846  1.00  0.00     0.201 A
ATOM     10  H3  UNL     1      17.669 -19.376  23.689  1.00  0.00     0.185 HD
HETATM   11  N4  UNL     1      17.109 -17.618  21.029  1.00  0.00    -0.338 N
HETATM   12  C24 UNL     1      17.495 -16.440  21.505  1.00  0.00     0.205 A
BRANCH   6  13
HETATM   13  C8  UNL     1      18.930 -16.574  25.821  1.00  0.00     0.144 C
BRANCH  13  14
HETATM   14  C7  UNL     1      20.481 -16.612  25.765  1.00  0.00     0.077 C
BRANCH  14  15
HETATM   15  C6  UNL     1      21.048 -15.286  25.489  1.00  0.00     0.012 A
HETATM   16  N1  UNL     1      21.993 -15.123  24.553  1.00  0.00    -0.364 N
HETATM   17  C1  UNL     1      22.520 -16.220  23.791  1.00  0.00     0.155 C
HETATM   18  C2  UNL     1      22.459 -13.855  24.348  1.00  0.00     0.090 A
HETATM   19  C3  UNL     1      21.982 -12.787  25.069  1.00  0.00     0.017 A
HETATM   20  C4  UNL     1      21.009 -12.944  26.036  1.00  0.00     0.003 A
HETATM   21  C5  UNL     1      20.544 -14.218  26.237  1.00  0.00     0.025 A
ENDBRANCH  14  15
ENDBRANCH  13  14
ENDBRANCH   6  13
BRANCH  11  22
HETATM   22  C11 UNL     1      16.633 -17.746  19.685  1.00  0.00     0.136 C
BRANCH  22  23
HETATM   23  C12 UNL     1      15.289 -18.386  19.541  1.00  0.00     0.077 C
BRANCH  23  24
HETATM   24  C13 UNL     1      14.186 -17.482  19.942  1.00  0.00     0.011 A
HETATM   25  C14 UNL     1      12.974 -17.831  20.490  1.00  0.00     0.027 A
HETATM   26  C15 UNL     1      12.256 -16.679  20.706  1.00  0.00     0.027 A
HETATM   27  C16 UNL     1      13.050 -15.623  20.281  1.00  0.00     0.009 A
HETATM   28  N8  UNL     1      14.205 -16.132  19.825  1.00  0.00    -0.363 N
ATOM     29  H8  UNL     1      14.980 -15.585  19.448  1.00  0.00     0.165 HD
BRANCH  27  30
HETATM   30  C17 UNL     1      12.611 -14.213  20.356  1.00  0.00     0.063 C
BRANCH  30  31
HETATM   31  C18 UNL     1      13.204 -13.589  21.610  1.00  0.00     0.063 C
BRANCH  31  32
HETATM   32  C19 UNL     1      13.842 -12.315  21.207  1.00  0.00     0.016 A
HETATM   33  C20 UNL     1      14.897 -12.343  20.320  1.00  0.00     0.073 A
HETATM   34  C21 UNL     1      15.538 -11.198  19.902  1.00  0.00     0.101 A
HETATM   35  N6  UNL     1      15.114 -10.018  20.379  1.00  0.00    -0.339 N
HETATM   36  C22 UNL     1      14.085  -9.971  21.245  1.00  0.00     0.184 A
ATOM     37  H6  UNL     1      15.571  -9.155  20.085  1.00  0.00     0.168 HD
HETATM   38  N7  UNL     1      13.456 -11.110  21.654  1.00  0.00    -0.351 N
HETATM   39  C23 UNL     1      12.367 -11.009  22.576  1.00  0.00     0.156 C
BRANCH  34  40
HETATM   40  N5  UNL     1      16.524 -11.204  19.075  1.00  0.00    -0.385 N
ATOM     41  H52 UNL     1      17.412 -11.601  19.384  1.00  0.00     0.157 HD
ATOM     42  H51 UNL     1      16.461 -10.831  18.128  1.00  0.00     0.157 HD
ENDBRANCH  34  40
ENDBRANCH  31  32
ENDBRANCH  30  31
ENDBRANCH  27  30
ENDBRANCH  23  24
ENDBRANCH  22  23
ENDBRANCH  11  22
ENDBRANCH   1   4
TORSDOF 11
ENDMDL