MODEL 4
REMARK VINA RESULT: -6.558051365      1.050      1.584
REMARK  14 active torsions:
REMARK  status: ('A' for Active; 'I' for Inactive)
REMARK    1  A    between atoms: N1_2  and  C2_4
REMARK    2  A    between atoms: C2_4  and  N2_6
REMARK    3  A    between atoms: C3_8  and  C4_9
REMARK    4  A    between atoms: C3_8  and  N4_16
REMARK    5  A    between atoms: C4_9  and  C5_10
REMARK    6  A    between atoms: C5_10  and  C6_11
REMARK    7  A    between atoms: C6_11  and  N3_12
REMARK    8  A    between atoms: N4_16  and  C10_18
REMARK    9  A    between atoms: C10_18  and  C11_19
REMARK   10  A    between atoms: C10_18  and  C13_31
REMARK       I    between atoms: C11_19  and  N5_21
REMARK   11  A    between atoms: C12_23  and  N6_24
REMARK   12  A    between atoms: N6_24  and  N7_26
REMARK   13  A    between atoms: C15_33  and  S2_34
REMARK   14  A    between atoms: S2_34  and  N9_37
ROOT
HETATM    1  C10 UNL     1      17.538 -13.368  21.120  1.00  0.00     0.205 C
ENDROOT
BRANCH   1   2
HETATM    2  N4  UNL     1      18.658 -14.271  21.052  1.00  0.00    -0.363 N
ATOM      3  H4  UNL     1      18.779 -14.763  20.166  1.00  0.00     0.162 HD
BRANCH   2   4
HETATM    4  C3  UNL     1      19.603 -14.559  22.045  1.00  0.00     0.080 C
HETATM    5  N2  UNL     1      19.554 -15.655  22.758  1.00  0.00    -0.323 N
ATOM      6  H2  UNL     1      20.285 -15.792  23.456  1.00  0.00     0.169 HD
BRANCH   5   7
HETATM    7  C2  UNL     1      18.580 -16.658  22.643  1.00  0.00     0.172 C
HETATM    8  S1  UNL     1      18.707 -17.931  21.630  1.00  0.00    -0.041 SA
BRANCH   7   9
HETATM    9  N1  UNL     1      17.423 -16.550  23.452  1.00  0.00    -0.371 N
HETATM   10  C1  UNL     1      16.563 -17.696  23.711  1.00  0.00     0.148 C
ATOM     11  H1  UNL     1      17.186 -15.647  23.863  1.00  0.00     0.161 HD
ENDBRANCH   7   9
ENDBRANCH   5   7
BRANCH   4  12
HETATM   12  C4  UNL     1      20.715 -13.626  22.321  1.00  0.00     0.078 C
BRANCH  12  13
HETATM   13  C5  UNL     1      20.401 -12.922  23.616  1.00  0.00     0.035 C
BRANCH  13  14
HETATM   14  C6  UNL     1      21.269 -13.236  24.765  1.00  0.00     0.236 C
BRANCH  14  15
HETATM   15  N3  UNL     1      20.794 -14.010  25.829  1.00  0.00    -0.079 N
HETATM   16  C7  UNL     1      19.449 -14.462  25.776  1.00  0.00     0.271 C
HETATM   17  C8  UNL     1      21.647 -15.195  25.972  1.00  0.00     0.271 C
HETATM   18  C9  UNL     1      20.978 -13.294  27.107  1.00  0.00     0.271 C
ENDBRANCH  14  15
ENDBRANCH  13  14
ENDBRANCH  12  13
ENDBRANCH   4  12
ENDBRANCH   2   4
ENDBRANCH   1   2
BRANCH   1  19
HETATM   19  C11 UNL     1      17.744 -12.228  20.218  1.00  0.00     0.249 C
HETATM   20  O1  UNL     1      18.753 -11.469  20.430  1.00  0.00    -0.270 OA
HETATM   21  N5  UNL     1      16.941 -11.859  19.122  1.00  0.00    -0.320 N
HETATM   22  C12 UNL     1      16.018 -10.955  19.194  1.00  0.00     0.201 C
ATOM     23  H5  UNL     1      17.095 -12.325  18.228  1.00  0.00     0.169 HD
BRANCH  22  24
HETATM   24  N6  UNL     1      15.738 -10.257  20.400  1.00  0.00    -0.282 N
ATOM     25  H6  UNL     1      16.429 -10.294  21.150  1.00  0.00     0.189 HD
BRANCH  24  26
HETATM   26  N7  UNL     1      14.571  -9.525  20.614  1.00  0.00    -0.248 N
HETATM   27  N8  UNL     1      13.487  -9.863  20.020  1.00  0.00    -0.331 N
ATOM     28  H82 UNL     1      13.496 -10.669  19.395  1.00  0.00     0.178 HD
ATOM     29  H81 UNL     1      12.634  -9.327  20.177  1.00  0.00     0.178 HD
ATOM     30  H7  UNL     1      14.580  -8.722  21.243  1.00  0.00     0.207 HD
ENDBRANCH  24  26
ENDBRANCH  22  24
ENDBRANCH   1  19
BRANCH   1  31
HETATM   31  C13 UNL     1      16.216 -14.011  21.086  1.00  0.00    -0.040 C
HETATM   32  C14 UNL     1      16.101 -15.368  20.410  1.00  0.00     0.047 C
HETATM   33  C15 UNL     1      15.101 -13.518  21.562  1.00  0.00     0.136 C
BRANCH  33  34
HETATM   34  S2  UNL     1      13.529 -14.287  21.525  1.00  0.00     0.248 S
HETATM   35  O2  UNL     1      13.454 -15.558  22.268  1.00  0.00    -0.201 OA
HETATM   36  O3  UNL     1      12.481 -13.362  22.142  1.00  0.00    -0.201 OA
BRANCH  34  37
HETATM   37  N9  UNL     1      12.986 -14.563  19.913  1.00  0.00    -0.321 N
HETATM   38  C16 UNL     1      12.461 -15.905  19.842  1.00  0.00     0.159 C
ATOM     39  H9  UNL     1      13.027 -13.895  19.143  1.00  0.00     0.171 HD
ENDBRANCH  34  37
ENDBRANCH  33  34
ENDBRANCH   1  31
TORSDOF 14
ENDMDL