MODEL 2
REMARK VINA RESULT: -9.057653282      2.579      3.356
REMARK  11 active torsions:
REMARK  status: ('A' for Active; 'I' for Inactive)
REMARK    1  A    between atoms: N1_2  and  C3_4
REMARK    2  A    between atoms: N1_2  and  C20_24
REMARK    3  A    between atoms: C3_4  and  C4_5
REMARK    4  A    between atoms: C4_5  and  C5_6
REMARK    5  A    between atoms: N2_9  and  C8_10
REMARK    6  A    between atoms: C8_10  and  C9_11
REMARK    7  A    between atoms: C9_11  and  O1_12
REMARK    8  A    between atoms: C10_14  and  C11_15
REMARK    9  A    between atoms: C11_15  and  C12_16
REMARK   10  A    between atoms: C12_16  and  C13_17
REMARK   11  A    between atoms: C20_24  and  C21_25
REMARK       I    between atoms: C21_25  and  N3_27
ROOT
HETATM    1  C3  UNL     1      16.352 -14.517  20.437  1.00  0.00     0.241 C
ENDROOT
BRANCH   1   2
HETATM    2  N1  UNL     1      15.985 -13.144  20.860  1.00  0.00    -0.066 N
HETATM    3  C1  UNL     1      16.863 -12.773  21.960  1.00  0.00     0.272 C
HETATM    4  C2  UNL     1      16.170 -12.224  19.771  1.00  0.00     0.272 C
BRANCH   2   5
HETATM    5  C20 UNL     1      14.650 -13.242  21.344  1.00  0.00     0.339 C
BRANCH   5   6
HETATM    6  C21 UNL     1      13.751 -12.116  21.134  1.00  0.00     0.249 C
HETATM    7  O2  UNL     1      12.740 -12.384  20.364  1.00  0.00    -0.271 OA
HETATM    8  N3  UNL     1      13.799 -10.821  21.615  1.00  0.00    -0.306 N
HETATM    9  C22 UNL     1      13.058 -10.186  22.417  1.00  0.00     0.192 A
ATOM     10  H3  UNL     1      14.581 -10.274  21.255  1.00  0.00     0.170 HD
HETATM   11  N4  UNL     1      13.427  -8.889  22.660  1.00  0.00    -0.277 N
HETATM   12  C24 UNL     1      11.954 -10.641  23.065  1.00  0.00     0.295 A
HETATM   13  N5  UNL     1      12.777  -8.086  23.468  1.00  0.00    -0.250 N
ATOM     14  H4  UNL     1      14.253  -8.527  22.185  1.00  0.00     0.189 HD
HETATM   15  C23 UNL     1      11.687  -8.560  24.096  1.00  0.00     0.341 A
ATOM     16  H5  UNL     1      13.091  -7.127  23.617  1.00  0.00     0.192 HD
HETATM   17  O3  UNL     1      11.064  -7.799  24.869  1.00  0.00    -0.245 OA
HETATM   18  N6  UNL     1      11.268  -9.822  23.906  1.00  0.00    -0.271 N
ATOM     19  H6  UNL     1      10.439 -10.164  24.391  1.00  0.00     0.174 HD
HETATM   20  O4  UNL     1      11.570 -11.820  22.882  1.00  0.00    -0.264 OA
ENDBRANCH   5   6
ENDBRANCH   2   5
ENDBRANCH   1   2
BRANCH   1  21
HETATM   21  C4  UNL     1      15.332 -15.448  21.020  1.00  0.00     0.066 C
BRANCH  21  22
HETATM   22  C5  UNL     1      15.934 -16.422  21.962  1.00  0.00    -0.053 A
HETATM   23  C6  UNL     1      15.231 -17.591  22.219  1.00  0.00     0.024 A
HETATM   24  C7  UNL     1      15.773 -18.504  23.088  1.00  0.00     0.091 A
HETATM   25  N2  UNL     1      16.959 -18.316  23.705  1.00  0.00    -0.358 N
HETATM   26  C10 UNL     1      17.664 -17.214  23.493  1.00  0.00     0.012 A
HETATM   27  C19 UNL     1      17.132 -16.263  22.606  1.00  0.00     0.032 A
BRANCH  25  28
HETATM   28  C8  UNL     1      17.488 -19.376  24.543  1.00  0.00     0.154 C
BRANCH  28  29
HETATM   29  C9  UNL     1      16.557 -19.622  25.734  1.00  0.00     0.184 C
BRANCH  29  30
HETATM   30  O1  UNL     1      17.354 -19.600  26.877  1.00  0.00    -0.399 OA
ATOM     31  H1  UNL     1      16.829 -19.955  27.584  1.00  0.00     0.209 HD
ENDBRANCH  29  30
ENDBRANCH  28  29
ENDBRANCH  25  28
BRANCH  26  32
HETATM   32  C11 UNL     1      18.935 -16.840  24.163  1.00  0.00     0.062 C
BRANCH  32  33
HETATM   33  C12 UNL     1      18.767 -15.919  25.336  1.00  0.00     0.044 C
BRANCH  33  34
HETATM   34  C13 UNL     1      19.626 -14.729  25.346  1.00  0.00    -0.058 A
HETATM   35  C14 UNL     1      20.306 -14.335  26.479  1.00  0.00     0.007 A
HETATM   36  C15 UNL     1      21.108 -13.198  26.490  1.00  0.00     0.001 A
HETATM   37  C16 UNL     1      21.252 -12.419  25.359  1.00  0.00     0.000 A
HETATM   38  C17 UNL     1      20.577 -12.807  24.227  1.00  0.00     0.001 A
HETATM   39  C18 UNL     1      19.784 -13.929  24.213  1.00  0.00     0.007 A
ENDBRANCH  33  34
ENDBRANCH  32  33
ENDBRANCH  26  32
ENDBRANCH  21  22
ENDBRANCH   1  21
TORSDOF 11
ENDMDL