MODEL 1
REMARK VINA RESULT: -9.571221838      0.000      0.000
REMARK  12 active torsions:
REMARK  status: ('A' for Active; 'I' for Inactive)
REMARK    1  A    between atoms: C1_4  and  C2_6
REMARK    2  A    between atoms: N3_9  and  C5_10
REMARK    3  A    between atoms: C5_10  and  C6_11
REMARK    4  A    between atoms: C6_11  and  C7_12
REMARK    5  A    between atoms: C7_12  and  C8_13
REMARK    6  A    between atoms: N4_17  and  C12_18
REMARK    7  A    between atoms: C12_18  and  C13_19
REMARK    8  A    between atoms: C13_19  and  C14_20
REMARK    9  A    between atoms: C14_20  and  C15_21
REMARK   10  A    between atoms: C15_21  and  N5_22
REMARK   11  A    between atoms: C18_25  and  N6_26
REMARK   12  A    between atoms: N6_26  and  C19_28
ROOT
HETATM    1  C13 UNL     1      20.180 -13.718  21.830  1.00  0.00     0.022 C
ENDROOT
BRANCH   1   2
HETATM    2  C12 UNL     1      20.336 -12.586  22.812  1.00  0.00     0.128 C
BRANCH   2   3
HETATM    3  N4  UNL     1      20.394 -13.181  24.146  1.00  0.00    -0.366 N
HETATM    4  C11 UNL     1      21.018 -12.482  25.113  1.00  0.00     0.090 A
HETATM    5  C10 UNL     1      21.106 -12.998  26.411  1.00  0.00     0.018 A
HETATM    6  C9  UNL     1      20.528 -14.240  26.633  1.00  0.00     0.010 A
HETATM    7  C8  UNL     1      19.895 -14.939  25.627  1.00  0.00    -0.043 A
HETATM    8  C24 UNL     1      19.834 -14.393  24.374  1.00  0.00     0.097 A
BRANCH   7   9
HETATM    9  C7  UNL     1      19.306 -16.268  25.970  1.00  0.00     0.041 C
BRANCH   9  10
HETATM   10  C6  UNL     1      19.755 -17.258  24.915  1.00  0.00     0.025 C
BRANCH  10  11
HETATM   11  C5  UNL     1      18.699 -18.221  24.508  1.00  0.00     0.128 C
BRANCH  11  12
HETATM   12  N3  UNL     1      17.648 -17.690  23.710  1.00  0.00    -0.366 N
HETATM   13  C4  UNL     1      16.353 -17.946  23.926  1.00  0.00     0.091 A
HETATM   14  C3  UNL     1      15.350 -17.415  23.135  1.00  0.00     0.032 A
HETATM   15  C2  UNL     1      15.637 -16.586  22.068  1.00  0.00     0.007 A
HETATM   16  C26 UNL     1      16.976 -16.329  21.853  1.00  0.00     0.032 A
HETATM   17  C25 UNL     1      17.956 -16.887  22.678  1.00  0.00     0.091 A
BRANCH  15  18
HETATM   18  C1  UNL     1      14.566 -16.047  21.259  1.00  0.00     0.120 C
HETATM   19  N1  UNL     1      14.547 -16.020  19.972  1.00  0.00    -0.387 N
ATOM     20  H12 UNL     1      13.792 -15.640  19.402  1.00  0.00     0.157 HD
ATOM     21  H11 UNL     1      15.363 -16.415  19.505  1.00  0.00     0.157 HD
HETATM   22  N2  UNL     1      13.430 -15.498  21.910  1.00  0.00    -0.082 NA
ENDBRANCH  15  18
ENDBRANCH  11  12
ENDBRANCH  10  11
ENDBRANCH   9  10
ENDBRANCH   7   9
ENDBRANCH   2   3
ENDBRANCH   1   2
BRANCH   1  23
HETATM   23  C14 UNL     1      19.635 -13.312  20.506  1.00  0.00     0.022 C
BRANCH  23  24
HETATM   24  C15 UNL     1      18.993 -11.965  20.445  1.00  0.00     0.129 C
BRANCH  24  25
HETATM   25  N5  UNL     1      17.553 -11.990  20.506  1.00  0.00    -0.353 N
HETATM   26  C16 UNL     1      16.805 -12.552  21.441  1.00  0.00     0.095 A
HETATM   27  C17 UNL     1      15.420 -12.526  21.404  1.00  0.00     0.066 A
HETATM   28  C18 UNL     1      14.778 -11.895  20.366  1.00  0.00     0.108 A
HETATM   29  N10 UNL     1      15.552 -11.318  19.408  1.00  0.00    -0.338 N
HETATM   30  C23 UNL     1      16.884 -11.373  19.491  1.00  0.00     0.184 A
ATOM     31  H10 UNL     1      15.112 -10.840  18.621  1.00  0.00     0.168 HD
BRANCH  28  32
HETATM   32  N6  UNL     1      13.488 -11.838  20.279  1.00  0.00    -0.327 N
ATOM     33  H6  UNL     1      13.015 -11.912  19.378  1.00  0.00     0.169 HD
BRANCH  32  34
HETATM   34  C19 UNL     1      12.756 -11.668  21.483  1.00  0.00     0.139 A
HETATM   35  C20 UNL     1      12.405 -10.668  22.268  1.00  0.00     0.122 A
HETATM   36  N7  UNL     1      12.300  -9.410  22.726  1.00  0.00    -0.346 N
HETATM   37  C22 UNL     1      11.734 -11.489  23.146  1.00  0.00     0.139 A
HETATM   38  C21 UNL     1      11.579  -9.468  23.857  1.00  0.00     0.182 A
ATOM     39  H7  UNL     1      12.692  -8.572  22.296  1.00  0.00     0.167 HD
HETATM   40  N8  UNL     1      11.220 -10.732  24.137  1.00  0.00    -0.337 N
ATOM     41  H8  UNL     1      10.672 -11.053  24.935  1.00  0.00     0.168 HD
HETATM   42  N9  UNL     1      12.054 -12.491  22.409  1.00  0.00    -0.325 N
ATOM     43  H9  UNL     1      11.873 -13.494  22.466  1.00  0.00     0.169 HD
ENDBRANCH  32  34
ENDBRANCH  28  32
ENDBRANCH  24  25
ENDBRANCH  23  24
ENDBRANCH   1  23
TORSDOF 12
ENDMDL