MODEL 3
REMARK VINA RESULT: -7.331796214      1.196      1.521
REMARK  12 active torsions:
REMARK  status: ('A' for Active; 'I' for Inactive)
REMARK       I    between atoms: N1_3  and  C3_5
REMARK       I    between atoms: C3_5  and  N7_26
REMARK    1  A    between atoms: N2_6  and  C4_8
REMARK    2  A    between atoms: C4_8  and  C5_9
REMARK    3  A    between atoms: C5_9  and  N3_10
REMARK    4  A    between atoms: N3_10  and  C8_13
REMARK    5  A    between atoms: C8_13  and  C9_14
REMARK    6  A    between atoms: C9_14  and  C10_15
REMARK    7  A    between atoms: C13_20  and  N5_21
REMARK    8  A    between atoms: C15_28  and  C16_29
REMARK    9  A    between atoms: C15_28  and  N9_36
REMARK   10  A    between atoms: C16_29  and  N8_31
REMARK       I    between atoms: N8_31  and  C18_33
REMARK   11  A    between atoms: N9_36  and  C21_38
REMARK   12  A    between atoms: C21_38  and  C22_39
ROOT
HETATM    1  C1  UNL     1      18.859 -17.367  21.153  1.00  0.00     0.124 C
HETATM    2  C2  UNL     1      19.420 -16.277  21.168  1.00  0.00    -0.059 C
HETATM    3  N1  UNL     1      20.070 -15.047  21.163  1.00  0.00    -0.161 N
ATOM      4  H1  UNL     1      20.432 -14.654  20.294  1.00  0.00     0.194 HD
HETATM    5  C3  UNL     1      20.222 -14.343  22.398  1.00  0.00     0.686 C
HETATM    6  N2  UNL     1      19.179 -13.770  22.898  1.00  0.00    -0.224 N
ATOM      7  H2  UNL     1      19.303 -13.273  23.779  1.00  0.00     0.177 HD
HETATM    8  N7  UNL     1      21.491 -14.300  22.964  1.00  0.00    -0.178 N
ATOM      9  H7  UNL     1      22.090 -13.601  22.525  1.00  0.00     0.185 HD
HETATM   10  C15 UNL     1      22.070 -14.916  23.883  1.00  0.00     0.117 C
ENDROOT
BRANCH   6  11
HETATM   11  C4  UNL     1      17.863 -13.768  22.331  1.00  0.00     0.166 C
BRANCH  11  12
HETATM   12  C5  UNL     1      17.454 -12.383  21.875  1.00  0.00     0.256 C
BRANCH  12  13
HETATM   13  N3  UNL     1      17.202 -12.284  20.476  1.00  0.00    -0.073 N
HETATM   14  C6  UNL     1      18.433 -12.107  19.703  1.00  0.00     0.272 C
HETATM   15  C7  UNL     1      16.684 -13.596  20.056  1.00  0.00     0.272 C
BRANCH  13  16
HETATM   16  C8  UNL     1      16.311 -11.234  20.077  1.00  0.00     0.244 C
BRANCH  16  17
HETATM   17  C9  UNL     1      14.909 -11.665  19.799  1.00  0.00     0.104 C
BRANCH  17  18
HETATM   18  C10 UNL     1      14.022 -11.015  20.826  1.00  0.00     0.086 A
HETATM   19  N4  UNL     1      14.214  -9.703  21.141  1.00  0.00    -0.355 N
HETATM   20  C11 UNL     1      13.472  -9.052  22.048  1.00  0.00     0.093 A
ATOM     21  H4  UNL     1      14.956  -9.193  20.664  1.00  0.00     0.166 HD
HETATM   22  C12 UNL     1      12.476  -9.770  22.674  1.00  0.00     0.065 A
HETATM   23  C13 UNL     1      12.244 -11.087  22.393  1.00  0.00     0.103 A
HETATM   24  N6  UNL     1      13.043 -11.681  21.457  1.00  0.00    -0.328 N
HETATM   25  C14 UNL     1      12.782 -13.078  21.182  1.00  0.00     0.159 C
BRANCH  23  26
HETATM   26  N5  UNL     1      11.309 -11.793  22.971  1.00  0.00    -0.385 N
ATOM     27  H52 UNL     1      11.419 -12.053  23.951  1.00  0.00     0.157 HD
ATOM     28  H51 UNL     1      10.463 -12.103  22.493  1.00  0.00     0.157 HD
ENDBRANCH  23  26
ENDBRANCH  17  18
ENDBRANCH  16  17
ENDBRANCH  13  16
ENDBRANCH  12  13
ENDBRANCH  11  12
ENDBRANCH   6  11
BRANCH  10  29
HETATM   29  C16 UNL     1      23.506 -14.521  24.163  1.00  0.00     0.148 C
HETATM   30  C17 UNL     1      23.558 -13.012  24.158  1.00  0.00     0.040 C
BRANCH  29  31
HETATM   31  N8  UNL     1      24.394 -15.027  23.159  1.00  0.00    -0.350 N
HETATM   32  C18 UNL     1      25.131 -16.208  23.384  1.00  0.00     0.214 C
HETATM   33  C19 UNL     1      26.068 -16.798  22.403  1.00  0.00     0.117 C
HETATM   34  O1  UNL     1      24.999 -16.822  24.489  1.00  0.00    -0.274 OA
ATOM     35  H8  UNL     1      24.494 -14.529  22.274  1.00  0.00     0.163 HD
ENDBRANCH  29  31
ENDBRANCH  10  29
BRANCH  10  36
HETATM   36  N9  UNL     1      21.552 -15.970  24.716  1.00  0.00    -0.372 N
HETATM   37  C20 UNL     1      21.498 -17.337  24.233  1.00  0.00     0.150 C
BRANCH  36  38
HETATM   38  C21 UNL     1      21.108 -15.708  26.060  1.00  0.00     0.137 C
BRANCH  38  39
HETATM   39  C22 UNL     1      19.707 -15.258  26.133  1.00  0.00     0.143 C
HETATM   40  C23 UNL     1      18.743 -15.949  25.299  1.00  0.00     0.060 C
HETATM   41  N10 UNL     1      17.944 -16.504  24.652  1.00  0.00    -0.197 NA
ENDBRANCH  38  39
ENDBRANCH  36  38
ENDBRANCH  10  36
TORSDOF 12
ENDMDL