MODEL 2
REMARK VINA RESULT: -7.810303769      2.751      8.627
REMARK  14 active torsions:
REMARK  status: ('A' for Active; 'I' for Inactive)
REMARK    1  A    between atoms: N1_5  and  C5_6
REMARK    2  A    between atoms: C5_6  and  C6_7
REMARK    3  A    between atoms: C6_7  and  C7_8
REMARK    4  A    between atoms: C7_8  and  N2_9
REMARK    5  A    between atoms: C12_14  and  C13_15
REMARK    6  A    between atoms: C13_15  and  C14_16
REMARK    7  A    between atoms: C14_16  and  N3_17
REMARK       I    between atoms: N3_17  and  C15_19
REMARK    8  A    between atoms: C15_19  and  C16_21
REMARK    9  A    between atoms: C16_21  and  C17_22
REMARK   10  A    between atoms: C21_26  and  N4_27
REMARK   11  A    between atoms: N4_27  and  N5_29
REMARK   12  A    between atoms: C22_32  and  C23_33
REMARK   13  A    between atoms: C24_35  and  C25_36
REMARK   14  A    between atoms: C25_36  and  O2_37
ROOT
HETATM    1  N3  UNL     1      18.277 -13.143  21.353  1.00  0.00    -0.360 N
ATOM      2  H3  UNL     1      17.743 -13.884  21.808  1.00  0.00     0.162 HD
HETATM    3  C15 UNL     1      17.676 -12.356  20.343  1.00  0.00     0.221 C
HETATM    4  O1  UNL     1      18.351 -11.453  19.799  1.00  0.00    -0.273 OA
ENDROOT
BRANCH   1   5
HETATM    5  C14 UNL     1      19.651 -12.898  21.740  1.00  0.00     0.128 C
BRANCH   5   6
HETATM    6  C13 UNL     1      20.205 -14.114  22.445  1.00  0.00     0.077 C
BRANCH   6   7
HETATM    7  C12 UNL     1      20.395 -13.890  23.900  1.00  0.00     0.012 A
HETATM    8  N2  UNL     1      20.254 -14.884  24.790  1.00  0.00    -0.360 N
HETATM    9  C8  UNL     1      20.540 -14.657  26.075  1.00  0.00     0.091 A
HETATM   10  C9  UNL     1      20.972 -13.432  26.515  1.00  0.00     0.017 A
HETATM   11  C10 UNL     1      21.123 -12.400  25.633  1.00  0.00     0.003 A
HETATM   12  C11 UNL     1      20.832 -12.623  24.297  1.00  0.00     0.025 A
BRANCH   8  13
HETATM   13  C7  UNL     1      19.736 -16.163  24.449  1.00  0.00     0.130 C
BRANCH  13  14
HETATM   14  C6  UNL     1      18.285 -16.388  24.634  1.00  0.00     0.040 C
BRANCH  14  15
HETATM   15  C5  UNL     1      17.677 -17.612  24.049  1.00  0.00     0.130 C
BRANCH  15  16
HETATM   16  N1  UNL     1      16.650 -17.308  23.064  1.00  0.00    -0.360 N
HETATM   17  C4  UNL     1      16.869 -16.364  22.125  1.00  0.00     0.091 A
HETATM   18  C3  UNL     1      15.920 -16.042  21.171  1.00  0.00     0.024 A
HETATM   19  C2  UNL     1      14.704 -16.692  21.157  1.00  0.00    -0.059 A
HETATM   20  C1  UNL     1      13.650 -16.381  20.150  1.00  0.00     0.048 C
HETATM   21  C28 UNL     1      14.487 -17.653  22.118  1.00  0.00     0.031 A
HETATM   22  C26 UNL     1      15.484 -17.941  23.063  1.00  0.00     0.007 A
HETATM   23  C27 UNL     1      15.182 -18.979  24.055  1.00  0.00     0.068 C
ENDBRANCH  15  16
ENDBRANCH  14  15
ENDBRANCH  13  14
ENDBRANCH   8  13
ENDBRANCH   6   7
ENDBRANCH   5   6
ENDBRANCH   1   5
BRANCH   3  24
HETATM   24  C16 UNL     1      16.244 -12.609  19.937  1.00  0.00     0.131 C
BRANCH  24  25
HETATM   25  C17 UNL     1      15.410 -11.472  20.384  1.00  0.00    -0.006 C
HETATM   26  C18 UNL     1      14.356 -11.580  21.137  1.00  0.00    -0.030 A
HETATM   27  C19 UNL     1      13.958 -12.906  21.578  1.00  0.00     0.014 A
HETATM   28  C24 UNL     1      13.593 -10.360  21.544  1.00  0.00    -0.011 A
HETATM   29  C20 UNL     1      12.896 -13.021  22.355  1.00  0.00     0.033 A
HETATM   30  C21 UNL     1      12.129 -11.872  22.772  1.00  0.00     0.059 A
HETATM   31  C22 UNL     1      12.540 -10.496  22.315  1.00  0.00     0.014 A
BRANCH  30  32
HETATM   32  N4  UNL     1      11.098 -11.983  23.533  1.00  0.00    -0.306 N
ATOM     33  H4  UNL     1      10.167 -12.042  23.121  1.00  0.00     0.186 HD
BRANCH  32  34
HETATM   34  N5  UNL     1      11.246 -12.022  24.918  1.00  0.00    -0.345 N
ATOM     35  H52 UNL     1      11.571 -11.185  25.402  1.00  0.00     0.176 HD
ATOM     36  H51 UNL     1      11.032 -12.875  25.436  1.00  0.00     0.176 HD
ENDBRANCH  32  34
ENDBRANCH  30  32
BRANCH  31  37
HETATM   37  C23 UNL     1      11.643  -9.411  22.731  1.00  0.00     0.114 C
HETATM   38  N6  UNL     1      11.570  -8.986  24.057  1.00  0.00    -0.114 NA
ENDBRANCH  31  37
BRANCH  28  39
HETATM   39  C25 UNL     1      14.159  -9.092  21.098  1.00  0.00     0.204 C
BRANCH  39  40
HETATM   40  O2  UNL     1      13.523  -8.512  19.999  1.00  0.00    -0.396 OA
ATOM     41  H2  UNL     1      13.446  -9.072  19.236  1.00  0.00     0.209 HD
ENDBRANCH  39  40
ENDBRANCH  28  39
ENDBRANCH  24  25
ENDBRANCH   3  24
TORSDOF 14
ENDMDL