MODEL 3
REMARK VINA RESULT: -7.890700736      1.957      3.709
REMARK  13 active torsions:
REMARK  status: ('A' for Active; 'I' for Inactive)
REMARK    1  A    between atoms: C2_3  and  C3_4
REMARK    2  A    between atoms: C3_4  and  C4_5
REMARK    3  A    between atoms: C4_5  and  C5_6
REMARK    4  A    between atoms: C5_6  and  C6_7
REMARK    5  A    between atoms: C6_7  and  C7_8
REMARK    6  A    between atoms: N2_10  and  C9_11
REMARK    7  A    between atoms: C9_11  and  C10_12
REMARK    8  A    between atoms: C10_12  and  C11_13
REMARK    9  A    between atoms: C11_13  and  O1_14
REMARK   10  A    between atoms: O1_14  and  C12_15
REMARK   11  A    between atoms: C12_15  and  C13_16
REMARK       I    between atoms: C13_16  and  N3_18
REMARK   12  A    between atoms: C15_23  and  O3_24
REMARK   13  A    between atoms: C22_37  and  N9_38
ROOT
HETATM    1  C7  UNL     1      20.228 -13.345  21.513  1.00  0.00     0.028 A
HETATM    2  C8  UNL     1      20.490 -13.307  22.887  1.00  0.00     0.119 A
HETATM    3  N2  UNL     1      20.470 -14.551  23.381  1.00  0.00    -0.321 N
HETATM    4  C15 UNL     1      20.207 -15.391  22.380  1.00  0.00     0.223 A
HETATM    5  N6  UNL     1      20.063 -14.644  21.251  1.00  0.00    -0.325 N
ATOM      6  H6  UNL     1      19.857 -15.026  20.328  1.00  0.00     0.169 HD
ENDROOT
BRANCH   1   7
HETATM    7  C6  UNL     1      20.205 -12.181  20.610  1.00  0.00     0.058 C
BRANCH   7   8
HETATM    8  C5  UNL     1      19.011 -12.078  19.720  1.00  0.00     0.006 C
BRANCH   8   9
HETATM    9  C4  UNL     1      17.725 -11.938  20.433  1.00  0.00     0.006 C
BRANCH   9  10
HETATM   10  C3  UNL     1      16.461 -12.346  19.783  1.00  0.00     0.059 C
BRANCH  10  11
HETATM   11  C2  UNL     1      15.310 -12.668  20.619  1.00  0.00     0.042 A
HETATM   12  N1  UNL     1      15.181 -13.983  20.974  1.00  0.00    -0.191 N
HETATM   13  C1  UNL     1      16.065 -15.024  20.476  1.00  0.00     0.175 C
HETATM   14  C22 UNL     1      14.188 -14.311  21.808  1.00  0.00     0.679 A
HETATM   15  N8  UNL     1      13.327 -13.384  22.295  1.00  0.00    -0.176 N
HETATM   16  C21 UNL     1      13.436 -12.095  21.957  1.00  0.00     0.135 A
ATOM     17  H8  UNL     1      12.584 -13.675  22.930  1.00  0.00     0.186 HD
HETATM   18  C16 UNL     1      14.454 -11.695  21.087  1.00  0.00     0.032 A
HETATM   19  N7  UNL     1      12.585 -11.176  22.397  1.00  0.00    -0.346 N
HETATM   20  C17 UNL     1      14.538 -10.364  20.716  1.00  0.00     0.018 A
HETATM   21  C18 UNL     1      13.642  -9.435  21.187  1.00  0.00     0.018 A
HETATM   22  C19 UNL     1      12.650  -9.863  22.046  1.00  0.00     0.092 A
HETATM   23  C20 UNL     1      11.533 -11.609  23.302  1.00  0.00     0.157 C
BRANCH  14  24
HETATM   24  N9  UNL     1      14.054 -15.555  22.155  1.00  0.00    -0.234 N
ATOM     25  H92 UNL     1      14.241 -15.831  23.119  1.00  0.00     0.174 HD
ATOM     26  H91 UNL     1      13.764 -16.230  21.448  1.00  0.00     0.174 HD
ENDBRANCH  14  24
ENDBRANCH  10  11
ENDBRANCH   9  10
ENDBRANCH   8   9
ENDBRANCH   7   8
ENDBRANCH   1   7
BRANCH   3  27
HETATM   27  C9  UNL     1      20.692 -14.963  24.769  1.00  0.00     0.134 C
BRANCH  27  28
HETATM   28  C10 UNL     1      19.431 -14.910  25.580  1.00  0.00     0.046 C
BRANCH  28  29
HETATM   29  C11 UNL     1      19.247 -16.302  26.184  1.00  0.00     0.169 C
BRANCH  29  30
HETATM   30  O1  UNL     1      19.319 -17.270  25.213  1.00  0.00    -0.382 OA
BRANCH  30  31
HETATM   31  C12 UNL     1      18.367 -18.245  25.336  1.00  0.00     0.270 C
BRANCH  31  32
HETATM   32  C13 UNL     1      17.213 -18.039  24.464  1.00  0.00     0.247 C
HETATM   33  O2  UNL     1      17.339 -17.234  23.503  1.00  0.00    -0.271 OA
HETATM   34  N3  UNL     1      15.987 -18.687  24.653  1.00  0.00    -0.302 N
HETATM   35  C14 UNL     1      15.140 -18.823  23.678  1.00  0.00     0.203 C
ATOM     36  H3  UNL     1      15.754 -19.060  25.573  1.00  0.00     0.171 HD
HETATM   37  N4  UNL     1      15.420 -18.315  22.363  1.00  0.00    -0.066 NA
HETATM   38  N5  UNL     1      13.932 -19.491  23.976  1.00  0.00    -0.066 NA
ENDBRANCH  31  32
ENDBRANCH  30  31
ENDBRANCH  29  30
ENDBRANCH  28  29
ENDBRANCH  27  28
ENDBRANCH   3  27
BRANCH   4  39
HETATM   39  O3  UNL     1      20.104 -16.769  22.495  1.00  0.00    -0.332 OA
ATOM     40  H3  UNL     1      20.661 -17.401  22.055  1.00  0.00     0.221 HD
ENDBRANCH   4  39
TORSDOF 13
ENDMDL