MODEL 4
REMARK VINA RESULT: -8.121330878      2.718      3.845
REMARK  13 active torsions:
REMARK  status: ('A' for Active; 'I' for Inactive)
REMARK    1  A    between atoms: C2_2  and  C3_3
REMARK    2  A    between atoms: C3_3  and  C4_4
REMARK    3  A    between atoms: C4_4  and  N1_5
REMARK    4  A    between atoms: C7_8  and  C8_9
REMARK    5  A    between atoms: C8_9  and  C9_10
REMARK    6  A    between atoms: C9_10  and  C10_11
REMARK    7  A    between atoms: C10_11  and  N2_12
REMARK    8  A    between atoms: C12_14  and  C13_15
REMARK       I    between atoms: C13_15  and  N3_17
REMARK    9  A    between atoms: N3_17  and  C14_19
REMARK   10  A    between atoms: C14_19  and  C15_20
REMARK   11  A    between atoms: C15_20  and  N4_21
REMARK   12  A    between atoms: N4_21  and  C16_23
REMARK   13  A    between atoms: N8_34  and  N9_35
ROOT
HETATM    1  N2  UNL     1      14.829 -18.713  23.083  1.00  0.00    -0.350 N
HETATM    2  C11 UNL     1      15.169 -17.517  22.625  1.00  0.00     0.111 A
HETATM    3  C12 UNL     1      14.425 -16.906  21.608  1.00  0.00     0.071 A
HETATM    4  C18 UNL     1      13.363 -17.612  21.141  1.00  0.00     0.048 A
HETATM    5  C19 UNL     1      12.536 -17.085  20.012  1.00  0.00     0.071 C
HETATM    6  N8  UNL     1      13.023 -18.844  21.622  1.00  0.00    -0.262 N
HETATM    7  C20 UNL     1      13.774 -19.367  22.592  1.00  0.00     0.208 A
ENDROOT
BRANCH   3   8
HETATM    8  C13 UNL     1      14.826 -15.552  21.215  1.00  0.00     0.255 C
HETATM    9  O1  UNL     1      15.664 -15.520  20.249  1.00  0.00    -0.268 OA
HETATM   10  N3  UNL     1      14.374 -14.377  21.810  1.00  0.00    -0.352 N
ATOM     11  H3  UNL     1      13.712 -14.491  22.578  1.00  0.00     0.163 HD
BRANCH  10  12
HETATM   12  C14 UNL     1      14.719 -13.037  21.481  1.00  0.00     0.167 C
BRANCH  12  13
HETATM   13  C15 UNL     1      13.650 -12.085  21.093  1.00  0.00     0.098 C
BRANCH  13  14
HETATM   14  N4  UNL     1      12.381 -12.203  21.696  1.00  0.00    -0.202 N
ATOM     15  H4  UNL     1      11.766 -12.949  21.372  1.00  0.00     0.183 HD
BRANCH  14  16
HETATM   16  C16 UNL     1      11.945 -11.419  22.640  1.00  0.00     0.700 A
HETATM   17  N5  UNL     1      11.076 -11.672  23.627  1.00  0.00    -0.128 N
HETATM   18  N6  UNL     1      10.933 -10.572  24.346  1.00  0.00    -0.237 N
ATOM     19  H5  UNL     1      10.604 -12.561  23.795  1.00  0.00     0.205 HD
HETATM   20  C17 UNL     1      11.705  -9.597  23.836  1.00  0.00     0.353 A
ATOM     21  H6  UNL     1      10.330 -10.477  25.163  1.00  0.00     0.192 HD
HETATM   22  O2  UNL     1      11.828  -8.411  24.258  1.00  0.00    -0.245 OA
HETATM   23  N7  UNL     1      12.339 -10.142  22.760  1.00  0.00    -0.139 N
ATOM     24  H7  UNL     1      13.000  -9.662  22.150  1.00  0.00     0.189 HD
ENDBRANCH  14  16
ENDBRANCH  13  14
ENDBRANCH  12  13
ENDBRANCH  10  12
ENDBRANCH   3   8
BRANCH   1  25
HETATM   25  C10 UNL     1      15.627 -19.304  24.140  1.00  0.00     0.129 C
BRANCH  25  26
HETATM   26  C9  UNL     1      17.096 -19.087  23.974  1.00  0.00     0.026 C
BRANCH  26  27
HETATM   27  C8  UNL     1      17.791 -18.640  25.234  1.00  0.00     0.059 C
BRANCH  27  28
HETATM   28  C7  UNL     1      18.696 -17.536  24.865  1.00  0.00     0.014 A
HETATM   29  C6  UNL     1      18.229 -16.552  24.024  1.00  0.00     0.042 A
HETATM   30  C5  UNL     1      19.030 -15.487  23.652  1.00  0.00     0.094 A
HETATM   31  N1  UNL     1      20.311 -15.391  24.119  1.00  0.00    -0.347 N
HETATM   32  C22 UNL     1      20.725 -16.371  24.938  1.00  0.00     0.081 A
HETATM   33  N10 UNL     1      19.949 -17.424  25.310  1.00  0.00    -0.345 N
HETATM   34  C23 UNL     1      22.104 -16.300  25.477  1.00  0.00     0.089 C
HETATM   35  C21 UNL     1      20.476 -18.439  26.197  1.00  0.00     0.157 C
BRANCH  31  36
HETATM   36  C4  UNL     1      21.128 -14.263  23.709  1.00  0.00     0.130 C
BRANCH  36  37
HETATM   37  C3  UNL     1      20.535 -12.944  24.121  1.00  0.00     0.020 C
BRANCH  37  38
HETATM   38  C2  UNL     1      21.342 -12.348  25.267  1.00  0.00    -0.003 C
HETATM   39  C1  UNL     1      21.032 -13.013  26.572  1.00  0.00     0.005 C
ENDBRANCH  37  38
ENDBRANCH  36  37
ENDBRANCH  31  36
ENDBRANCH  27  28
ENDBRANCH  26  27
ENDBRANCH  25  26
ENDBRANCH   1  25
BRANCH   6  40
HETATM   40  N9  UNL     1      11.921 -19.527  21.104  1.00  0.00    -0.338 N
ATOM     41  H92 UNL     1      11.469 -19.232  20.239  1.00  0.00     0.177 HD
ATOM     42  H91 UNL     1      11.542 -20.341  21.588  1.00  0.00     0.177 HD
ENDBRANCH   6  40
TORSDOF 13
ENDMDL