MODEL 5
REMARK VINA RESULT: -7.440704381      1.719      7.094
REMARK  13 active torsions:
REMARK  status: ('A' for Active; 'I' for Inactive)
REMARK    1  A    between atoms: C2_2  and  C3_3
REMARK       I    between atoms: N2_7  and  C5_9
REMARK    2  A    between atoms: C5_9  and  C6_11
REMARK    3  A    between atoms: C6_11  and  C7_12
REMARK    4  A    between atoms: C6_11  and  N8_24
REMARK    5  A    between atoms: C7_12  and  C8_13
REMARK    6  A    between atoms: C8_13  and  C9_14
REMARK    7  A    between atoms: C9_14  and  N3_15
REMARK       I    between atoms: C10_17  and  N5_19
REMARK    8  A    between atoms: N8_24  and  C12_26
REMARK    9  A    between atoms: C12_26  and  C13_27
REMARK   10  A    between atoms: C13_27  and  C14_28
REMARK   11  A    between atoms: C14_28  and  N9_29
REMARK   12  A    between atoms: C20_35  and  C21_36
REMARK   13  A    between atoms: C21_36  and  C22_37
ROOT
HETATM    1  C6  UNL     1      18.846 -13.964  21.089  1.00  0.00     0.169 C
ENDROOT
BRANCH   1   2
HETATM    2  C5  UNL     1      18.114 -15.013  21.823  1.00  0.00     0.245 C
HETATM    3  N2  UNL     1      16.676 -14.898  21.784  1.00  0.00    -0.311 N
HETATM    4  C4  UNL     1      16.029 -15.695  21.019  1.00  0.00     0.108 A
ATOM      5  H2  UNL     1      16.189 -14.202  22.350  1.00  0.00     0.170 HD
HETATM    6  N1  UNL     1      14.699 -15.576  20.996  1.00  0.00    -0.342 N
HETATM    7  C18 UNL     1      16.681 -16.633  20.257  1.00  0.00     0.049 A
HETATM    8  C3  UNL     1      13.915 -16.359  20.230  1.00  0.00     0.039 A
ATOM      9  H1  UNL     1      14.259 -14.866  21.580  1.00  0.00     0.167 HD
HETATM   10  C20 UNL     1      14.535 -17.310  19.453  1.00  0.00    -0.013 A
HETATM   11  C19 UNL     1      15.906 -17.453  19.459  1.00  0.00     0.017 A
HETATM   12  O1  UNL     1      18.634 -15.962  22.456  1.00  0.00    -0.271 OA
BRANCH   8  13
HETATM   13  C2  UNL     1      12.626 -16.158  20.282  1.00  0.00    -0.001 C
HETATM   14  C1  UNL     1      12.017 -15.031  19.546  1.00  0.00     0.038 C
ENDBRANCH   8  13
BRANCH  10  15
HETATM   15  C21 UNL     1      13.846 -18.118  18.674  1.00  0.00    -0.009 C
BRANCH  15  16
HETATM   16  C22 UNL     1      13.936 -18.040  17.180  1.00  0.00     0.001 C
HETATM   17  C23 UNL     1      13.658 -19.440  16.620  1.00  0.00     0.013 C
HETATM   18  C24 UNL     1      12.864 -17.148  16.592  1.00  0.00     0.013 C
ENDBRANCH  15  16
ENDBRANCH  10  15
ENDBRANCH   1   2
BRANCH   1  19
HETATM   19  C7  UNL     1      18.185 -12.639  21.417  1.00  0.00     0.036 C
BRANCH  19  20
HETATM   20  C8  UNL     1      17.962 -11.798  20.180  1.00  0.00     0.022 C
BRANCH  20  21
HETATM   21  C9  UNL     1      16.564 -12.002  19.647  1.00  0.00     0.122 C
BRANCH  21  22
HETATM   22  N3  UNL     1      15.642 -11.053  20.187  1.00  0.00    -0.364 N
HETATM   23  C10 UNL     1      14.795 -11.281  21.116  1.00  0.00     0.190 C
HETATM   24  N4  UNL     1      14.667 -12.546  21.742  1.00  0.00    -0.063 NA
HETATM   25  N5  UNL     1      13.945 -10.229  21.545  1.00  0.00    -0.307 N
HETATM   26  C11 UNL     1      12.784 -10.372  22.050  1.00  0.00     0.203 C
ATOM     27  H5  UNL     1      14.294  -9.276  21.440  1.00  0.00     0.170 HD
HETATM   28  N6  UNL     1      12.266 -11.698  22.209  1.00  0.00    -0.066 NA
HETATM   29  N7  UNL     1      12.043  -9.237  22.436  1.00  0.00    -0.066 NA
ATOM     30  H3  UNL     1      15.661 -10.111  19.796  1.00  0.00     0.162 HD
ENDBRANCH  21  22
ENDBRANCH  20  21
ENDBRANCH  19  20
ENDBRANCH   1  19
BRANCH   1  31
HETATM   31  N8  UNL     1      20.222 -13.963  21.408  1.00  0.00    -0.409 N
ATOM     32  H8  UNL     1      20.878 -14.628  20.999  1.00  0.00     0.154 HD
BRANCH  31  33
HETATM   33  C12 UNL     1      20.628 -12.967  22.342  1.00  0.00     0.116 C
BRANCH  33  34
HETATM   34  C13 UNL     1      21.221 -13.735  23.540  1.00  0.00     0.047 C
BRANCH  34  35
HETATM   35  C14 UNL     1      20.173 -13.674  24.632  1.00  0.00     0.237 C
BRANCH  35  36
HETATM   36  N9  UNL     1      20.498 -14.475  25.773  1.00  0.00    -0.079 N
HETATM   37  C15 UNL     1      20.935 -13.552  26.833  1.00  0.00     0.271 C
HETATM   38  C16 UNL     1      19.374 -15.201  26.318  1.00  0.00     0.271 C
HETATM   39  C17 UNL     1      21.587 -15.397  25.566  1.00  0.00     0.271 C
ENDBRANCH  35  36
ENDBRANCH  34  35
ENDBRANCH  33  34
ENDBRANCH  31  33
ENDBRANCH   1  31
TORSDOF 13
ENDMDL