MODEL 4
REMARK VINA RESULT: -7.739492454      1.451      2.787
REMARK  13 active torsions:
REMARK  status: ('A' for Active; 'I' for Inactive)
REMARK       I    between atoms: C2_2  and  N1_4
REMARK    1  A    between atoms: N1_4  and  C3_6
REMARK    2  A    between atoms: C5_15  and  C6_16
REMARK    3  A    between atoms: C6_16  and  C7_24
REMARK    4  A    between atoms: N5_17  and  N6_19
REMARK    5  A    between atoms: N6_19  and  N7_21
REMARK    6  A    between atoms: N8_27  and  C10_28
REMARK    7  A    between atoms: C10_28  and  C11_29
REMARK    8  A    between atoms: C11_29  and  C12_30
REMARK    9  A    between atoms: C12_30  and  C13_31
REMARK   10  A    between atoms: C13_31  and  C14_32
REMARK   11  A    between atoms: C14_32  and  C15_33
REMARK   12  A    between atoms: C15_33  and  N9_34
REMARK   13  A    between atoms: C23_43  and  O2_44
ROOT
HETATM    1  C6  UNL     1      14.569 -13.591  20.778  1.00  0.00     0.091 C
HETATM    2  N5  UNL     1      13.632 -14.280  20.225  1.00  0.00    -0.284 N
ATOM      3  H5  UNL     1      12.737 -13.808  20.091  1.00  0.00     0.188 HD
ENDROOT
BRANCH   1   4
HETATM    4  C5  UNL     1      14.134 -12.210  21.122  1.00  0.00     0.115 A
HETATM    5  N4  UNL     1      14.737 -11.112  20.676  1.00  0.00    -0.187 N
HETATM    6  C4  UNL     1      14.239  -9.861  20.977  1.00  0.00     0.678 A
ATOM      7  H4  UNL     1      15.578 -11.197  20.105  1.00  0.00     0.184 HD
HETATM    8  N2  UNL     1      13.143  -9.681  21.720  1.00  0.00    -0.174 N
HETATM    9  N3  UNL     1      14.852  -8.817  20.528  1.00  0.00    -0.234 N
HETATM   10  C3  UNL     1      12.480 -10.770  22.204  1.00  0.00     0.159 A
ATOM     11  H2  UNL     1      12.806  -8.740  21.922  1.00  0.00     0.186 HD
HETATM   12  C23 UNL     1      12.993 -11.996  21.893  1.00  0.00     0.140 A
ATOM     13  H32 UNL     1      14.483  -7.892  20.750  1.00  0.00     0.174 HD
ATOM     14  H31 UNL     1      15.689  -8.954  19.961  1.00  0.00     0.174 HD
BRANCH  10  15
HETATM   15  N1  UNL     1      11.440 -10.531  22.905  1.00  0.00    -0.311 N
HETATM   16  C2  UNL     1      11.502 -10.020  24.207  1.00  0.00     0.219 C
HETATM   17  C1  UNL     1      11.443  -8.564  24.502  1.00  0.00     0.117 C
HETATM   18  O1  UNL     1      11.610 -10.802  25.187  1.00  0.00    -0.274 OA
ATOM     19  H1  UNL     1      10.525 -10.721  22.498  1.00  0.00     0.170 HD
ENDBRANCH  10  15
BRANCH  12  20
HETATM   20  O2  UNL     1      12.337 -13.119  22.374  1.00  0.00    -0.355 OA
ATOM     21  H2  UNL     1      12.738 -13.968  22.229  1.00  0.00     0.218 HD
ENDBRANCH  12  20
ENDBRANCH   1   4
BRANCH   1  22
HETATM   22  C7  UNL     1      15.906 -14.093  20.964  1.00  0.00     0.013 A
HETATM   23  C8  UNL     1      16.244 -15.268  21.609  1.00  0.00     0.034 A
HETATM   24  C9  UNL     1      17.552 -15.602  21.830  1.00  0.00     0.111 A
HETATM   25  N8  UNL     1      18.586 -14.835  21.446  1.00  0.00    -0.302 N
HETATM   26  N10 UNL     1      18.279 -13.716  20.830  1.00  0.00    -0.305 N
HETATM   27  C21 UNL     1      19.356 -12.844  20.386  1.00  0.00     0.177 C
HETATM   28  C22 UNL     1      17.000 -13.322  20.580  1.00  0.00     0.123 A
BRANCH  25  29
HETATM   29  C10 UNL     1      19.951 -15.230  21.699  1.00  0.00     0.148 C
BRANCH  29  30
HETATM   30  C11 UNL     1      20.191 -16.689  21.384  1.00  0.00     0.022 C
BRANCH  30  31
HETATM   31  C12 UNL     1      21.393 -17.239  22.076  1.00  0.00     0.002 C
BRANCH  31  32
HETATM   32  C13 UNL     1      21.106 -18.042  23.301  1.00  0.00     0.002 C
BRANCH  32  33
HETATM   33  C14 UNL     1      21.348 -17.279  24.576  1.00  0.00     0.020 C
BRANCH  33  34
HETATM   34  C15 UNL     1      22.450 -16.239  24.356  1.00  0.00     0.128 C
BRANCH  34  35
HETATM   35  N9  UNL     1      21.966 -15.007  24.931  1.00  0.00    -0.366 N
HETATM   36  C16 UNL     1      22.150 -13.805  24.362  1.00  0.00     0.090 A
HETATM   37  C17 UNL     1      21.685 -12.640  24.921  1.00  0.00     0.017 A
HETATM   38  C18 UNL     1      20.999 -12.729  26.121  1.00  0.00     0.003 A
HETATM   39  C19 UNL     1      20.797 -13.950  26.723  1.00  0.00     0.017 A
HETATM   40  C20 UNL     1      21.295 -15.075  26.100  1.00  0.00     0.090 A
ENDBRANCH  34  35
ENDBRANCH  33  34
ENDBRANCH  32  33
ENDBRANCH  31  32
ENDBRANCH  30  31
ENDBRANCH  29  30
ENDBRANCH  25  29
ENDBRANCH   1  22
BRANCH   2  41
HETATM   41  N6  UNL     1      13.709 -15.559  19.803  1.00  0.00    -0.249 N
ATOM     42  H6  UNL     1      14.414 -16.193  20.179  1.00  0.00     0.207 HD
BRANCH  41  43
HETATM   43  N7  UNL     1      12.864 -15.958  18.911  1.00  0.00    -0.331 N
ATOM     44  H72 UNL     1      11.973 -15.475  18.801  1.00  0.00     0.178 HD
ATOM     45  H71 UNL     1      13.118 -16.758  18.332  1.00  0.00     0.178 HD
ENDBRANCH  41  43
ENDBRANCH   2  41
TORSDOF 13
ENDMDL