MODEL 1
REMARK VINA RESULT: -7.416213464      0.000      0.000
REMARK  6 active torsions:
REMARK  status: ('A' for Active; 'I' for Inactive)
REMARK    1  A    between atoms: N1_1  and  C1_4
REMARK    2  A    between atoms: C4_14  and  C5_15
REMARK    3  A    between atoms: C5_15  and  N5_16
REMARK    4  A    between atoms: C5_15  and  C6_22
REMARK    5  A    between atoms: N5_16  and  N6_18
REMARK    6  A    between atoms: N6_18  and  N7_19
ROOT
HETATM    1  C1  UNL     1      52.703  31.916  16.094  1.00  0.00     0.679 A
HETATM    2  N2  UNL     1      52.279  31.931  17.369  1.00  0.00    -0.175 N
ATOM      3  H2  UNL     1      52.971  31.967  18.118  1.00  0.00     0.186 HD
HETATM    4  C2  UNL     1      50.973  31.899  17.692  1.00  0.00     0.145 A
HETATM    5  N3  UNL     1      50.592  31.915  18.933  1.00  0.00    -0.383 N
ATOM      6  H31 UNL     1      49.602  31.891  19.178  1.00  0.00     0.157 HD
ATOM      7  H32 UNL     1      51.293  31.952  19.673  1.00  0.00     0.157 HD
HETATM    8  C3  UNL     1      50.023  31.849  16.692  1.00  0.00     0.124 A
HETATM    9  N4  UNL     1      48.692  31.816  16.988  1.00  0.00    -0.337 N
ATOM     10  H4  UNL     1      48.385  31.829  17.961  1.00  0.00     0.167 HD
HETATM   11  C4  UNL     1      47.784  31.768  15.999  1.00  0.00     0.130 A
HETATM   12  N9  UNL     1      48.237  31.754  14.739  1.00  0.00    -0.285 N
ATOM     13  H9  UNL     1      47.554  31.716  13.983  1.00  0.00     0.188 HD
HETATM   14  N10 UNL     1      49.515  31.785  14.420  1.00  0.00    -0.282 N
ATOM     15  H10 UNL     1      49.794  31.773  13.440  1.00  0.00     0.188 HD
HETATM   16  C7  UNL     1      50.448  31.833  15.379  1.00  0.00     0.166 A
HETATM   17  N11 UNL     1      51.759  31.868  15.140  1.00  0.00    -0.173 N
ATOM     18  H11 UNL     1      52.066  31.856  14.168  1.00  0.00     0.186 HD
ENDROOT
BRANCH  11  19
HETATM   19  C5  UNL     1      46.349  31.731  16.290  1.00  0.00     0.255 C
BRANCH  19  20
HETATM   20  N5  UNL     1      45.769  30.430  16.233  1.00  0.00    -0.299 N
ATOM     21  H5  UNL     1      44.854  30.265  15.814  1.00  0.00     0.179 HD
BRANCH  20  22
HETATM   22  N6  UNL     1      46.514  29.416  16.774  1.00  0.00    -0.033 NA
BRANCH  22  23
HETATM   23  N7  UNL     1      45.779  28.865  17.848  1.00  0.00    -0.329 N
ATOM     24  H72 UNL     1      45.042  29.344  18.365  1.00  0.00     0.174 HD
ATOM     25  H71 UNL     1      46.119  27.916  18.005  1.00  0.00     0.174 HD
ENDBRANCH  22  23
ENDBRANCH  20  22
ENDBRANCH  19  20
BRANCH  19  26
HETATM   26  C6  UNL     1      46.103  32.309  17.632  1.00  0.00     0.262 C
HETATM   27  N8  UNL     1      45.088  31.795  18.481  1.00  0.00    -0.060 NA
HETATM   28  O1  UNL     1      46.807  33.268  18.018  1.00  0.00    -0.274 OA
ENDBRANCH  19  26
ENDBRANCH  11  19
BRANCH   1  29
HETATM   29  N1  UNL     1      53.966  31.948  15.817  1.00  0.00    -0.234 N
ATOM     30  H12 UNL     1      54.683  31.972  16.542  1.00  0.00     0.174 HD
ATOM     31  H11 UNL     1      54.288  31.951  14.849  1.00  0.00     0.174 HD
ENDBRANCH   1  29
TORSDOF 6
ENDMDL