MODEL 3
REMARK VINA RESULT: -8.027098751      2.343      5.193
REMARK  5 active torsions:
REMARK  status: ('A' for Active; 'I' for Inactive)
REMARK    1  A    between atoms: N1_2  and  N2_3
REMARK       I    between atoms: N1_2  and  C6_26
REMARK    2  A    between atoms: N2_3  and  N3_5
REMARK    3  A    between atoms: N3_5  and  C2_7
REMARK    4  A    between atoms: C5_16  and  N7_17
REMARK       I    between atoms: C6_26  and  N11_28
REMARK    5  A    between atoms: N11_28  and  N12_30
ROOT
HETATM    1  C2  UNL     1      48.218  32.490  16.509  1.00  0.00     0.155 A
HETATM    2  C3  UNL     1      47.821  31.416  15.831  1.00  0.00     0.102 A
HETATM    3  C4  UNL     1      46.577  30.885  16.079  1.00  0.00     0.155 A
HETATM    4  N4  UNL     1      46.224  29.781  15.353  1.00  0.00    -0.269 N
ATOM      5  H4  UNL     1      45.312  29.347  15.496  1.00  0.00     0.190 HD
HETATM    6  N5  UNL     1      47.054  29.286  14.479  1.00  0.00    -0.239 N
ATOM      7  H5  UNL     1      46.752  28.462  13.959  1.00  0.00     0.208 HD
HETATM    8  N6  UNL     1      48.240  29.761  14.217  1.00  0.00    -0.270 N
ATOM      9  H6  UNL     1      48.825  29.309  13.515  1.00  0.00     0.190 HD
HETATM   10  C5  UNL     1      48.702  30.867  14.885  1.00  0.00     0.132 A
HETATM   11  N8  UNL     1      45.739  31.365  16.946  1.00  0.00    -0.269 N
ATOM     12  H8  UNL     1      44.833  30.913  17.073  1.00  0.00     0.190 HD
HETATM   13  N9  UNL     1      46.058  32.485  17.704  1.00  0.00    -0.239 N
ATOM     14  H9  UNL     1      45.412  32.876  18.390  1.00  0.00     0.208 HD
HETATM   15  N10 UNL     1      47.324  33.046  17.470  1.00  0.00    -0.269 N
ATOM     16  H10 UNL     1      47.610  33.870  18.000  1.00  0.00     0.190 HD
ENDROOT
BRANCH   1  17
HETATM   17  N3  UNL     1      49.493  33.048  16.268  1.00  0.00    -0.269 N
ATOM     18  H3  UNL     1      49.730  33.416  15.346  1.00  0.00     0.190 HD
BRANCH  17  19
HETATM   19  N2  UNL     1      50.352  33.086  17.226  1.00  0.00    -0.235 N
ATOM     20  H2  UNL     1      50.497  33.966  17.722  1.00  0.00     0.208 HD
BRANCH  19  21
HETATM   21  N1  UNL     1      51.086  31.978  17.607  1.00  0.00    -0.231 N
HETATM   22  C1  UNL     1      50.507  31.046  18.523  1.00  0.00     0.184 C
HETATM   23  C6  UNL     1      52.385  31.803  17.077  1.00  0.00     0.355 C
HETATM   24  O1  UNL     1      53.043  30.794  17.432  1.00  0.00    -0.244 OA
HETATM   25  N11 UNL     1      52.949  32.736  16.165  1.00  0.00    -0.257 N
ATOM     26  H11 UNL     1      52.415  33.557  15.877  1.00  0.00     0.191 HD
BRANCH  25  27
HETATM   27  N12 UNL     1      54.221  32.530  15.672  1.00  0.00    -0.341 N
ATOM     28 2H12 UNL     1      54.887  31.993  16.227  1.00  0.00     0.177 HD
ATOM     29 1H12 UNL     1      54.480  32.914  14.763  1.00  0.00     0.177 HD
ENDBRANCH  25  27
ENDBRANCH  19  21
ENDBRANCH  17  19
ENDBRANCH   1  17
BRANCH  10  30
HETATM   30  N7  UNL     1      49.791  31.322  14.653  1.00  0.00    -0.384 N
ATOM     31  H72 UNL     1      49.953  31.910  13.835  1.00  0.00     0.157 HD
ATOM     32  H71 UNL     1      50.604  31.159  15.246  1.00  0.00     0.157 HD
ENDBRANCH  10  30
TORSDOF 5
ENDMDL