MODEL 4
REMARK VINA RESULT: -7.075725543      1.303      4.675
REMARK  7 active torsions:
REMARK  status: ('A' for Active; 'I' for Inactive)
REMARK    1  A    between atoms: C1_4  and  O1_5
REMARK    2  A    between atoms: C1_4  and  C2_7
REMARK    3  A    between atoms: C2_7  and  O2_8
REMARK    4  A    between atoms: C2_7  and  N2_10
REMARK    5  A    between atoms: C4_12  and  N3_13
REMARK    6  A    between atoms: N6_20  and  N7_21
REMARK    7  A    between atoms: N7_21  and  C7_23
ROOT
HETATM    1  N2  UNL     1      47.920  31.750  15.334  1.00  0.00    -0.241 N
HETATM    2  C3  UNL     1      46.723  31.815  15.941  1.00  0.00     0.146 A
HETATM    3  C4  UNL     1      46.583  32.454  17.141  1.00  0.00     0.071 A
HETATM    4  C5  UNL     1      47.705  33.005  17.664  1.00  0.00     0.118 A
HETATM    5  N4  UNL     1      47.670  33.698  18.920  1.00  0.00    -0.096 NA
HETATM    6  C6  UNL     1      48.962  32.939  17.034  1.00  0.00     0.183 A
HETATM    7  N5  UNL     1      50.049  33.528  17.741  1.00  0.00    -0.077 NA
HETATM    8  N6  UNL     1      49.045  32.303  15.863  1.00  0.00    -0.162 N
ENDROOT
BRANCH   8   9
HETATM    9  N7  UNL     1      50.209  32.097  15.196  1.00  0.00    -0.106 N
ATOM     10  H7  UNL     1      50.162  32.390  14.220  1.00  0.00     0.208 HD
BRANCH   9  11
HETATM   11  C7  UNL     1      51.469  31.571  15.546  1.00  0.00     0.730 A
HETATM   12  N8  UNL     1      52.499  32.449  15.915  1.00  0.00    -0.114 N
HETATM   13  N9  UNL     1      53.537  31.731  16.242  1.00  0.00    -0.213 N
ATOM     14  H8  UNL     1      52.447  33.467  15.924  1.00  0.00     0.207 HD
HETATM   15  N10 UNL     1      53.262  30.428  16.114  1.00  0.00    -0.213 N
ATOM     16  H9  UNL     1      54.432  32.109  16.552  1.00  0.00     0.210 HD
HETATM   17  N11 UNL     1      52.034  30.397  15.702  1.00  0.00    -0.114 N
ATOM     18  H10 UNL     1      53.879  29.637  16.299  1.00  0.00     0.210 HD
ATOM     19  H11 UNL     1      51.542  29.524  15.511  1.00  0.00     0.207 HD
ENDBRANCH   9  11
ENDBRANCH   8   9
BRANCH   1  20
HETATM   20  C2  UNL     1      47.967  31.075  14.032  1.00  0.00     0.317 C
BRANCH  20  21
HETATM   21  C1  UNL     1      48.346  29.639  14.230  1.00  0.00     0.161 C
HETATM   22  N1  UNL     1      47.450  28.731  14.289  1.00  0.00    -0.380 N
ATOM     23  H12 UNL     1      47.709  27.753  14.424  1.00  0.00     0.158 HD
ATOM     24  H11 UNL     1      46.467  28.985  14.201  1.00  0.00     0.158 HD
BRANCH  21  25
HETATM   25  O1  UNL     1      49.680  29.294  14.350  1.00  0.00    -0.346 OA
ATOM     26  H1  UNL     1      50.211  29.698  15.026  1.00  0.00     0.219 HD
ENDBRANCH  21  25
ENDBRANCH  20  21
BRANCH  20  27
HETATM   27  O2  UNL     1      48.920  31.729  13.263  1.00  0.00    -0.368 OA
ATOM     28  H2  UNL     1      49.305  32.449  13.750  1.00  0.00     0.212 HD
ENDBRANCH  20  27
ENDBRANCH   1  20
BRANCH   3  29
HETATM   29  N3  UNL     1      45.434  32.540  17.759  1.00  0.00    -0.396 N
ATOM     30  H32 UNL     1      45.372  32.893  18.714  1.00  0.00     0.156 HD
ATOM     31  H31 UNL     1      44.556  32.265  17.319  1.00  0.00     0.156 HD
ENDBRANCH   3  29
TORSDOF 7
ENDMDL