MODEL 4
REMARK VINA RESULT: -7.405626688      1.895      4.567
REMARK  8 active torsions:
REMARK  status: ('A' for Active; 'I' for Inactive)
REMARK    1  A    between atoms: N1_1  and  N2_4
REMARK    2  A    between atoms: N2_4  and  N3_6
REMARK    3  A    between atoms: N3_6  and  N4_8
REMARK       I    between atoms: N4_8  and  C1_10
REMARK       I    between atoms: C1_10  and  N5_11
REMARK       I    between atoms: C1_10  and  N11_30
REMARK    4  A    between atoms: N5_11  and  C2_13
REMARK    5  A    between atoms: C5_19  and  N7_20
REMARK    6  A    between atoms: N8_22  and  O2_24
REMARK    7  A    between atoms: N9_26  and  N10_27
REMARK    8  A    between atoms: N11_30  and  N12_32
ROOT
HETATM    1  C2  UNL     1      49.442  32.153  16.096  1.00  0.00     0.722 A
HETATM    2  N6  UNL     1      48.548  31.390  15.357  1.00  0.00    -0.154 N
ATOM      3  H6  UNL     1      47.589  31.720  15.252  1.00  0.00     0.187 HD
HETATM    4  C3  UNL     1      48.897  30.245  14.783  1.00  0.00     0.263 A
HETATM    5  O1  UNL     1      48.067  29.577  14.123  1.00  0.00    -0.268 OA
HETATM    6  C4  UNL     1      50.194  29.788  14.921  1.00  0.00     0.127 A
HETATM    7  C5  UNL     1      51.076  30.549  15.654  1.00  0.00     0.166 A
HETATM    8  N9  UNL     1      50.701  31.729  16.240  1.00  0.00    -0.074 N
ENDROOT
BRANCH   1   9
HETATM    9  N5  UNL     1      49.032  33.218  16.604  1.00  0.00    -0.018 N
HETATM   10  C1  UNL     1      48.706  33.536  17.901  1.00  0.00     0.726 C
HETATM   11  N4  UNL     1      47.468  33.441  18.305  1.00  0.00    -0.115 N
HETATM   12  N11 UNL     1      49.643  34.005  18.886  1.00  0.00    -0.137 N
ATOM     13  H4  UNL     1      47.218  33.675  19.266  1.00  0.00     0.207 HD
ATOM     14  H11 UNL     1      50.574  34.297  18.591  1.00  0.00     0.205 HD
ATOM     15  H5  UNL     1      48.920  33.985  15.940  1.00  0.00     0.203 HD
BRANCH  11  16
HETATM   16  N3  UNL     1      46.492  33.017  17.406  1.00  0.00    -0.214 N
ATOM     17  H3  UNL     1      46.502  33.388  16.456  1.00  0.00     0.210 HD
BRANCH  16  18
HETATM   18  N2  UNL     1      45.592  32.185  17.728  1.00  0.00    -0.234 N
ATOM     19  H2  UNL     1      44.765  32.480  18.248  1.00  0.00     0.209 HD
BRANCH  18  20
HETATM   20  N1  UNL     1      45.767  30.854  17.352  1.00  0.00    -0.330 N
ATOM     21  H12 UNL     1      45.163  30.129  17.740  1.00  0.00     0.178 HD
ATOM     22  H11 UNL     1      46.510  30.638  16.687  1.00  0.00     0.178 HD
ENDBRANCH  18  20
ENDBRANCH  16  18
ENDBRANCH  11  16
BRANCH  12  23
HETATM   23  N12 UNL     1      49.306  34.067  20.232  1.00  0.00    -0.331 N
ATOM     24 2H12 UNL     1      49.930  34.569  20.863  1.00  0.00     0.177 HD
ATOM     25 1H12 UNL     1      48.458  33.626  20.588  1.00  0.00     0.177 HD
ENDBRANCH  12  23
ENDBRANCH   1   9
BRANCH   8  26
HETATM   26  N10 UNL     1      51.690  32.384  16.944  1.00  0.00    -0.322 N
ATOM     27 2H10 UNL     1      51.365  32.977  17.707  1.00  0.00     0.178 HD
ATOM     28 1H10 UNL     1      52.690  32.316  16.759  1.00  0.00     0.178 HD
ENDBRANCH   8  26
BRANCH   7  29
HETATM   29  N7  UNL     1      52.410  30.121  15.819  1.00  0.00    -0.264 N
HETATM   30  N8  UNL     1      52.833  29.516  16.850  1.00  0.00    -0.208 N
ATOM     31  H8  UNL     1      53.814  29.240  16.889  1.00  0.00     0.215 HD
ATOM     32  H7  UNL     1      53.072  30.307  15.066  1.00  0.00     0.190 HD
BRANCH  30  33
HETATM   33  O2  UNL     1      52.019  29.218  17.918  1.00  0.00    -0.274 OA
ATOM     34  H2  UNL     1      52.361  28.924  18.753  1.00  0.00     0.246 HD
ENDBRANCH  30  33
ENDBRANCH   7  29
TORSDOF 8
ENDMDL