MODEL 3
REMARK VINA RESULT: -6.861774903      1.058      1.832
REMARK  5 active torsions:
REMARK  status: ('A' for Active; 'I' for Inactive)
REMARK    1  A    between atoms: C2_3  and  C3_4
REMARK    2  A    between atoms: C2_3  and  C9_28
REMARK    3  A    between atoms: C5_10  and  N4_11
REMARK       I    between atoms: N4_11  and  C6_13
REMARK       I    between atoms: C6_13  and  N5_14
REMARK       I    between atoms: C6_13  and  N6_18
REMARK    4  A    between atoms: C9_28  and  N9_29
REMARK    5  A    between atoms: C9_28  and  N10_33
ROOT
HETATM    1  N1  UNL     1      52.756  29.570  18.039  1.00  0.00    -0.196 NA
HETATM    2  C1  UNL     1      52.428  30.593  17.622  1.00  0.00     0.074 C
HETATM    3  C2  UNL     1      52.002  31.884  17.121  1.00  0.00     0.204 C
ENDROOT
BRANCH   3   4
HETATM    4  C3  UNL     1      50.532  32.057  17.202  1.00  0.00     0.076 A
HETATM    5  N2  UNL     1      49.771  32.740  18.049  1.00  0.00    -0.300 N
HETATM    6  N3  UNL     1      48.488  32.615  17.748  1.00  0.00    -0.295 N
ATOM      7  H2  UNL     1      50.129  33.290  18.830  1.00  0.00     0.186 HD
HETATM    8  C4  UNL     1      48.390  31.826  16.669  1.00  0.00     0.121 A
ATOM      9  H3  UNL     1      47.711  33.045  18.250  1.00  0.00     0.187 HD
HETATM   10  C5  UNL     1      47.323  31.343  15.903  1.00  0.00     0.136 A
HETATM   11  C8  UNL     1      49.657  31.459  16.302  1.00  0.00     0.091 A
HETATM   12  N7  UNL     1      47.602  30.561  14.870  1.00  0.00    -0.337 N
HETATM   13  C7  UNL     1      48.849  30.201  14.509  1.00  0.00     0.182 A
ATOM     14  H7  UNL     1      46.823  30.210  14.312  1.00  0.00     0.168 HD
HETATM   15  N8  UNL     1      49.877  30.659  15.238  1.00  0.00    -0.349 N
ATOM     16  H8  UNL     1      50.832  30.401  14.986  1.00  0.00     0.167 HD
BRANCH  10  17
HETATM   17  N4  UNL     1      46.149  31.690  16.256  1.00  0.00    -0.325 N
HETATM   18  C6  UNL     1      45.588  31.596  17.551  1.00  0.00     0.481 C
HETATM   19  N5  UNL     1      44.684  32.688  17.871  1.00  0.00    -0.033 N
HETATM   20  N6  UNL     1      44.828  30.376  17.766  1.00  0.00    -0.033 N
ATOM     21  H53 UNL     1      45.147  33.589  17.742  1.00  0.00     0.278 HD
ATOM     22  H52 UNL     1      43.952  32.770  17.166  1.00  0.00     0.278 HD
ATOM     23  H51 UNL     1      44.280  32.621  18.805  1.00  0.00     0.278 HD
ATOM     24  H63 UNL     1      44.109  30.269  17.051  1.00  0.00     0.278 HD
ATOM     25  H62 UNL     1      45.397  29.556  17.558  1.00  0.00     0.278 HD
ATOM     26  H61 UNL     1      44.424  30.308  18.700  1.00  0.00     0.278 HD
ATOM     27  H4  UNL     1      45.550  32.077  15.526  1.00  0.00     0.165 HD
ENDBRANCH  10  17
ENDBRANCH   3   4
BRANCH   3  28
HETATM   28  C9  UNL     1      52.524  32.105  15.731  1.00  0.00     0.401 C
BRANCH  28  29
HETATM   29  N9  UNL     1      53.733  32.906  15.851  1.00  0.00    -0.049 N
ATOM     30  H93 UNL     1      53.663  33.810  15.384  1.00  0.00     0.276 HD
ATOM     31  H92 UNL     1      53.888  33.258  16.795  1.00  0.00     0.276 HD
ATOM     32  H91 UNL     1      54.504  32.335  15.505  1.00  0.00     0.276 HD
ENDBRANCH  28  29
BRANCH  28  33
HETATM   33  N10 UNL     1      52.943  30.832  15.123  1.00  0.00    -0.049 N
ATOM     34 3H10 UNL     1      53.851  30.914  14.665  1.00  0.00     0.276 HD
ATOM     35 2H10 UNL     1      53.190  30.140  15.830  1.00  0.00     0.276 HD
ATOM     36 1H10 UNL     1      52.228  30.483  14.485  1.00  0.00     0.276 HD
ENDBRANCH  28  33
ENDBRANCH   3  28
TORSDOF 5
ENDMDL