MODEL 4
REMARK VINA RESULT: -7.853679594      1.321      2.078
REMARK  8 active torsions:
REMARK  status: ('A' for Active; 'I' for Inactive)
REMARK    1  A    between atoms: N1_1  and  N2_4
REMARK    2  A    between atoms: C1_6  and  N3_7
REMARK    3  A    between atoms: C1_6  and  C2_13
REMARK    4  A    between atoms: N3_7  and  N4_9
REMARK    5  A    between atoms: N4_9  and  N5_10
REMARK    6  A    between atoms: C2_13  and  N6_14
REMARK    7  A    between atoms: C2_13  and  C3_18
REMARK    8  A    between atoms: C5_23  and  C6_24
ROOT
HETATM    1  C2  UNL     1      49.698  31.443  16.132  1.00  0.00     0.290 C
ENDROOT
BRANCH   1   2
HETATM    2  C1  UNL     1      51.058  31.009  15.842  1.00  0.00     0.144 C
HETATM    3  N2  UNL     1      51.380  29.774  15.915  1.00  0.00    -0.293 N
ATOM      4  H2  UNL     1      50.663  29.115  16.219  1.00  0.00     0.187 HD
BRANCH   3   5
HETATM    5  N1  UNL     1      52.634  29.264  15.612  1.00  0.00    -0.344 N
ATOM      6  H12 UNL     1      53.185  29.786  14.930  1.00  0.00     0.176 HD
ATOM      7  H11 UNL     1      53.032  28.418  16.018  1.00  0.00     0.176 HD
ENDBRANCH   3   5
BRANCH   2   8
HETATM    8  N3  UNL     1      52.043  31.923  15.422  1.00  0.00    -0.270 N
ATOM      9  H3  UNL     1      52.126  32.182  14.439  1.00  0.00     0.185 HD
BRANCH   8  10
HETATM   10  N4  UNL     1      52.905  32.469  16.378  1.00  0.00    -0.029 NA
BRANCH  10  11
HETATM   11  N5  UNL     1      54.198  32.652  15.862  1.00  0.00    -0.329 N
ATOM     12  H52 UNL     1      55.035  32.681  16.444  1.00  0.00     0.174 HD
ATOM     13  H51 UNL     1      54.186  32.751  14.848  1.00  0.00     0.174 HD
ENDBRANCH  10  11
ENDBRANCH   8  10
ENDBRANCH   2   8
ENDBRANCH   1   2
BRANCH   1  14
HETATM   14  N6  UNL     1      49.628  32.933  16.184  1.00  0.00    -0.064 N
ATOM     15  H63 UNL     1      50.316  33.323  16.827  1.00  0.00     0.275 HD
ATOM     16  H62 UNL     1      49.966  33.359  15.322  1.00  0.00     0.275 HD
ATOM     17  H61 UNL     1      48.681  33.236  16.412  1.00  0.00     0.275 HD
ENDBRANCH   1  14
BRANCH   1  18
HETATM   18  C3  UNL     1      48.611  30.964  15.294  1.00  0.00     0.036 A
HETATM   19  C4  UNL     1      48.882  30.435  14.014  1.00  0.00     0.179 A
HETATM   20  O1  UNL     1      47.737  30.142  13.463  1.00  0.00    -0.249 OA
HETATM   21  N7  UNL     1      46.768  30.419  14.236  1.00  0.00    -0.257 N
HETATM   22  C5  UNL     1      47.258  30.940  15.409  1.00  0.00     0.111 A
ATOM     23  H7  UNL     1      45.781  30.276  14.020  1.00  0.00     0.195 HD
BRANCH  22  24
HETATM   24  C6  UNL     1      46.466  31.345  16.536  1.00  0.00     0.160 A
HETATM   25  N8  UNL     1      45.505  30.719  17.176  1.00  0.00    -0.283 N
HETATM   26  C7  UNL     1      45.032  31.508  18.150  1.00  0.00     0.388 A
ATOM     27  H8  UNL     1      45.171  29.778  16.963  1.00  0.00     0.172 HD
HETATM   28  O2  UNL     1      44.114  31.251  18.967  1.00  0.00    -0.236 OA
HETATM   29  O3  UNL     1      45.730  32.611  18.076  1.00  0.00    -0.179 OA
HETATM   30  N9  UNL     1      46.595  32.550  17.125  1.00  0.00    -0.238 N
ATOM     31  H9  UNL     1      47.257  33.280  16.864  1.00  0.00     0.197 HD
ENDBRANCH  22  24
ENDBRANCH   1  18
TORSDOF 8
ENDMDL