MODEL 5
REMARK VINA RESULT: -5.650281257      1.713      5.446
REMARK  7 active torsions:
REMARK  status: ('A' for Active; 'I' for Inactive)
REMARK    1  A    between atoms: C2_2  and  C3_3
REMARK    2  A    between atoms: C2_2  and  N2_8
REMARK    3  A    between atoms: C3_3  and  N1_4
REMARK    4  A    between atoms: C5_16  and  N6_17
REMARK    5  A    between atoms: C6_22  and  N8_23
REMARK    6  A    between atoms: N8_23  and  N9_25
REMARK    7  A    between atoms: N10_30  and  N11_32
ROOT
HETATM    1  N2  UNL     1      47.516  31.301  15.406  1.00  0.00    -0.254 N
HETATM    2  N3  UNL     1      46.545  32.034  15.985  1.00  0.00    -0.237 N
ATOM      3  H3  UNL     1      45.611  31.985  15.579  1.00  0.00     0.208 HD
HETATM    4  N4  UNL     1      46.711  32.807  17.034  1.00  0.00    -0.269 N
ATOM      5  H4  UNL     1      45.911  33.325  17.399  1.00  0.00     0.190 HD
HETATM    6  C4  UNL     1      47.903  32.935  17.641  1.00  0.00     0.154 A
HETATM    7  N5  UNL     1      48.033  33.742  18.722  1.00  0.00    -0.174 N
ATOM      8  H5  UNL     1      47.249  34.270  19.107  1.00  0.00     0.186 HD
HETATM    9  C5  UNL     1      49.269  33.800  19.253  1.00  0.00     0.679 A
HETATM   10  N7  UNL     1      50.310  33.113  18.760  1.00  0.00    -0.174 N
ATOM     11  H7  UNL     1      51.222  33.200  19.209  1.00  0.00     0.186 HD
HETATM   12  C6  UNL     1      50.177  32.310  17.682  1.00  0.00     0.153 A
HETATM   13  C7  UNL     1      48.931  32.225  17.112  1.00  0.00     0.102 A
HETATM   14  C8  UNL     1      48.737  31.394  15.976  1.00  0.00     0.156 A
HETATM   15  N10 UNL     1      49.675  30.784  15.536  1.00  0.00    -0.290 N
ATOM     16  H10 UNL     1      50.404  31.081  16.186  1.00  0.00     0.188 HD
ENDROOT
BRANCH   1  17
HETATM   17  C2  UNL     1      47.118  30.543  14.289  1.00  0.00     0.133 C
HETATM   18  C1  UNL     1      46.016  30.933  13.418  1.00  0.00     0.036 C
BRANCH  17  19
HETATM   19  C3  UNL     1      46.946  29.090  14.714  1.00  0.00     0.256 C
BRANCH  19  20
HETATM   20  N1  UNL     1      46.122  29.000  15.915  1.00  0.00    -0.077 N
ATOM     21  H13 UNL     1      46.660  29.198  16.759  1.00  0.00     0.274 HD
ATOM     22  H12 UNL     1      45.455  29.769  15.976  1.00  0.00     0.274 HD
ATOM     23  H11 UNL     1      45.659  28.093  15.966  1.00  0.00     0.274 HD
ENDBRANCH  19  20
ENDBRANCH  17  19
ENDBRANCH   1  17
BRANCH  15  24
HETATM   24  N11 UNL     1      50.354  29.997  14.774  1.00  0.00    -0.344 N
ATOM     25 2H11 UNL     1      50.907  29.557  15.510  1.00  0.00     0.176 HD
ATOM     26 1H11 UNL     1      50.687  29.542  13.924  1.00  0.00     0.176 HD
ENDBRANCH  15  24
BRANCH  12  27
HETATM   27  N8  UNL     1      51.179  31.650  17.209  1.00  0.00    -0.291 N
ATOM     28  H8  UNL     1      51.049  30.725  16.799  1.00  0.00     0.188 HD
BRANCH  27  29
HETATM   29  N9  UNL     1      52.433  32.227  17.272  1.00  0.00    -0.344 N
ATOM     30  H92 UNL     1      53.203  31.829  16.735  1.00  0.00     0.176 HD
ATOM     31  H91 UNL     1      52.558  33.049  17.864  1.00  0.00     0.176 HD
ENDBRANCH  27  29
ENDBRANCH  12  27
BRANCH   9  32
HETATM   32  N6  UNL     1      49.396  34.576  20.292  1.00  0.00    -0.234 N
ATOM     33  H62 UNL     1      49.858  34.255  21.144  1.00  0.00     0.174 HD
ATOM     34  H61 UNL     1      49.003  35.511  20.190  1.00  0.00     0.174 HD
ENDBRANCH   9  32
TORSDOF 7
ENDMDL