MODEL 4
REMARK VINA RESULT: -8.959441639      0.743      1.226
REMARK  4 active torsions:
REMARK  status: ('A' for Active; 'I' for Inactive)
REMARK    1  A    between atoms: C2_7  and  C3_8
REMARK    2  A    between atoms: C3_8  and  N3_9
REMARK    3  A    between atoms: N3_9  and  N4_10
REMARK    4  A    between atoms: N3_9  and  C4_13
ROOT
HETATM    1  N1  UNL     1      52.254  29.208  15.630  1.00  0.00    -0.234 N
ATOM      2  H11 UNL     1      52.846  28.887  16.395  1.00  0.00     0.174 HD
ATOM      3  H12 UNL     1      52.256  28.866  14.669  1.00  0.00     0.174 HD
HETATM    4  C1  UNL     1      51.431  30.118  15.886  1.00  0.00     0.677 C
HETATM    5  N2  UNL     1      50.611  30.563  14.825  1.00  0.00    -0.187 N
ATOM      6  H2  UNL     1      50.905  30.337  13.875  1.00  0.00     0.184 HD
HETATM    7  C2  UNL     1      49.468  31.263  14.973  1.00  0.00     0.119 C
HETATM    8  C6  UNL     1      49.346  32.327  15.850  1.00  0.00     0.228 C
HETATM    9  O2  UNL     1      48.574  33.208  15.476  1.00  0.00    -0.284 OA
HETATM   10  C7  UNL     1      50.006  32.496  17.075  1.00  0.00     0.140 C
HETATM   11  N8  UNL     1      49.574  33.648  17.781  1.00  0.00    -0.095 NA
HETATM   12  C8  UNL     1      50.958  31.726  17.688  1.00  0.00     0.160 C
HETATM   13  N9  UNL     1      51.460  32.162  18.923  1.00  0.00    -0.080 NA
HETATM   14  N10 UNL     1      51.428  30.574  17.165  1.00  0.00    -0.177 N
ATOM     15  H10 UNL     1      51.852  29.940  17.843  1.00  0.00     0.185 HD
ENDROOT
BRANCH   7  16
HETATM   16  C3  UNL     1      48.228  30.807  14.338  1.00  0.00     0.168 C
BRANCH  16  17
HETATM   17  N3  UNL     1      47.230  30.132  15.052  1.00  0.00    -0.100 N
BRANCH  17  18
HETATM   18  N4  UNL     1      47.016  28.758  14.712  1.00  0.00    -0.324 N
ATOM     19  H42 UNL     1      47.075  28.083  15.475  1.00  0.00     0.178 HD
ATOM     20  H41 UNL     1      46.899  28.543  13.721  1.00  0.00     0.178 HD
ENDBRANCH  17  18
BRANCH  17  21
HETATM   21  C4  UNL     1      46.500  30.634  16.137  1.00  0.00     0.721 A
HETATM   22  N5  UNL     1      46.261  31.960  16.394  1.00  0.00    -0.126 N
HETATM   23  N6  UNL     1      45.475  32.106  17.456  1.00  0.00    -0.236 N
ATOM     24  H5  UNL     1      46.637  32.731  15.843  1.00  0.00     0.206 HD
HETATM   25  C5  UNL     1      45.224  30.869  17.887  1.00  0.00     0.353 A
ATOM     26  H6  UNL     1      45.135  32.980  17.856  1.00  0.00     0.192 HD
HETATM   27  O1  UNL     1      44.500  30.648  18.942  1.00  0.00    -0.245 OA
HETATM   28  N7  UNL     1      45.825  29.973  17.114  1.00  0.00    -0.137 N
ATOM     29  H7  UNL     1      45.787  28.961  17.233  1.00  0.00     0.189 HD
ENDBRANCH  17  21
ENDBRANCH  16  17
ENDBRANCH   7  16
TORSDOF 4
ENDMDL