MODEL 3
REMARK VINA RESULT: -7.497580952      2.295      5.903
REMARK  7 active torsions:
REMARK  status: ('A' for Active; 'I' for Inactive)
REMARK    1  A    between atoms: N1_1  and  C1_4
REMARK    2  A    between atoms: C3_9  and  C4_10
REMARK       I    between atoms: C4_10  and  N4_12
REMARK    3  A    between atoms: N4_12  and  N5_14
REMARK    4  A    between atoms: C5_19  and  C6_20
REMARK    5  A    between atoms: C6_20  and  O3_22
REMARK    6  A    between atoms: O3_22  and  C7_23
REMARK       I    between atoms: C7_23  and  N7_25
REMARK    7  A    between atoms: N7_25  and  N8_27
ROOT
HETATM    1  C1  UNL     1      48.096  32.784  17.077  1.00  0.00     0.133 A
HETATM    2  N2  UNL     1      49.200  32.718  17.902  1.00  0.00    -0.327 N
ATOM      3  H2  UNL     1      49.135  33.123  18.836  1.00  0.00     0.168 HD
HETATM    4  C2  UNL     1      50.351  32.148  17.531  1.00  0.00     0.150 A
HETATM    5  N3  UNL     1      51.476  32.099  18.416  1.00  0.00    -0.080 NA
HETATM    6  C3  UNL     1      50.468  31.594  16.275  1.00  0.00     0.144 A
HETATM    7  N6  UNL     1      49.417  31.644  15.460  1.00  0.00    -0.341 N
ATOM      8  H6  UNL     1      49.491  31.236  14.529  1.00  0.00     0.166 HD
HETATM    9  C5  UNL     1      48.233  32.230  15.842  1.00  0.00     0.153 A
ENDROOT
BRANCH   9  10
HETATM   10  C6  UNL     1      47.135  32.233  14.868  1.00  0.00     0.322 C
HETATM   11  O2  UNL     1      47.141  32.982  13.890  1.00  0.00    -0.257 OA
BRANCH  10  12
HETATM   12  O3  UNL     1      46.043  31.349  15.062  1.00  0.00    -0.221 OA
BRANCH  12  13
HETATM   13  C7  UNL     1      46.205  30.216  15.853  1.00  0.00     0.386 C
HETATM   14  O4  UNL     1      46.767  29.230  15.301  1.00  0.00    -0.236 OA
HETATM   15  N7  UNL     1      45.763  30.168  17.203  1.00  0.00    -0.252 N
ATOM     16  H7  UNL     1      45.311  30.981  17.623  1.00  0.00     0.191 HD
BRANCH  15  17
HETATM   17  N8  UNL     1      45.950  29.006  17.952  1.00  0.00    -0.341 N
ATOM     18  H82 UNL     1      45.895  28.101  17.486  1.00  0.00     0.177 HD
ATOM     19  H81 UNL     1      46.138  29.073  18.952  1.00  0.00     0.177 HD
ENDBRANCH  15  17
ENDBRANCH  12  13
ENDBRANCH  10  12
ENDBRANCH   9  10
BRANCH   1  20
HETATM   20  N1  UNL     1      47.070  33.338  17.520  1.00  0.00    -0.383 N
ATOM     21  H12 UNL     1      46.871  33.531  18.502  1.00  0.00     0.157 HD
ATOM     22  H11 UNL     1      46.358  33.629  16.850  1.00  0.00     0.157 HD
ENDBRANCH   1  20
BRANCH   6  23
HETATM   23  C4  UNL     1      51.732  30.957  15.845  1.00  0.00     0.289 C
HETATM   24  O1  UNL     1      52.569  31.701  15.290  1.00  0.00    -0.264 OA
HETATM   25  N4  UNL     1      51.963  29.576  16.058  1.00  0.00    -0.271 N
ATOM     26  H4  UNL     1      51.248  29.011  16.516  1.00  0.00     0.189 HD
BRANCH  25  27
HETATM   27  N5  UNL     1      53.150  28.982  15.652  1.00  0.00    -0.342 N
ATOM     28  H52 UNL     1      53.312  28.846  14.654  1.00  0.00     0.176 HD
ATOM     29  H51 UNL     1      53.847  28.687  16.335  1.00  0.00     0.176 HD
ENDBRANCH  25  27
ENDBRANCH   6  23
TORSDOF 7
ENDMDL