MODEL 1
REMARK VINA RESULT: -4.715011043      0.000      0.000
REMARK  4 active torsions:
REMARK  status: ('A' for Active; 'I' for Inactive)
REMARK    1  A    between atoms: C1_4  and  N2_5
REMARK    2  A    between atoms: N2_5  and  N3_7
REMARK    3  A    between atoms: N3_7  and  N4_8
REMARK    4  A    between atoms: N4_8  and  C2_10
ROOT
HETATM    1  N3  UNL     1      12.794  -7.430  23.803  1.00  0.00    -0.024 NA
ENDROOT
BRANCH   1   2
HETATM    2  N2  UNL     1      12.190  -6.506  24.667  1.00  0.00    -0.281 N
ATOM      3  H2  UNL     1      11.670  -5.704  24.312  1.00  0.00     0.185 HD
BRANCH   2   4
HETATM    4  C1  UNL     1      12.337  -6.739  26.063  1.00  0.00     0.188 C
HETATM    5  N1  UNL     1      12.977  -5.917  26.822  1.00  0.00    -0.394 N
ATOM      6  H12 UNL     1      13.382  -5.084  26.395  1.00  0.00     0.156 HD
ATOM      7  H11 UNL     1      13.082  -6.083  27.822  1.00  0.00     0.156 HD
ENDBRANCH   2   4
ENDBRANCH   1   2
BRANCH   1   8
HETATM    8  N4  UNL     1      11.987  -8.481  23.602  1.00  0.00    -0.288 N
ATOM      9  H4  UNL     1      11.009  -8.344  23.346  1.00  0.00     0.180 HD
BRANCH   8  10
HETATM   10  C2  UNL     1      12.517  -9.786  23.750  1.00  0.00     0.291 A
HETATM   11  N5  UNL     1      11.564 -10.889  23.462  1.00  0.00    -0.328 N
HETATM   12  C3  UNL     1      12.804 -10.639  22.676  1.00  0.00     0.263 A
ATOM     13  H5  UNL     1      10.712 -11.416  23.656  1.00  0.00     0.165 HD
HETATM   14  O1  UNL     1      13.456 -11.082  21.698  1.00  0.00    -0.269 OA
ENDBRANCH   8  10
ENDBRANCH   1   8
TORSDOF 4
ENDMDL