MODEL 2
REMARK VINA RESULT: -4.130618440      1.354      1.653
REMARK  5 active torsions:
REMARK  status: ('A' for Active; 'I' for Inactive)
REMARK    1  A    between atoms: O1_2  and  C2_3
REMARK    2  A    between atoms: C2_3  and  N1_4
REMARK    3  A    between atoms: C3_5  and  O2_6
REMARK    4  A    between atoms: C4_8  and  N2_9
REMARK    5  A    between atoms: N2_9  and  N3_10
ROOT
HETATM    1  N1  UNL     1      15.477  -2.346  29.879  1.00  0.00     0.169 N
HETATM    2  C3  UNL     1      15.678  -1.430  28.748  1.00  0.00     0.413 A
HETATM    3  C4  UNL     1      15.684  -2.908  28.570  1.00  0.00     0.399 A
ENDROOT
BRANCH   3   4
HETATM    4  N2  UNL     1      16.968  -3.487  28.249  1.00  0.00    -0.107 NA
BRANCH   4   5
HETATM    5  N3  UNL     1      16.874  -4.857  28.303  1.00  0.00    -0.346 N
ATOM      6  H32 UNL     1      16.009  -5.371  28.467  1.00  0.00     0.172 HD
ATOM      7  H31 UNL     1      17.797  -5.264  28.153  1.00  0.00     0.172 HD
ENDBRANCH   4   5
ENDBRANCH   3   4
BRANCH   1   8
HETATM    8  C2  UNL     1      14.146  -2.269  30.433  1.00  0.00     0.446 C
BRANCH   8   9
HETATM    9  O1  UNL     1      14.126  -1.186  31.308  1.00  0.00    -0.367 OA
HETATM   10  C1  UNL     1      13.511  -1.502  32.516  1.00  0.00     0.204 C
ENDBRANCH   8   9
ENDBRANCH   1   8
BRANCH   2  11
HETATM   11  O2  UNL     1      14.589  -0.724  28.266  1.00  0.00    -0.365 OA
ATOM     12  H2  UNL     1      14.580  -0.472  27.350  1.00  0.00     0.212 HD
ENDBRANCH   2  11
TORSDOF 5
ENDMDL