MODEL 5
REMARK VINA RESULT: -4.073434988      6.360      7.152
REMARK  3 active torsions:
REMARK  status: ('A' for Active; 'I' for Inactive)
REMARK    1  A    between atoms: N1_2  and  C2_5
REMARK    2  A    between atoms: C2_5  and  N2_6
REMARK    3  A    between atoms: N3_8  and  N4_9
ROOT
HETATM    1  N2  UNL     1      11.497  -8.387  24.071  1.00  0.00    -0.166 NA
HETATM    2  C3  UNL     1      12.261  -9.349  24.804  1.00  0.00     0.281 C
HETATM    3  N3  UNL     1      13.388  -8.653  24.248  1.00  0.00    -0.194 N
HETATM    4  N6  UNL     1      12.595  -7.516  24.188  1.00  0.00    -0.024 NA
ENDROOT
BRANCH   1   5
HETATM    5  C2  UNL     1      10.286  -7.917  24.700  1.00  0.00     0.344 C
BRANCH   5   6
HETATM    6  N1  UNL     1      10.683  -6.748  25.505  1.00  0.00    -0.066 N
HETATM    7  C1  UNL     1      10.201  -6.890  26.872  1.00  0.00     0.268 C
ATOM      8  H12 UNL     1      10.375  -5.873  25.082  1.00  0.00     0.278 HD
ATOM      9  H11 UNL     1      11.689  -6.586  25.471  1.00  0.00     0.278 HD
ENDBRANCH   5   6
ENDBRANCH   1   5
BRANCH   3  10
HETATM   10  N4  UNL     1      14.694  -8.919  23.900  1.00  0.00    -0.233 N
HETATM   11  N5  UNL     1      15.706  -8.599  24.593  1.00  0.00    -0.330 N
ATOM     12  H52 UNL     1      15.523  -8.109  25.468  1.00  0.00     0.178 HD
ATOM     13  H51 UNL     1      16.674  -8.796  24.336  1.00  0.00     0.178 HD
ATOM     14  H4  UNL     1      14.859  -9.410  23.021  1.00  0.00     0.209 HD
ENDBRANCH   3  10
TORSDOF 3
ENDMDL