MODEL 4
REMARK VINA RESULT: -4.118769330      2.068      2.566
REMARK  4 active torsions:
REMARK  status: ('A' for Active; 'I' for Inactive)
REMARK    1  A    between atoms: N1_2  and  N2_5
REMARK    2  A    between atoms: N2_5  and  N3_7
REMARK    3  A    between atoms: N3_7  and  N4_8
REMARK    4  A    between atoms: N4_8  and  N5_9
ROOT
HETATM    1  N2  UNL     1      10.150  -9.374  24.292  1.00  0.00    -0.128 N
ATOM      2  H2  UNL     1       9.924 -10.321  23.989  1.00  0.00     0.214 HD
ENDROOT
BRANCH   1   3
HETATM    3  N1  UNL     1       9.287  -8.620  25.053  1.00  0.00     0.102 N
HETATM    4  C1  UNL     1       8.019  -8.355  24.416  1.00  0.00     0.327 C
HETATM    5  C2  UNL     1       9.012  -9.175  26.358  1.00  0.00     0.327 C
HETATM    6 CL1  UNL     1      10.042  -7.052  25.310  1.00  0.00     0.144 Cl
ENDBRANCH   1   3
BRANCH   1   7
HETATM    7  N3  UNL     1      11.336  -8.760  23.970  1.00  0.00     0.013 NA
BRANCH   7   8
HETATM    8  N4  UNL     1      12.016  -9.449  22.977  1.00  0.00    -0.015 NA
BRANCH   8   9
HETATM    9  N5  UNL     1      11.853 -10.820  23.019  1.00  0.00    -0.330 N
ATOM     10  H52 UNL     1      12.517 -11.456  22.578  1.00  0.00     0.173 HD
ATOM     11  H51 UNL     1      11.022 -11.130  23.524  1.00  0.00     0.173 HD
ENDBRANCH   8   9
ENDBRANCH   7   8
ENDBRANCH   1   7
TORSDOF 4
ENDMDL