MODEL 2
REMARK VINA RESULT: -4.489939757      1.477      3.567
REMARK  4 active torsions:
REMARK  status: ('A' for Active; 'I' for Inactive)
REMARK    1  A    between atoms: O1_2  and  N1_3
REMARK    2  A    between atoms: N1_3  and  C2_4
REMARK    3  A    between atoms: C2_4  and  O2_5
REMARK    4  A    between atoms: C2_4  and  C3_8
ROOT
HETATM    1  C2  UNL     1      14.881  -1.559  29.126  1.00  0.00     0.330 C
HETATM    2  F1  UNL     1      15.992  -1.289  29.888  1.00  0.00    -0.186 F
ENDROOT
BRANCH   1   3
HETATM    3  N1  UNL     1      15.138  -2.696  28.296  1.00  0.00    -0.025 NA
BRANCH   3   4
HETATM    4  O1  UNL     1      16.463  -2.867  28.067  1.00  0.00    -0.286 OA
HETATM    5  C1  UNL     1      16.862  -4.177  28.391  1.00  0.00     0.231 C
ENDBRANCH   3   4
ENDBRANCH   1   3
BRANCH   1   6
HETATM    6  O2  UNL     1      14.686  -0.458  28.288  1.00  0.00    -0.345 OA
ATOM      7  H2  UNL     1      14.371   0.261  28.825  1.00  0.00     0.215 HD
ENDBRANCH   1   6
BRANCH   1   8
HETATM    8  C3  UNL     1      13.702  -1.773  30.054  1.00  0.00     0.232 A
HETATM    9  C4  UNL     1      13.931  -1.622  31.498  1.00  0.00     0.208 A
HETATM   10  O3  UNL     1      13.404  -0.531  30.790  1.00  0.00    -0.374 OA
ENDBRANCH   1   8
TORSDOF 4
ENDMDL