MODEL 4
REMARK VINA RESULT: -4.267309256      2.709      3.115
REMARK  5 active torsions:
REMARK  status: ('A' for Active; 'I' for Inactive)
REMARK    1  A    between atoms: C2_2  and  N1_3
REMARK    2  A    between atoms: C2_2  and  C3_8
REMARK    3  A    between atoms: C3_8  and  N2_9
REMARK    4  A    between atoms: N2_9  and  C4_12
REMARK    5  A    between atoms: C5_16  and  N4_17
ROOT
HETATM    1  N2  UNL     1      11.212  -8.614  23.926  1.00  0.00    -0.037 N
ATOM      2  H21 UNL     1      11.891  -7.946  23.563  1.00  0.00     0.280 HD
ATOM      3  H22 UNL     1      10.627  -8.728  23.098  1.00  0.00     0.280 HD
ENDROOT
BRANCH   1   4
HETATM    4  C3  UNL     1      10.455  -8.037  25.013  1.00  0.00     0.308 C
BRANCH   4   5
HETATM    5  C2  UNL     1       8.975  -8.164  24.878  1.00  0.00     0.283 C
HETATM    6  C1  UNL     1       8.255  -7.905  26.199  1.00  0.00     0.086 C
HETATM    7  F1  UNL     1       8.513  -7.247  23.968  1.00  0.00    -0.210 F
BRANCH   5   8
HETATM    8  N1  UNL     1       8.549  -9.470  24.416  1.00  0.00    -0.041 N
ATOM      9  H13 UNL     1       8.712 -10.210  25.098  1.00  0.00     0.278 HD
ATOM     10  H12 UNL     1       7.535  -9.566  24.361  1.00  0.00     0.278 HD
ATOM     11  H11 UNL     1       9.016  -9.635  23.524  1.00  0.00     0.278 HD
ENDBRANCH   5   8
ENDBRANCH   4   5
ENDBRANCH   1   4
BRANCH   1  12
HETATM   12  C4  UNL     1      11.848  -9.845  24.270  1.00  0.00     0.442 A
HETATM   13  N3  UNL     1      11.721 -10.839  23.184  1.00  0.00    -0.009 N
HETATM   14  C5  UNL     1      12.996 -10.429  23.698  1.00  0.00     0.440 A
ATOM     15  H32 UNL     1      11.231 -11.724  23.047  1.00  0.00     0.282 HD
ATOM     16  H31 UNL     1      11.273 -10.877  22.268  1.00  0.00     0.282 HD
BRANCH  14  17
HETATM   17  N4  UNL     1      14.374 -10.678  23.501  1.00  0.00    -0.046 N
ATOM     18  H43 UNL     1      14.432 -10.278  22.565  1.00  0.00     0.276 HD
ATOM     19  H42 UNL     1      14.715  -9.985  24.169  1.00  0.00     0.276 HD
ATOM     20  H41 UNL     1      15.236 -11.222  23.450  1.00  0.00     0.276 HD
ENDBRANCH  14  17
ENDBRANCH   1  12
TORSDOF 5
ENDMDL