MODEL 5
REMARK VINA RESULT: -6.572121217      1.132      1.550
REMARK  7 active torsions:
REMARK  status: ('A' for Active; 'I' for Inactive)
REMARK    1  A    between atoms: C2_2  and  N1_3
REMARK    2  A    between atoms: C6_7  and  C7_8
REMARK    3  A    between atoms: C7_8  and  C8_9
REMARK    4  A    between atoms: C7_8  and  C13_16
REMARK    5  A    between atoms: C8_9  and  C9_10
REMARK    6  A    between atoms: C16_24  and  N4_25
REMARK    7  A    between atoms: C17_30  and  N6_31
ROOT
HETATM    1  N1  UNL     1       1.540  22.226  22.942  1.00  0.00    -0.307 N
HETATM    2  C3  UNL     1       2.270  21.407  23.906  1.00  0.00     0.149 C
HETATM    3  C4  UNL     1       3.622  22.144  24.035  1.00  0.00     0.082 C
HETATM    4  C5  UNL     1       3.715  22.872  22.743  1.00  0.00     0.064 A
HETATM    5  C6  UNL     1       4.812  23.473  22.158  1.00  0.00     0.023 A
HETATM    6  C16 UNL     1       4.558  24.087  20.923  1.00  0.00     0.123 A
HETATM    7  N5  UNL     1       3.350  24.099  20.342  1.00  0.00    -0.175 N
ATOM      8  H5  UNL     1       3.207  24.557  19.442  1.00  0.00     0.186 HD
HETATM    9  C17 UNL     1       2.332  23.491  20.973  1.00  0.00     0.698 A
HETATM   10  N7  UNL     1       2.493  22.882  22.158  1.00  0.00    -0.092 N
ENDROOT
BRANCH   5  11
HETATM   11  C7  UNL     1       6.164  23.541  22.685  1.00  0.00     0.096 C
BRANCH  11  12
HETATM   12  C8  UNL     1       6.924  22.262  22.822  1.00  0.00     0.043 C
BRANCH  12  13
HETATM   13  C9  UNL     1       7.380  21.643  21.536  1.00  0.00     0.109 C
HETATM   14  S1  UNL     1       6.386  20.105  21.322  1.00  0.00    -0.154 SA
HETATM   15  C10 UNL     1       7.095  19.283  19.843  1.00  0.00     0.076 C
HETATM   16  C11 UNL     1       8.542  18.871  20.132  1.00  0.00     0.020 C
HETATM   17  C12 UNL     1       9.441  20.092  20.159  1.00  0.00     0.076 C
HETATM   18  S2  UNL     1       9.108  21.029  21.674  1.00  0.00    -0.154 SA
ENDBRANCH  12  13
ENDBRANCH  11  12
BRANCH  11  19
HETATM   19  C13 UNL     1       6.243  24.289  23.986  1.00  0.00     0.112 A
HETATM   20  N2  UNL     1       6.845  23.880  25.110  1.00  0.00    -0.246 N
HETATM   21  O1  UNL     1       6.678  24.809  25.994  1.00  0.00    -0.223 OA
ATOM     22  H2  UNL     1       7.343  23.000  25.243  1.00  0.00     0.196 HD
HETATM   23  C14 UNL     1       5.994  25.824  25.526  1.00  0.00     0.144 A
HETATM   24  C15 UNL     1       5.590  27.076  26.208  1.00  0.00     0.100 C
HETATM   25  N3  UNL     1       5.719  25.492  24.252  1.00  0.00    -0.327 N
ATOM     26  H3  UNL     1       5.194  26.066  23.593  1.00  0.00     0.169 HD
ENDBRANCH  11  19
ENDBRANCH   5  11
BRANCH   6  27
HETATM   27  N4  UNL     1       5.542  24.686  20.323  1.00  0.00    -0.385 N
ATOM     28  H42 UNL     1       6.493  24.359  20.497  1.00  0.00     0.157 HD
ATOM     29  H41 UNL     1       5.324  25.455  19.689  1.00  0.00     0.157 HD
ENDBRANCH   6  27
BRANCH   1  30
HETATM   30  C2  UNL     1       0.105  22.255  22.921  1.00  0.00     0.139 C
HETATM   31  C1  UNL     1      -0.403  23.419  23.760  1.00  0.00     0.028 C
ENDBRANCH   1  30
BRANCH   9  32
HETATM   32  N6  UNL     1       1.134  23.472  20.442  1.00  0.00    -0.233 N
ATOM     33  H62 UNL     1       1.049  23.129  19.485  1.00  0.00     0.174 HD
ATOM     34  H61 UNL     1       0.325  23.792  20.974  1.00  0.00     0.174 HD
ENDBRANCH   9  32
TORSDOF 7
ENDMDL