MODEL 1
REMARK VINA RESULT: -7.857014327      0.000      0.000
REMARK  8 active torsions:
REMARK  status: ('A' for Active; 'I' for Inactive)
REMARK    1  A    between atoms: N1_1  and  N2_4
REMARK    2  A    between atoms: N2_4  and  N3_5
REMARK    3  A    between atoms: N3_5  and  C1_7
REMARK    4  A    between atoms: C3_13  and  C4_14
REMARK    5  A    between atoms: C5_17  and  C6_18
REMARK    6  A    between atoms: C9_21  and  C10_22
REMARK    7  A    between atoms: C10_22  and  O1_23
REMARK    8  A    between atoms: C12_28  and  C13_29
ROOT
HETATM    1  C1  UNL     1       9.999  22.808  24.285  1.00  0.00     0.738 A
HETATM    2  N4  UNL     1      10.217  23.747  25.221  1.00  0.00    -0.017 N
ATOM      3  H4  UNL     1      11.126  23.995  25.612  1.00  0.00     0.203 HD
HETATM    4  C2  UNL     1       9.034  24.311  25.562  1.00  0.00     0.719 A
HETATM    5  N5  UNL     1       8.435  25.226  26.339  1.00  0.00    -0.183 N
ATOM      6  H5  UNL     1       8.890  25.845  27.010  1.00  0.00     0.184 HD
HETATM    7  C3  UNL     1       7.095  25.167  26.057  1.00  0.00     0.126 A
HETATM    8  C12 UNL     1       6.896  24.202  25.100  1.00  0.00     0.088 A
HETATM    9  N8  UNL     1       8.114  23.681  24.804  1.00  0.00    -0.073 N
HETATM   10  N9  UNL     1       8.676  22.776  24.031  1.00  0.00    -0.108 N
ATOM     11  H9  UNL     1       8.200  22.166  23.366  1.00  0.00     0.207 HD
ENDROOT
BRANCH   7  12
HETATM   12  C4  UNL     1       6.162  26.061  26.725  1.00  0.00     0.177 A
HETATM   13  N6  UNL     1       5.855  26.134  28.033  1.00  0.00    -0.334 N
HETATM   14  C5  UNL     1       4.942  27.105  28.230  1.00  0.00     0.063 A
ATOM     15  H6  UNL     1       6.253  25.544  28.765  1.00  0.00     0.168 HD
HETATM   16  C11 UNL     1       4.699  27.629  26.977  1.00  0.00     0.172 A
HETATM   17  O3  UNL     1       5.443  26.975  26.150  1.00  0.00    -0.302 OA
BRANCH  14  18
HETATM   18  C6  UNL     1       4.320  27.548  29.502  1.00  0.00     0.173 C
HETATM   19  C7  UNL     1       3.620  26.376  30.129  1.00  0.00     0.041 C
HETATM   20  C8  UNL     1       4.376  26.174  31.418  1.00  0.00     0.037 C
HETATM   21  C9  UNL     1       4.952  27.581  31.635  1.00  0.00     0.146 C
HETATM   22  O2  UNL     1       5.359  27.914  30.350  1.00  0.00    -0.372 OA
BRANCH  21  23
HETATM   23  C10 UNL     1       3.823  28.439  32.124  1.00  0.00     0.196 C
BRANCH  23  24
HETATM   24  O1  UNL     1       3.371  27.906  33.340  1.00  0.00    -0.398 OA
ATOM     25  H1  UNL     1       2.597  28.391  33.603  1.00  0.00     0.209 HD
ENDBRANCH  23  24
ENDBRANCH  21  23
ENDBRANCH  14  18
ENDBRANCH   7  12
BRANCH   8  26
HETATM   26  C13 UNL     1       5.594  23.806  24.550  1.00  0.00     0.044 C
HETATM   27  C14 UNL     1       5.378  24.290  23.135  1.00  0.00     0.038 C
HETATM   28  C15 UNL     1       5.605  23.184  22.136  1.00  0.00     0.233 C
HETATM   29  N7  UNL     1       4.432  22.292  22.226  1.00  0.00    -0.075 N
HETATM   30  C16 UNL     1       4.218  22.033  23.616  1.00  0.00     0.233 C
ATOM     31  H72 UNL     1       3.607  22.664  21.755  1.00  0.00     0.277 HD
ATOM     32  H71 UNL     1       4.527  21.444  21.668  1.00  0.00     0.277 HD
HETATM   33  C17 UNL     1       5.475  22.275  24.463  1.00  0.00     0.038 C
ENDBRANCH   8  26
BRANCH   1  34
HETATM   34  N3  UNL     1      10.984  21.970  23.651  1.00  0.00    -0.044 N
ATOM     35  H3  UNL     1      11.838  21.670  24.122  1.00  0.00     0.223 HD
BRANCH  34  36
HETATM   36  N2  UNL     1      10.711  21.642  22.485  1.00  0.00    -0.229 NA
BRANCH  36  37
HETATM   37  N1  UNL     1      10.565  21.481  21.273  1.00  0.00    -0.260 N
ATOM     38  H12 UNL     1      11.539  21.761  21.145  1.00  0.00     0.193 HD
ATOM     39  H11 UNL     1      10.278  21.302  20.310  1.00  0.00     0.193 HD
ENDBRANCH  36  37
ENDBRANCH  34  36
ENDBRANCH   1  34
TORSDOF 8
ENDMDL