MODEL 2
REMARK VINA RESULT: -7.490357939      1.799      2.425
REMARK  8 active torsions:
REMARK  status: ('A' for Active; 'I' for Inactive)
REMARK    1  A    between atoms: C2_2  and  C3_3
REMARK    2  A    between atoms: C8_9  and  C9_10
REMARK    3  A    between atoms: C9_10  and  O2_11
REMARK    4  A    between atoms: N1_13  and  O3_15
REMARK    5  A    between atoms: O3_15  and  C10_16
REMARK    6  A    between atoms: C15_22  and  O5_23
REMARK    7  A    between atoms: C17_28  and  O6_29
REMARK    8  A    between atoms: O6_29  and  C18_30
ROOT
HETATM    1  C3  UNL     1       7.896  20.050  21.126  1.00  0.00     0.108 C
HETATM    2  C4  UNL     1       7.722  21.252  20.234  1.00  0.00     0.051 C
HETATM    3  O1  UNL     1       9.036  20.306  21.995  1.00  0.00    -0.334 OA
HETATM    4  C5  UNL     1       8.882  21.301  22.969  1.00  0.00     0.099 A
HETATM    5  C6  UNL     1       9.954  21.904  23.567  1.00  0.00     0.040 A
HETATM    6  C7  UNL     1       9.760  22.871  24.511  1.00  0.00     0.022 A
HETATM    7  C8  UNL     1       8.479  23.292  24.914  1.00  0.00     0.052 A
HETATM    8  C15 UNL     1       7.393  22.694  24.319  1.00  0.00     0.109 A
HETATM    9  C16 UNL     1       7.622  21.694  23.344  1.00  0.00     0.098 A
HETATM   10  N2  UNL     1       6.500  21.075  22.728  1.00  0.00    -0.356 N
ATOM     11  H2  UNL     1       5.570  21.493  22.748  1.00  0.00     0.162 HD
HETATM   12  C17 UNL     1       6.768  19.786  22.056  1.00  0.00     0.265 C
ENDROOT
BRANCH   7  13
HETATM   13  C9  UNL     1       8.344  24.321  25.918  1.00  0.00     0.173 C
HETATM   14  N1  UNL     1       7.158  24.722  26.207  1.00  0.00    -0.244 N
ATOM     15  H1  UNL     1       6.355  24.313  25.729  1.00  0.00     0.196 HD
BRANCH  13  16
HETATM   16  O2  UNL     1       9.392  24.883  26.571  1.00  0.00    -0.344 OA
ATOM     17  H2  UNL     1      10.101  25.344  26.138  1.00  0.00     0.219 HD
ENDBRANCH  13  16
BRANCH  14  18
HETATM   18  O3  UNL     1       6.968  25.679  27.135  1.00  0.00    -0.273 OA
BRANCH  18  19
HETATM   19  C10 UNL     1       5.915  26.573  27.219  1.00  0.00     0.156 C
HETATM   20  C11 UNL     1       4.831  26.360  26.202  1.00  0.00     0.061 C
HETATM   21  C12 UNL     1       3.986  27.641  26.198  1.00  0.00     0.170 C
HETATM   22  O4  UNL     1       4.198  28.368  27.368  1.00  0.00    -0.391 OA
HETATM   23  C13 UNL     1       4.096  27.563  28.501  1.00  0.00     0.170 C
HETATM   24  C14 UNL     1       5.244  26.579  28.590  1.00  0.00     0.061 C
ENDBRANCH  18  19
ENDBRANCH  14  18
ENDBRANCH   7  13
BRANCH   8  25
HETATM   25  O5  UNL     1       6.078  22.965  24.575  1.00  0.00    -0.357 OA
ATOM     26  H5  UNL     1       5.361  22.341  24.556  1.00  0.00     0.217 HD
ENDBRANCH   8  25
BRANCH  12  27
HETATM   27  O6  UNL     1       5.607  19.251  21.514  1.00  0.00    -0.292 OA
BRANCH  27  28
HETATM   28  C18 UNL     1       4.461  20.071  21.483  1.00  0.00     0.256 C
HETATM   29  C19 UNL     1       4.023  20.747  20.243  1.00  0.00     0.126 C
HETATM   30  O7  UNL     1       3.777  20.245  22.524  1.00  0.00    -0.266 OA
ENDBRANCH  27  28
ENDBRANCH  12  27
BRANCH   1  31
HETATM   31  C2  UNL     1       8.258  18.834  20.347  1.00  0.00     0.038 C
HETATM   32  C1  UNL     1       9.329  19.028  19.310  1.00  0.00     0.008 C
ENDBRANCH   1  31
TORSDOF 8
ENDMDL