MODEL 2
REMARK VINA RESULT: -7.408360765      3.558      4.866
REMARK  7 active torsions:
REMARK  status: ('A' for Active; 'I' for Inactive)
REMARK    1  A    between atoms: C2_2  and  C4_4
REMARK    2  A    between atoms: C4_4  and  N1_5
REMARK    3  A    between atoms: C4_4  and  C5_9
REMARK    4  A    between atoms: C6_15  and  C7_16
REMARK       I    between atoms: C7_16  and  N4_18
REMARK    5  A    between atoms: N4_18  and  C8_20
REMARK    6  A    between atoms: C9_25  and  S2_26
REMARK    7  A    between atoms: S2_26  and  C10_27
ROOT
HETATM    1  C7  UNL     1       4.082  27.051  24.807  1.00  0.00     0.280 C
HETATM    2  O1  UNL     1       4.568  28.148  25.086  1.00  0.00    -0.266 OA
HETATM    3  N4  UNL     1       4.715  26.193  23.870  1.00  0.00    -0.153 N
ATOM      4  H4  UNL     1       4.688  26.440  22.881  1.00  0.00     0.187 HD
ENDROOT
BRANCH   1   5
HETATM    5  C6  UNL     1       2.833  26.605  25.438  1.00  0.00     0.117 A
HETATM    6  C5  UNL     1       2.399  26.715  26.743  1.00  0.00     0.081 A
HETATM    7  N2  UNL     1       1.236  26.206  27.010  1.00  0.00    -0.295 N
HETATM    8  N3  UNL     1       0.537  25.629  26.086  1.00  0.00    -0.269 N
ATOM      9  H2  UNL     1       0.868  26.262  27.960  1.00  0.00     0.187 HD
HETATM   10  S1  UNL     1       1.506  25.768  24.722  1.00  0.00     0.009 SA
ATOM     11  H3  UNL     1      -0.381  25.194  26.166  1.00  0.00     0.195 HD
BRANCH   6  12
HETATM   12  C4  UNL     1       3.239  27.425  27.792  1.00  0.00     0.239 C
BRANCH  12  13
HETATM   13  C2  UNL     1       4.076  26.383  28.482  1.00  0.00     0.014 C
HETATM   14  C1  UNL     1       3.731  26.295  29.966  1.00  0.00     0.012 C
HETATM   15  C3  UNL     1       5.550  26.713  28.406  1.00  0.00     0.012 C
ENDBRANCH  12  13
BRANCH  12  16
HETATM   16  N1  UNL     1       2.308  28.051  28.721  1.00  0.00    -0.069 N
ATOM     17  H13 UNL     1       1.953  27.382  29.404  1.00  0.00     0.275 HD
ATOM     18  H12 UNL     1       2.787  28.686  29.360  1.00  0.00     0.275 HD
ATOM     19  H11 UNL     1       1.551  28.518  28.224  1.00  0.00     0.275 HD
ENDBRANCH  12  16
ENDBRANCH   6  12
ENDBRANCH   1   5
BRANCH   3  20
HETATM   20  C8  UNL     1       5.330  25.103  24.228  1.00  0.00     0.703 A
HETATM   21  N5  UNL     1       5.966  24.858  25.389  1.00  0.00    -0.130 N
HETATM   22  N6  UNL     1       6.432  23.626  25.302  1.00  0.00    -0.265 N
ATOM     23  H5  UNL     1       6.068  25.496  26.179  1.00  0.00     0.205 HD
HETATM   24  C9  UNL     1       6.118  23.072  24.128  1.00  0.00     0.176 A
ATOM     25  H6  UNL     1       6.963  23.158  26.036  1.00  0.00     0.189 HD
HETATM   26  N7  UNL     1       5.412  24.015  23.437  1.00  0.00    -0.163 N
HETATM   27  C16 UNL     1       4.856  23.885  22.117  1.00  0.00     0.177 C
BRANCH  24  28
HETATM   28  S2  UNL     1       6.508  21.441  23.522  1.00  0.00    -0.087 SA
BRANCH  28  29
HETATM   29  C10 UNL     1       8.051  21.553  22.587  1.00  0.00     0.055 C
HETATM   30  C11 UNL     1       9.250  21.194  23.443  1.00  0.00     0.015 C
HETATM   31  C12 UNL     1      10.467  21.818  22.791  1.00  0.00     0.001 C
HETATM   32  C13 UNL     1      10.476  21.410  21.348  1.00  0.00     0.000 C
HETATM   33  C14 UNL     1       9.478  20.339  21.029  1.00  0.00     0.001 C
HETATM   34  C15 UNL     1       8.067  20.691  21.369  1.00  0.00     0.015 C
ENDBRANCH  28  29
ENDBRANCH  24  28
ENDBRANCH   3  20
TORSDOF 7
ENDMDL