MODEL 2
REMARK VINA RESULT: -8.729479966      1.017      1.087
REMARK  7 active torsions:
REMARK  status: ('A' for Active; 'I' for Inactive)
REMARK    1  A    between atoms: C10_13  and  C11_14
REMARK    2  A    between atoms: C11_14  and  C12_15
REMARK    3  A    between atoms: C12_15  and  C13_16
REMARK    4  A    between atoms: C13_16  and  C14_17
REMARK    5  A    between atoms: C14_17  and  C15_18
REMARK    6  A    between atoms: C18_25  and  O5_26
REMARK    7  A    between atoms: C19_28  and  O6_29
ROOT
HETATM    1  C11 UNL     1       9.037  21.881  23.861  1.00  0.00     0.010 C
ENDROOT
BRANCH   1   2
HETATM    2  C10 UNL     1       8.739  22.238  22.452  1.00  0.00     0.051 C
HETATM    3  C5  UNL     1       7.503  21.643  21.828  1.00  0.00     0.203 C
HETATM    4  O3  UNL     1       7.642  21.865  20.476  1.00  0.00    -0.197 OA
HETATM    5  C6  UNL     1       7.562  20.152  22.074  1.00  0.00     0.072 C
HETATM    6  O7  UNL     1       6.385  22.137  22.411  1.00  0.00    -0.317 OA
HETATM    7  O2  UNL     1       6.727  22.450  19.823  1.00  0.00    -0.200 OA
HETATM    8  C4  UNL     1       5.494  22.125  20.270  1.00  0.00     0.355 C
HETATM    9  O1  UNL     1       4.417  22.774  19.732  1.00  0.00    -0.318 OA
HETATM   10  C20 UNL     1       5.446  22.750  21.680  1.00  0.00     0.325 C
HETATM   11  C2  UNL     1       3.446  22.586  20.728  1.00  0.00     0.163 C
HETATM   12  C1  UNL     1       2.497  23.745  20.815  1.00  0.00     0.078 C
HETATM   13  C3  UNL     1       2.750  21.279  20.424  1.00  0.00     0.078 C
HETATM   14  O8  UNL     1       4.131  22.528  21.960  1.00  0.00    -0.321 OA
HETATM   15  C7  UNL     1       8.828  19.579  21.587  1.00  0.00     0.006 C
HETATM   16  C8  UNL     1       9.755  20.530  20.936  1.00  0.00     0.001 C
HETATM   17  C9  UNL     1       9.945  21.851  21.594  1.00  0.00     0.010 C
ENDBRANCH   1   2
BRANCH   1  18
HETATM   18  C12 UNL     1       9.108  23.044  24.769  1.00  0.00     0.001 C
BRANCH  18  19
HETATM   19  C13 UNL     1       7.759  23.449  25.367  1.00  0.00     0.003 C
BRANCH  19  20
HETATM   20  C14 UNL     1       7.807  24.867  25.814  1.00  0.00     0.035 C
BRANCH  20  21
HETATM   21  C15 UNL     1       6.437  25.429  26.136  1.00  0.00     0.161 C
HETATM   22  O4  UNL     1       6.378  25.854  27.484  1.00  0.00    -0.332 OA
HETATM   23  C16 UNL     1       5.534  26.904  27.814  1.00  0.00     0.114 C
HETATM   24  N1  UNL     1       5.678  27.488  28.939  1.00  0.00    -0.383 N
HETATM   25  C17 UNL     1       4.450  27.391  26.910  1.00  0.00     0.118 C
ATOM     26  H12 UNL     1       6.418  27.154  29.557  1.00  0.00     0.157 HD
ATOM     27  H11 UNL     1       5.057  28.260  29.182  1.00  0.00     0.157 HD
HETATM   28  C18 UNL     1       4.585  26.870  25.511  1.00  0.00     0.157 C
HETATM   29  C19 UNL     1       6.069  26.589  25.270  1.00  0.00     0.176 C
BRANCH  28  30
HETATM   30  O5  UNL     1       4.215  27.863  24.607  1.00  0.00    -0.392 OA
ATOM     31  H5  UNL     1       3.390  28.249  24.878  1.00  0.00     0.210 HD
ENDBRANCH  28  30
BRANCH  29  32
HETATM   32  O6  UNL     1       6.751  27.716  25.719  1.00  0.00    -0.390 OA
ATOM     33  H6  UNL     1       6.117  28.382  25.957  1.00  0.00     0.210 HD
ENDBRANCH  29  32
ENDBRANCH  20  21
ENDBRANCH  19  20
ENDBRANCH  18  19
ENDBRANCH   1  18
TORSDOF 7
ENDMDL