MODEL 4
REMARK VINA RESULT: -7.434532782      3.354      6.762
REMARK  7 active torsions:
REMARK  status: ('A' for Active; 'I' for Inactive)
REMARK    1  A    between atoms: N1_3  and  N2_5
REMARK    2  A    between atoms: C3_6  and  C4_7
REMARK    3  A    between atoms: C7_10  and  O1_11
REMARK    4  A    between atoms: N3_13  and  C8_14
REMARK    5  A    between atoms: C8_14  and  C9_15
REMARK    6  A    between atoms: C9_15  and  C10_16
REMARK    7  A    between atoms: N4_20  and  O3_21
ROOT
HETATM    1  C4  UNL     1       4.938  22.701  21.239  1.00  0.00     0.088 A
HETATM    2  C5  UNL     1       3.958  21.754  20.998  1.00  0.00    -0.005 A
HETATM    3  C6  UNL     1       4.293  20.525  20.509  1.00  0.00     0.115 A
HETATM    4  C7  UNL     1       5.636  20.271  20.266  1.00  0.00     0.175 A
HETATM    5  N3  UNL     1       6.605  21.169  20.490  1.00  0.00    -0.292 N
HETATM    6  C12 UNL     1       6.236  22.371  20.974  1.00  0.00     0.264 A
HETATM    7  O2  UNL     1       7.105  23.251  21.201  1.00  0.00    -0.267 OA
HETATM    8  N4  UNL     1       3.288  19.576  20.270  1.00  0.00    -0.256 N
HETATM    9  C13 UNL     1       1.948  19.971  19.997  1.00  0.00     0.165 C
HETATM   10  C14 UNL     1       1.658  21.410  20.226  1.00  0.00    -0.025 C
HETATM   11  C15 UNL     1       0.212  21.553  20.686  1.00  0.00     0.017 C
HETATM   12  C16 UNL     1       1.788  22.192  18.934  1.00  0.00     0.017 C
HETATM   13  C17 UNL     1       2.531  22.052  21.269  1.00  0.00     0.052 C
ENDROOT
BRANCH   1  14
HETATM   14  C3  UNL     1       4.524  23.997  21.762  1.00  0.00     0.161 A
HETATM   15  N2  UNL     1       4.696  24.349  23.046  1.00  0.00    -0.211 N
HETATM   16  C18 UNL     1       4.215  25.591  23.213  1.00  0.00     0.214 A
HETATM   17  N6  UNL     1       3.754  25.974  22.010  1.00  0.00    -0.273 N
HETATM   18  S1  UNL     1       4.186  26.479  24.596  1.00  0.00    -0.037 SA
HETATM   19  N5  UNL     1       3.935  25.018  21.123  1.00  0.00    -0.281 N
ATOM     20  H6  UNL     1       3.325  26.878  21.811  1.00  0.00     0.189 HD
ATOM     21  H5  UNL     1       3.677  25.049  20.137  1.00  0.00     0.188 HD
BRANCH  15  22
HETATM   22  N1  UNL     1       5.279  23.575  24.081  1.00  0.00    -0.305 N
HETATM   23  C2  UNL     1       6.515  23.724  24.409  1.00  0.00     0.076 C
HETATM   24  C1  UNL     1       7.185  22.960  25.467  1.00  0.00     0.056 C
ATOM     25  H1  UNL     1       4.709  22.889  24.575  1.00  0.00     0.186 HD
ENDBRANCH  15  22
ENDBRANCH   1  14
BRANCH   5  26
HETATM   26  C8  UNL     1       8.007  20.896  20.234  1.00  0.00     0.134 C
BRANCH  26  27
HETATM   27  C9  UNL     1       8.650  20.313  21.484  1.00  0.00     0.020 C
BRANCH  27  28
HETATM   28  C10 UNL     1      10.012  20.984  21.610  1.00  0.00    -0.003 C
HETATM   29  C11 UNL     1      10.048  21.718  22.917  1.00  0.00     0.005 C
ENDBRANCH  27  28
ENDBRANCH  26  27
ENDBRANCH   5  26
BRANCH   4  30
HETATM   30  O1  UNL     1       5.965  19.013  19.768  1.00  0.00    -0.344 OA
ATOM     31  H1  UNL     1       6.345  18.391  20.377  1.00  0.00     0.219 HD
ENDBRANCH   4  30
BRANCH   8  32
HETATM   32  O3  UNL     1       3.609  18.268  20.296  1.00  0.00    -0.287 OA
ATOM     33  H3  UNL     1       3.370  17.722  19.556  1.00  0.00     0.244 HD
ENDBRANCH   8  32
TORSDOF 7
ENDMDL