MODEL 5
REMARK VINA RESULT: -7.278983192      1.213      1.354
REMARK  8 active torsions:
REMARK  status: ('A' for Active; 'I' for Inactive)
REMARK    1  A    between atoms: C2_2  and  C3_3
REMARK    2  A    between atoms: C4_5  and  N1_6
REMARK    3  A    between atoms: C6_8  and  C7_9
REMARK    4  A    between atoms: C9_12  and  C10_13
REMARK    5  A    between atoms: C10_13  and  O2_14
REMARK    6  A    between atoms: C11_16  and  C12_17
REMARK    7  A    between atoms: C15_27  and  O3_28
REMARK    8  A    between atoms: C15_27  and  C16_30
ROOT
HETATM    1  N1  UNL     1       6.731  24.504  25.194  1.00  0.00    -0.229 N
HETATM    2  C5  UNL     1       5.728  25.281  25.672  1.00  0.00     0.147 A
HETATM    3  C6  UNL     1       6.166  25.961  26.788  1.00  0.00     0.049 A
HETATM    4  N3  UNL     1       7.447  25.570  26.955  1.00  0.00    -0.288 N
ATOM      5  H3  UNL     1       8.075  25.886  27.694  1.00  0.00     0.188 HD
HETATM    6  N4  UNL     1       7.754  24.705  25.994  1.00  0.00    -0.234 N
ATOM      7  H4  UNL     1       8.664  24.255  25.891  1.00  0.00     0.209 HD
ENDROOT
BRANCH   1   8
HETATM    8  C4  UNL     1       6.716  23.643  24.069  1.00  0.00     0.168 C
HETATM    9  O1  UNL     1       5.940  23.981  22.975  1.00  0.00    -0.303 OA
HETATM   10  C3  UNL     1       5.841  23.131  21.851  1.00  0.00     0.271 C
HETATM   11  O4  UNL     1       6.923  22.312  21.686  1.00  0.00    -0.321 OA
HETATM   12  C15 UNL     1       7.357  21.670  22.822  1.00  0.00     0.195 C
HETATM   13  C14 UNL     1       7.415  22.522  24.018  1.00  0.00     0.099 C
BRANCH  10  14
HETATM   14  C2  UNL     1       5.788  24.056  20.626  1.00  0.00     0.057 C
HETATM   15  C1  UNL     1       6.321  23.321  19.401  1.00  0.00     0.010 C
ENDBRANCH  10  14
BRANCH  12  16
HETATM   16  O3  UNL     1       6.542  20.553  23.113  1.00  0.00    -0.361 OA
ATOM     17  H3  UNL     1       7.075  19.770  23.043  1.00  0.00     0.213 HD
ENDBRANCH  12  16
BRANCH  12  18
HETATM   18  C16 UNL     1       8.732  21.089  22.497  1.00  0.00     0.009 C
HETATM   19  C17 UNL     1       8.624  19.806  21.722  1.00  0.00     0.020 C
HETATM   20  C18 UNL     1       9.543  22.103  21.760  1.00  0.00     0.020 C
HETATM   21  C19 UNL     1       9.406  20.823  23.846  1.00  0.00     0.020 C
ENDBRANCH  12  18
ENDBRANCH   1   8
BRANCH   3  22
HETATM   22  C7  UNL     1       5.398  26.934  27.644  1.00  0.00     0.048 C
HETATM   23  C8  UNL     1       5.299  26.338  29.004  1.00  0.00     0.085 C
HETATM   24  S1  UNL     1       4.507  27.602  30.076  1.00  0.00    -0.161 SA
HETATM   25  C9  UNL     1       3.283  28.422  29.019  1.00  0.00     0.079 C
HETATM   26  C11 UNL     1       2.965  27.596  27.798  1.00  0.00     0.040 C
HETATM   27  C13 UNL     1       4.141  27.256  26.961  1.00  0.00     0.022 C
BRANCH  25  28
HETATM   28  C10 UNL     1       3.712  29.828  28.664  1.00  0.00     0.179 C
BRANCH  28  29
HETATM   29  O2  UNL     1       2.636  30.712  28.719  1.00  0.00    -0.400 OA
ATOM     30  H2  UNL     1       2.886  31.533  29.125  1.00  0.00     0.209 HD
ENDBRANCH  28  29
ENDBRANCH  25  28
BRANCH  26  31
HETATM   31  C12 UNL     1       2.141  26.423  28.165  1.00  0.00     0.058 C
HETATM   32  N2  UNL     1       0.923  26.370  27.824  1.00  0.00    -0.411 N
ATOM     33  H22 UNL     1       0.524  27.146  27.296  1.00  0.00     0.155 HD
ATOM     34  H21 UNL     1       0.355  25.561  28.077  1.00  0.00     0.155 HD
ENDBRANCH  26  31
ENDBRANCH   3  22
TORSDOF 8
ENDMDL