MODEL 1
REMARK VINA RESULT: -8.770157060      0.000      0.000
REMARK  6 active torsions:
REMARK  status: ('A' for Active; 'I' for Inactive)
REMARK    1  A    between atoms: C5_7  and  C6_8
REMARK    2  A    between atoms: C6_8  and  N2_9
REMARK    3  A    between atoms: C7_15  and  C8_16
REMARK    4  A    between atoms: C10_18  and  C11_19
REMARK    5  A    between atoms: C11_19  and  C12_23
REMARK    6  A    between atoms: C14_25  and  C15_26
ROOT
HETATM    1  N1  UNL     1       1.256  26.405  25.831  1.00  0.00    -0.197 NA
HETATM    2  C1  UNL     1       1.559  25.770  24.905  1.00  0.00     0.068 C
HETATM    3  C2  UNL     1       1.920  24.962  23.723  1.00  0.00     0.145 C
HETATM    4  C3  UNL     1       0.647  24.751  22.930  1.00  0.00     0.189 C
HETATM    5  O1  UNL     1       0.711  25.450  21.723  1.00  0.00    -0.388 OA
HETATM    6  C4  UNL     1       1.224  24.592  20.766  1.00  0.00     0.194 C
HETATM    7  C5  UNL     1       2.540  24.058  21.264  1.00  0.00     0.126 C
HETATM    8  N3  UNL     1       3.417  25.060  21.780  1.00  0.00    -0.402 N
ATOM      9  H3  UNL     1       4.320  25.271  21.356  1.00  0.00     0.154 HD
HETATM   10  C7  UNL     1       2.932  25.746  22.936  1.00  0.00     0.156 C
ENDROOT
BRANCH  10  11
HETATM   11  C8  UNL     1       4.090  26.038  23.820  1.00  0.00     0.102 A
HETATM   12  C9  UNL     1       4.928  25.129  24.446  1.00  0.00     0.071 A
HETATM   13  C10 UNL     1       5.867  25.839  25.169  1.00  0.00     0.086 A
HETATM   14  N6  UNL     1       5.558  27.134  24.950  1.00  0.00    -0.259 N
HETATM   15  O3  UNL     1       4.535  27.216  24.174  1.00  0.00    -0.240 OA
ATOM     16  H6  UNL     1       6.061  27.930  25.342  1.00  0.00     0.195 HD
BRANCH  13  17
HETATM   17  C11 UNL     1       6.945  25.351  25.983  1.00  0.00     0.083 C
HETATM   18  N4  UNL     1       7.048  25.739  27.208  1.00  0.00    -0.395 N
ATOM     19  H42 UNL     1       6.361  26.391  27.587  1.00  0.00     0.156 HD
ATOM     20  H41 UNL     1       7.813  25.393  27.786  1.00  0.00     0.156 HD
BRANCH  17  21
HETATM   21  C12 UNL     1       7.926  24.419  25.442  1.00  0.00     0.085 A
HETATM   22  C13 UNL     1       7.724  23.532  24.378  1.00  0.00     0.069 A
HETATM   23  C14 UNL     1       8.901  22.842  24.199  1.00  0.00     0.083 A
HETATM   24  O2  UNL     1       9.730  23.296  25.095  1.00  0.00    -0.241 OA
HETATM   25  N5  UNL     1       9.194  24.209  25.830  1.00  0.00    -0.259 N
ATOM     26  H5  UNL     1       9.663  24.698  26.592  1.00  0.00     0.195 HD
BRANCH  23  27
HETATM   27  C15 UNL     1       9.141  21.798  23.177  1.00  0.00     0.045 C
HETATM   28  C16 UNL     1       7.900  21.738  22.305  1.00  0.00     0.011 C
HETATM   29  C17 UNL     1       8.001  20.506  21.431  1.00  0.00     0.001 C
HETATM   30  C18 UNL     1       9.426  20.038  21.281  1.00  0.00     0.000 C
HETATM   31  C19 UNL     1      10.401  21.180  21.174  1.00  0.00     0.001 C
HETATM   32  C20 UNL     1      10.294  22.171  22.283  1.00  0.00     0.011 C
ENDBRANCH  23  27
ENDBRANCH  17  21
ENDBRANCH  13  17
ENDBRANCH  10  11
BRANCH   7  33
HETATM   33  C6  UNL     1       3.239  23.433  20.051  1.00  0.00     0.256 C
BRANCH  33  34
HETATM   34  N2  UNL     1       4.450  24.146  19.730  1.00  0.00    -0.077 N
ATOM     35  H23 UNL     1       4.712  24.795  20.472  1.00  0.00     0.274 HD
ATOM     36  H22 UNL     1       5.267  23.535  19.762  1.00  0.00     0.274 HD
ATOM     37  H21 UNL     1       4.367  24.618  18.829  1.00  0.00     0.274 HD
ENDBRANCH  33  34
ENDBRANCH   7  33
TORSDOF 6
ENDMDL