MODEL 4
REMARK VINA RESULT: -7.555437474      3.069      5.648
REMARK  7 active torsions:
REMARK  status: ('A' for Active; 'I' for Inactive)
REMARK    1  A    between atoms: C3_3  and  C4_4
REMARK    2  A    between atoms: C4_4  and  C5_5
REMARK    3  A    between atoms: C6_9  and  N2_10
REMARK    4  A    between atoms: C8_14  and  N4_15
REMARK    5  A    between atoms: C15_26  and  S1_27
REMARK    6  A    between atoms: C17_29  and  O1_30
REMARK    7  A    between atoms: C18_32  and  O2_33
ROOT
HETATM    1  N2  UNL     1       3.614  25.278  23.717  1.00  0.00    -0.249 N
HETATM    2  N3  UNL     1       4.136  24.613  22.671  1.00  0.00    -0.290 N
ATOM      3  H3  UNL     1       5.122  24.384  22.550  1.00  0.00     0.187 HD
HETATM    4  C7  UNL     1       3.174  24.303  21.827  1.00  0.00     0.122 A
HETATM    5  C8  UNL     1       3.163  23.634  20.616  1.00  0.00     0.135 A
HETATM    6  N5  UNL     1       1.958  23.495  20.010  1.00  0.00    -0.337 N
ATOM      7  H5  UNL     1       1.922  23.006  19.116  1.00  0.00     0.168 HD
HETATM    8  C13 UNL     1       0.809  23.966  20.521  1.00  0.00     0.182 A
HETATM    9  N6  UNL     1       0.798  24.621  21.698  1.00  0.00    -0.348 N
ATOM     10  H6  UNL     1      -0.066  24.985  22.101  1.00  0.00     0.167 HD
HETATM   11  C14 UNL     1       1.987  24.770  22.320  1.00  0.00     0.100 A
HETATM   12  C15 UNL     1       2.298  25.384  23.521  1.00  0.00     0.118 A
ENDROOT
BRANCH   1  13
HETATM   13  C6  UNL     1       4.467  25.718  24.762  1.00  0.00     0.339 C
HETATM   14  N1  UNL     1       5.569  24.766  24.894  1.00  0.00    -0.043 N
HETATM   15  C5  UNL     1       6.749  25.514  25.208  1.00  0.00     0.223 C
ATOM     16  H12 UNL     1       5.682  24.172  24.072  1.00  0.00     0.280 HD
ATOM     17  H11 UNL     1       5.377  24.025  25.568  1.00  0.00     0.280 HD
HETATM   18  C18 UNL     1       6.286  26.902  25.605  1.00  0.00     0.181 C
HETATM   19  C17 UNL     1       5.073  27.039  24.661  1.00  0.00     0.201 C
BRANCH  15  20
HETATM   20  C4  UNL     1       7.541  24.853  26.317  1.00  0.00     0.062 C
BRANCH  20  21
HETATM   21  C3  UNL     1       8.814  24.282  25.819  1.00  0.00    -0.029 C
HETATM   22  C2  UNL     1       8.812  23.352  24.877  1.00  0.00    -0.035 C
HETATM   23  C1  UNL     1      10.110  22.795  24.394  1.00  0.00     0.036 C
ENDBRANCH  20  21
ENDBRANCH  15  20
BRANCH  18  24
HETATM   24  O2  UNL     1       7.238  27.849  25.231  1.00  0.00    -0.391 OA
ATOM     25  H2  UNL     1       6.896  28.400  24.536  1.00  0.00     0.210 HD
ENDBRANCH  18  24
BRANCH  19  26
HETATM   26  O1  UNL     1       4.291  28.023  25.268  1.00  0.00    -0.389 OA
ATOM     27  H1  UNL     1       4.731  28.864  25.292  1.00  0.00     0.210 HD
ENDBRANCH  19  26
ENDBRANCH   1  13
BRANCH  12  28
HETATM   28  S1  UNL     1       1.173  26.177  24.618  1.00  0.00    -0.113 SA
HETATM   29  C16 UNL     1      -0.200  25.044  24.959  1.00  0.00     0.097 C
ENDBRANCH  12  28
BRANCH   5  30
HETATM   30  N4  UNL     1       4.354  23.120  20.041  1.00  0.00    -0.365 N
HETATM   31  C9  UNL     1       5.516  23.827  19.551  1.00  0.00     0.124 C
HETATM   32  C10 UNL     1       6.666  22.828  19.625  1.00  0.00     0.021 C
HETATM   33  C11 UNL     1       6.064  21.606  20.289  1.00  0.00     0.021 C
HETATM   34  C12 UNL     1       4.614  21.712  19.838  1.00  0.00     0.124 C
ENDBRANCH   5  30
TORSDOF 7
ENDMDL