MODEL 3
REMARK VINA RESULT: -6.557062859      3.187      5.417
REMARK  11 active torsions:
REMARK  status: ('A' for Active; 'I' for Inactive)
REMARK    1  A    between atoms: C2_2  and  O1_3
REMARK    2  A    between atoms: O1_3  and  C3_4
REMARK    3  A    between atoms: C3_4  and  C4_6
REMARK    4  A    between atoms: C4_6  and  C5_7
REMARK    5  A    between atoms: C8_11  and  O3_12
REMARK    6  A    between atoms: C11_16  and  O4_17
REMARK    7  A    between atoms: N1_19  and  C12_20
REMARK    8  A    between atoms: C12_20  and  C13_21
REMARK    9  A    between atoms: C13_21  and  O6_23
REMARK   10  A    between atoms: O6_23  and  C14_24
REMARK   11  A    between atoms: C18_28  and  O7_29
ROOT
HETATM    1  C4  UNL     1       5.619  23.420  23.004  1.00  0.00     0.088 C
HETATM    2  C7  UNL     1       4.345  22.710  22.682  1.00  0.00     0.101 C
HETATM    3  S1  UNL     1       3.115  23.716  21.886  1.00  0.00    -0.131 SA
HETATM    4  C8  UNL     1       3.274  25.384  22.484  1.00  0.00     0.217 C
HETATM    5  C9  UNL     1       4.345  25.547  23.497  1.00  0.00     0.043 A
HETATM    6  C10 UNL     1       5.372  24.684  23.724  1.00  0.00     0.026 A
HETATM    7  C11 UNL     1       6.099  25.281  24.767  1.00  0.00     0.153 A
HETATM    8  N1  UNL     1       5.527  26.427  25.124  1.00  0.00    -0.298 N
HETATM    9  C18 UNL     1       4.443  26.637  24.374  1.00  0.00     0.155 A
ENDROOT
BRANCH   8  10
HETATM   10  C12 UNL     1       5.983  27.332  26.164  1.00  0.00     0.244 C
BRANCH  10  11
HETATM   11  C13 UNL     1       5.539  26.904  27.508  1.00  0.00     0.278 C
HETATM   12  O5  UNL     1       6.198  27.033  28.554  1.00  0.00    -0.263 OA
BRANCH  11  13
HETATM   13  O6  UNL     1       4.301  26.315  27.624  1.00  0.00    -0.310 OA
BRANCH  13  14
HETATM   14  C14 UNL     1       3.192  26.933  28.206  1.00  0.00     0.060 C
HETATM   15  C15 UNL     1       2.943  26.280  29.550  1.00  0.00     0.045 C
HETATM   16  C16 UNL     1       1.961  26.703  27.343  1.00  0.00     0.045 C
HETATM   17  C17 UNL     1       3.330  28.404  28.417  1.00  0.00     0.045 C
ENDBRANCH  13  14
ENDBRANCH  11  13
ENDBRANCH  10  11
ENDBRANCH   8  10
BRANCH   7  18
HETATM   18  O4  UNL     1       7.260  24.781  25.369  1.00  0.00    -0.345 OA
ATOM     19  H4  UNL     1       7.990  24.361  24.929  1.00  0.00     0.219 HD
ENDBRANCH   7  18
BRANCH   9  20
HETATM   20  O7  UNL     1       3.594  27.733  24.466  1.00  0.00    -0.345 OA
ATOM     21  H7  UNL     1       3.667  28.476  25.054  1.00  0.00     0.219 HD
ENDBRANCH   9  20
BRANCH   1  22
HETATM   22  C3  UNL     1       6.317  22.517  23.982  1.00  0.00     0.273 C
HETATM   23  O2  UNL     1       5.689  22.001  24.933  1.00  0.00    -0.264 OA
BRANCH  22  24
HETATM   24  O1  UNL     1       7.666  22.209  23.895  1.00  0.00    -0.321 OA
BRANCH  24  25
HETATM   25  C2  UNL     1       8.182  20.912  23.884  1.00  0.00     0.174 C
HETATM   26  C1  UNL     1       9.362  20.917  22.903  1.00  0.00     0.034 C
ENDBRANCH  24  25
ENDBRANCH  22  24
ENDBRANCH   1  22
BRANCH   1  27
HETATM   27  C5  UNL     1       6.549  23.589  21.843  1.00  0.00     0.021 C
HETATM   28  C6  UNL     1       6.441  22.587  20.756  1.00  0.00     0.006 C
ENDBRANCH   1  27
BRANCH   4  29
HETATM   29  O3  UNL     1       2.041  25.829  22.987  1.00  0.00    -0.380 OA
ATOM     30  H3  UNL     1       2.164  26.637  23.472  1.00  0.00     0.211 HD
ENDBRANCH   4  29
TORSDOF 11
ENDMDL