MODEL 1
REMARK VINA RESULT: -6.912477197      0.000      0.000
REMARK  9 active torsions:
REMARK  status: ('A' for Active; 'I' for Inactive)
REMARK    1  A    between atoms: O1_2  and  C2_3
REMARK    2  A    between atoms: C2_3  and  C3_5
REMARK    3  A    between atoms: C3_5  and  N1_6
REMARK    4  A    between atoms: N1_6  and  C4_9
REMARK    5  A    between atoms: C4_9  and  C6_11
REMARK    6  A    between atoms: C8_14  and  O4_15
REMARK    7  A    between atoms: C9_17  and  N2_18
REMARK    8  A    between atoms: N2_18  and  N3_19
REMARK    9  A    between atoms: C12_26  and  C13_27
ROOT
HETATM    1  C6  UNL     1       1.902  23.730  20.352  1.00  0.00     0.113 C
HETATM    2  C7  UNL     1       2.889  23.445  21.474  1.00  0.00     0.196 C
HETATM    3  O3  UNL     1       3.127  24.606  22.266  1.00  0.00    -0.327 OA
HETATM    4  C8  UNL     1       4.201  24.949  23.025  1.00  0.00     0.219 C
HETATM    5  C9  UNL     1       5.160  24.138  23.735  1.00  0.00     0.175 C
HETATM    6  C10 UNL     1       5.739  22.917  23.076  1.00  0.00     0.166 C
HETATM    7  S1  UNL     1       7.159  22.214  23.965  1.00  0.00    -0.090 SA
HETATM    8  S2  UNL     1       7.716  20.473  22.879  1.00  0.00    -0.096 SA
HETATM    9  C11 UNL     1       6.234  19.734  22.081  1.00  0.00     0.103 C
HETATM   10  C12 UNL     1       5.978  20.351  20.747  1.00  0.00     0.115 C
HETATM   11  C14 UNL     1       4.551  20.140  20.250  1.00  0.00     0.025 C
HETATM   12  C15 UNL     1       4.600  18.860  19.413  1.00  0.00     0.028 C
HETATM   13  C16 UNL     1       3.615  19.798  21.405  1.00  0.00     0.028 C
HETATM   14  S3  UNL     1       4.102  21.584  19.338  1.00  0.00    -0.087 SA
HETATM   15  S4  UNL     1       2.131  22.190  19.266  1.00  0.00    -0.088 SA
ENDROOT
BRANCH   1  16
HETATM   16  C4  UNL     1       0.478  23.671  20.790  1.00  0.00     0.199 C
HETATM   17  C5  UNL     1      -0.353  24.084  19.521  1.00  0.00     0.041 C
BRANCH  16  18
HETATM   18  N1  UNL     1       0.223  24.834  21.702  1.00  0.00    -0.061 N
ATOM     19  H12 UNL     1      -0.262  25.607  21.245  1.00  0.00     0.278 HD
ATOM     20  H11 UNL     1       1.069  25.345  21.951  1.00  0.00     0.278 HD
BRANCH  18  21
HETATM   21  C3  UNL     1      -0.491  24.306  22.852  1.00  0.00     0.343 C
BRANCH  21  22
HETATM   22  C2  UNL     1       0.228  24.033  24.086  1.00  0.00     0.284 C
HETATM   23  O2  UNL     1       0.842  22.931  24.196  1.00  0.00    -0.263 OA
BRANCH  22  24
HETATM   24  O1  UNL     1       0.322  24.892  25.186  1.00  0.00    -0.325 OA
HETATM   25  C1  UNL     1       1.571  25.360  25.614  1.00  0.00     0.213 C
ENDBRANCH  22  24
ENDBRANCH  21  22
ENDBRANCH  18  21
ENDBRANCH  16  18
ENDBRANCH   1  16
BRANCH   4  26
HETATM   26  O4  UNL     1       4.392  26.267  23.116  1.00  0.00    -0.339 OA
ATOM     27  H4  UNL     1       5.271  26.541  22.881  1.00  0.00     0.220 HD
ENDBRANCH   4  26
BRANCH   5  28
HETATM   28  N2  UNL     1       5.570  24.402  24.919  1.00  0.00    -0.332 NA
BRANCH  28  29
HETATM   29  N3  UNL     1       5.976  24.784  25.984  1.00  0.00    -0.280 N
ATOM     30  H32 UNL     1       5.927  25.707  25.553  1.00  0.00     0.191 HD
ATOM     31  H31 UNL     1       6.320  24.990  26.922  1.00  0.00     0.191 HD
ENDBRANCH  28  29
ENDBRANCH   5  28
BRANCH  10  32
HETATM   32  C13 UNL     1       6.996  19.873  19.765  1.00  0.00     0.179 C
HETATM   33  O5  UNL     1       7.419  20.699  18.928  1.00  0.00    -0.648 OA
HETATM   34  O6  UNL     1       7.479  18.564  19.748  1.00  0.00    -0.648 OA
ENDBRANCH  10  32
TORSDOF 9
ENDMDL