MODEL 4
REMARK VINA RESULT: -6.543247610      3.248      5.322
REMARK  9 active torsions:
REMARK  status: ('A' for Active; 'I' for Inactive)
REMARK    1  A    between atoms: C2_2  and  O1_3
REMARK    2  A    between atoms: O1_3  and  C3_4
REMARK    3  A    between atoms: C3_4  and  S1_6
REMARK    4  A    between atoms: S1_6  and  C4_7
REMARK    5  A    between atoms: C5_8  and  O3_9
REMARK    6  A    between atoms: C9_17  and  N2_18
REMARK    7  A    between atoms: C13_25  and  C14_26
REMARK    8  A    between atoms: C16_29  and  O8_30
REMARK    9  A    between atoms: O8_30  and  C17_31
ROOT
HETATM    1  C4  UNL     1       5.722  22.388  22.197  1.00  0.00     0.125 C
HETATM    2  C5  UNL     1       4.627  21.454  21.756  1.00  0.00     0.196 C
HETATM    3  C6  UNL     1       3.782  22.041  20.690  1.00  0.00     0.108 C
HETATM    4  S2  UNL     1       4.714  22.350  19.329  1.00  0.00    -0.062 SA
HETATM    5  N1  UNL     1       2.418  22.331  20.706  1.00  0.00    -0.346 N
ATOM      6  H1  UNL     1       2.012  22.449  19.778  1.00  0.00     0.167 HD
HETATM    7  C7  UNL     1       1.481  22.496  21.768  1.00  0.00     0.069 A
HETATM    8  C8  UNL     1       0.193  21.937  21.576  1.00  0.00     0.068 A
HETATM    9  C9  UNL     1      -0.810  22.020  22.502  1.00  0.00     0.105 A
HETATM   10  C10 UNL     1      -0.549  22.683  23.682  1.00  0.00     0.039 A
HETATM   11  C11 UNL     1       0.702  23.228  23.871  1.00  0.00     0.041 A
HETATM   12  C12 UNL     1       1.737  23.159  22.951  1.00  0.00     0.096 A
HETATM   13  O6  UNL     1       2.892  23.753  23.314  1.00  0.00    -0.338 OA
HETATM   14  C13 UNL     1       4.092  24.156  22.851  1.00  0.00     0.190 C
HETATM   15  C16 UNL     1       5.271  23.301  23.273  1.00  0.00     0.181 C
ENDROOT
BRANCH   1  16
HETATM   16  S1  UNL     1       7.206  21.469  22.519  1.00  0.00    -0.051 SA
BRANCH  16  17
HETATM   17  C3  UNL     1       7.263  19.896  21.709  1.00  0.00     0.322 C
HETATM   18  O2  UNL     1       7.182  18.797  22.334  1.00  0.00    -0.252 OA
BRANCH  17  19
HETATM   19  O1  UNL     1       7.401  19.803  20.332  1.00  0.00    -0.313 OA
BRANCH  19  20
HETATM   20  C2  UNL     1       8.575  19.293  19.717  1.00  0.00     0.175 C
HETATM   21  C1  UNL     1       9.675  20.297  19.900  1.00  0.00     0.034 C
ENDBRANCH  19  20
ENDBRANCH  17  19
ENDBRANCH  16  17
ENDBRANCH   1  16
BRANCH   2  22
HETATM   22  O3  UNL     1       3.835  20.992  22.798  1.00  0.00    -0.387 OA
ATOM     23  H3  UNL     1       3.475  20.126  22.648  1.00  0.00     0.210 HD
ENDBRANCH   2  22
BRANCH  15  24
HETATM   24  O8  UNL     1       6.303  24.048  23.863  1.00  0.00    -0.312 OA
BRANCH  24  25
HETATM   25  C17 UNL     1       6.766  23.947  25.138  1.00  0.00     0.255 C
HETATM   26  C18 UNL     1       8.118  23.368  25.350  1.00  0.00     0.126 C
HETATM   27  O9  UNL     1       6.056  24.335  26.072  1.00  0.00    -0.266 OA
ENDBRANCH  24  25
ENDBRANCH  15  24
BRANCH  14  28
HETATM   28  C14 UNL     1       4.310  25.533  23.540  1.00  0.00     0.177 A
HETATM   29  C15 UNL     1       3.126  26.471  23.595  1.00  0.00     0.203 A
HETATM   30  O7  UNL     1       3.577  25.757  24.703  1.00  0.00    -0.378 OA
ENDBRANCH  14  28
BRANCH   9  31
HETATM   31  N2  UNL     1      -2.095  21.454  22.299  1.00  0.00    -0.116 N
HETATM   32  O4  UNL     1      -2.791  21.854  21.349  1.00  0.00    -0.532 OA
HETATM   33  O5  UNL     1      -2.580  20.478  23.131  1.00  0.00    -0.532 OA
ENDBRANCH   9  31
TORSDOF 9
ENDMDL