MODEL 4
REMARK VINA RESULT: -8.978681653      2.025      2.575
REMARK  10 active torsions:
REMARK  status: ('A' for Active; 'I' for Inactive)
REMARK    1  A    between atoms: C3_3  and  O1_4
REMARK    2  A    between atoms: O1_4  and  C4_5
REMARK    3  A    between atoms: C4_5  and  C5_6
REMARK    4  A    between atoms: C5_6  and  O2_7
REMARK    5  A    between atoms: O2_7  and  C6_8
REMARK    6  A    between atoms: C9_11  and  O3_12
REMARK    7  A    between atoms: C19_27  and  O8_28
REMARK    8  A    between atoms: O8_28  and  C20_29
REMARK    9  A    between atoms: C20_29  and  C21_31
REMARK   10  A    between atoms: C24_34  and  O10_35
ROOT
HETATM    1  C1  UNL     1       5.711  22.993  19.376  1.00  0.00     0.049 C
HETATM    2  C2  UNL     1       4.762  22.568  20.424  1.00  0.00    -0.016 C
HETATM    3  C3  UNL     1       4.747  21.335  20.893  1.00  0.00     0.185 C
HETATM    4  O4  UNL     1       3.819  20.986  21.895  1.00  0.00    -0.296 OA
HETATM    5  C12 UNL     1       3.289  21.949  22.789  1.00  0.00     0.302 C
HETATM    6  O5  UNL     1       1.912  22.016  22.498  1.00  0.00    -0.326 OA
HETATM    7  C13 UNL     1       1.795  21.949  21.120  1.00  0.00     0.296 C
HETATM    8  O6  UNL     1       0.434  22.155  20.790  1.00  0.00    -0.323 OA
HETATM    9  C14 UNL     1       0.242  23.517  20.955  1.00  0.00     0.160 C
HETATM   10  C15 UNL     1      -0.621  24.099  19.841  1.00  0.00     0.078 C
HETATM   11  C16 UNL     1      -0.454  23.723  22.271  1.00  0.00     0.078 C
HETATM   12  O7  UNL     1       1.475  24.147  20.879  1.00  0.00    -0.345 OA
HETATM   13  C17 UNL     1       2.390  23.182  20.475  1.00  0.00     0.191 C
HETATM   14  C18 UNL     1       3.770  23.513  21.000  1.00  0.00     0.087 C
HETATM   15  C19 UNL     1       3.855  23.322  22.499  1.00  0.00     0.199 C
ENDROOT
BRANCH   3  16
HETATM   16  O1  UNL     1       5.595  20.362  20.458  1.00  0.00    -0.328 OA
BRANCH  16  17
HETATM   17  C4  UNL     1       5.649  19.036  20.924  1.00  0.00     0.204 C
BRANCH  17  18
HETATM   18  C5  UNL     1       6.761  18.776  21.875  1.00  0.00     0.202 C
BRANCH  18  19
HETATM   19  O2  UNL     1       7.677  19.794  21.921  1.00  0.00    -0.349 OA
BRANCH  19  20
HETATM   20  C6  UNL     1       7.917  20.811  22.775  1.00  0.00     0.069 A
HETATM   21  C7  UNL     1       6.974  21.400  23.583  1.00  0.00     0.039 A
HETATM   22  C8  UNL     1       7.309  22.457  24.439  1.00  0.00     0.039 A
HETATM   23  C9  UNL     1       8.570  22.956  24.522  1.00  0.00     0.065 A
HETATM   24  C10 UNL     1       9.527  22.376  23.719  1.00  0.00     0.039 A
HETATM   25  C11 UNL     1       9.222  21.349  22.880  1.00  0.00     0.039 A
BRANCH  23  26
HETATM   26  O3  UNL     1       8.868  24.002  25.379  1.00  0.00    -0.361 OA
ATOM     27  H3  UNL     1       8.441  24.845  25.290  1.00  0.00     0.217 HD
ENDBRANCH  23  26
ENDBRANCH  19  20
ENDBRANCH  18  19
ENDBRANCH  17  18
ENDBRANCH  16  17
ENDBRANCH   3  16
BRANCH  15  28
HETATM   28  O8  UNL     1       3.214  24.319  23.228  1.00  0.00    -0.306 OA
BRANCH  28  29
HETATM   29  C20 UNL     1       3.854  25.419  23.769  1.00  0.00     0.293 C
HETATM   30  O9  UNL     1       4.183  26.325  22.955  1.00  0.00    -0.259 OA
BRANCH  29  31
HETATM   31  C21 UNL     1       4.139  25.541  25.202  1.00  0.00     0.039 A
HETATM   32  C22 UNL     1       3.192  25.951  26.111  1.00  0.00     0.020 A
HETATM   33  C23 UNL     1       3.464  26.066  27.467  1.00  0.00     0.037 A
HETATM   34  C24 UNL     1       4.717  25.770  27.961  1.00  0.00     0.065 A
HETATM   35  C25 UNL     1       5.671  25.359  27.058  1.00  0.00     0.037 A
HETATM   36  C26 UNL     1       5.388  25.247  25.703  1.00  0.00     0.020 A
BRANCH  34  37
HETATM   37  O10 UNL     1       4.975  25.891  29.325  1.00  0.00    -0.361 OA
ATOM     38  H10 UNL     1       5.496  25.233  29.771  1.00  0.00     0.217 HD
ENDBRANCH  34  37
ENDBRANCH  29  31
ENDBRANCH  28  29
ENDBRANCH  15  28
TORSDOF 10
ENDMDL