MODEL 1
REMARK VINA RESULT: -7.674472441      0.000      0.000
REMARK  11 active torsions:
REMARK  status: ('A' for Active; 'I' for Inactive)
REMARK    1  A    between atoms: C2_2  and  S1_3
REMARK    2  A    between atoms: S1_3  and  C3_4
REMARK    3  A    between atoms: C9_14  and  O3_15
REMARK    4  A    between atoms: O3_15  and  C10_16
REMARK    5  A    between atoms: C10_16  and  O4_17
REMARK    6  A    between atoms: C10_16  and  O5_19
REMARK    7  A    between atoms: O5_19  and  C11_20
REMARK    8  A    between atoms: C16_25  and  C17_26
REMARK    9  A    between atoms: C17_26  and  O6_27
REMARK   10  A    between atoms: O6_27  and  C18_28
REMARK   11  A    between atoms: C23_35  and  O9_36
ROOT
HETATM    1  C3  UNL     1       7.897  21.187  21.477  1.00  0.00     0.202 C
HETATM    2  N1  UNL     1       6.997  21.779  20.747  1.00  0.00    -0.237 N
ATOM      3  H1  UNL     1       7.227  22.074  19.798  1.00  0.00     0.197 HD
HETATM    4  O1  UNL     1       5.724  22.012  21.254  1.00  0.00    -0.253 OA
HETATM    5  C4  UNL     1       5.226  20.903  22.036  1.00  0.00     0.205 C
HETATM    6  C5  UNL     1       5.161  19.786  21.048  1.00  0.00     0.191 C
HETATM    7  O2  UNL     1       5.773  18.754  21.302  1.00  0.00    -0.290 OA
HETATM    8  C6  UNL     1       4.415  19.807  19.770  1.00  0.00     0.054 C
HETATM    9  C7  UNL     1       3.551  20.646  19.185  1.00  0.00     0.006 C
HETATM   10  C8  UNL     1       3.018  21.928  19.667  1.00  0.00     0.033 C
HETATM   11  C9  UNL     1       2.945  22.611  20.812  1.00  0.00     0.063 C
HETATM   12  C15 UNL     1       3.358  22.434  22.175  1.00  0.00     0.105 C
HETATM   13  C16 UNL     1       4.364  23.429  22.733  1.00  0.00    -0.046 C
HETATM   14  C20 UNL     1       5.367  23.126  23.557  1.00  0.00    -0.018 C
HETATM   15  C21 UNL     1       5.828  21.845  24.163  1.00  0.00     0.063 C
HETATM   16  C22 UNL     1       6.162  20.756  23.149  1.00  0.00     0.182 C
HETATM   17  O8  UNL     1       7.517  20.814  22.754  1.00  0.00    -0.320 OA
HETATM   18  C23 UNL     1       3.838  21.069  22.536  1.00  0.00     0.180 C
ENDROOT
BRANCH  11  19
HETATM   19  O3  UNL     1       2.285  23.798  20.571  1.00  0.00    -0.300 OA
BRANCH  19  20
HETATM   20  C10 UNL     1       0.890  23.973  20.744  1.00  0.00     0.416 C
BRANCH  20  21
HETATM   21  O4  UNL     1       0.745  25.074  21.601  1.00  0.00    -0.349 OA
ATOM     22  H4  UNL     1       1.165  24.825  22.416  1.00  0.00     0.215 HD
ENDBRANCH  20  21
BRANCH  20  23
HETATM   23  O5  UNL     1       0.326  24.205  19.506  1.00  0.00    -0.329 OA
BRANCH  23  24
HETATM   24  C11 UNL     1      -0.489  23.233  19.022  1.00  0.00     0.055 C
HETATM   25  C12 UNL     1      -0.746  22.091  19.971  1.00  0.00     0.045 C
HETATM   26  C13 UNL     1      -1.849  23.882  18.733  1.00  0.00     0.045 C
HETATM   27  C14 UNL     1      -0.033  22.643  17.705  1.00  0.00     0.045 C
ENDBRANCH  23  24
ENDBRANCH  20  23
ENDBRANCH  19  20
ENDBRANCH  11  19
BRANCH  13  28
HETATM   28  C17 UNL     1       4.191  24.821  22.294  1.00  0.00     0.213 C
BRANCH  28  29
HETATM   29  O6  UNL     1       3.247  25.586  22.950  1.00  0.00    -0.317 OA
BRANCH  29  30
HETATM   30  C18 UNL     1       3.367  26.416  24.022  1.00  0.00     0.255 C
HETATM   31  C19 UNL     1       4.183  26.118  25.233  1.00  0.00     0.126 C
HETATM   32  O7  UNL     1       2.756  27.512  24.013  1.00  0.00    -0.266 OA
ENDBRANCH  29  30
ENDBRANCH  28  29
ENDBRANCH  13  28
BRANCH  18  33
HETATM   33  O9  UNL     1       2.953  20.062  22.145  1.00  0.00    -0.391 OA
ATOM     34  H9  UNL     1       2.390  19.739  22.838  1.00  0.00     0.210 HD
ENDBRANCH  18  33
BRANCH   1  35
HETATM   35  S1  UNL     1       9.541  20.880  20.840  1.00  0.00    -0.085 SA
BRANCH  35  36
HETATM   36  C2  UNL     1       9.355  19.989  19.255  1.00  0.00     0.078 C
HETATM   37  C1  UNL     1       8.387  18.838  19.436  1.00  0.00     0.016 C
ENDBRANCH  35  36
ENDBRANCH   1  35
TORSDOF 11
ENDMDL