MODEL 4
REMARK VINA RESULT: -8.711696649      1.936      4.305
REMARK  9 active torsions:
REMARK  status: ('A' for Active; 'I' for Inactive)
REMARK    1  A    between atoms: C2_2  and  C3_3
REMARK    2  A    between atoms: C2_2  and  C4_6
REMARK    3  A    between atoms: C3_3  and  O1_4
REMARK    4  A    between atoms: C9_15  and  C10_16
REMARK    5  A    between atoms: C10_16  and  O6_17
REMARK    6  A    between atoms: O6_17  and  C11_18
REMARK    7  A    between atoms: C11_18  and  C12_20
REMARK    8  A    between atoms: C14_22  and  O8_23
REMARK    9  A    between atoms: C17_27  and  O9_28
ROOT
HETATM    1  O6  UNL     1       2.956  23.216  22.740  1.00  0.00    -0.312 OA
ENDROOT
BRANCH   1   2
HETATM    2  C10 UNL     1       2.104  24.101  23.381  1.00  0.00     0.251 C
BRANCH   2   3
HETATM    3  C9  UNL     1       2.698  25.067  24.339  1.00  0.00     0.224 C
HETATM    4  C6  UNL     1       3.029  26.404  23.691  1.00  0.00     0.230 C
HETATM    5  C5  UNL     1       2.689  27.377  24.785  1.00  0.00     0.114 C
HETATM    6  O2  UNL     1       4.367  26.389  23.355  1.00  0.00    -0.225 OA
HETATM    7  C4  UNL     1       2.650  26.456  26.004  1.00  0.00     0.202 C
HETATM    8  O4  UNL     1       3.971  26.197  26.343  1.00  0.00    -0.289 OA
HETATM    9  O10 UNL     1       2.010  25.337  25.483  1.00  0.00    -0.309 OA
HETATM   10  C7  UNL     1       4.655  25.490  25.391  1.00  0.00     0.312 C
HETATM   11  O3  UNL     1       5.122  26.397  24.427  1.00  0.00    -0.171 OA
HETATM   12  C8  UNL     1       5.837  24.788  26.064  1.00  0.00     0.118 C
HETATM   13  O5  UNL     1       3.931  24.526  24.739  1.00  0.00    -0.289 OA
BRANCH   7  14
HETATM   14  C2  UNL     1       1.938  27.061  27.140  1.00  0.00    -0.004 C
HETATM   15  C1  UNL     1       1.983  28.363  27.342  1.00  0.00     0.022 C
BRANCH  14  16
HETATM   16  C3  UNL     1       1.156  26.218  28.079  1.00  0.00     0.203 C
BRANCH  16  17
HETATM   17  O1  UNL     1       1.672  24.925  28.138  1.00  0.00    -0.397 OA
ATOM     18  H1  UNL     1       1.257  24.424  28.830  1.00  0.00     0.209 HD
ENDBRANCH  16  17
ENDBRANCH  14  16
ENDBRANCH   7  14
ENDBRANCH   2   3
ENDBRANCH   1   2
BRANCH   1  19
HETATM   19  C11 UNL     1       2.963  21.858  22.687  1.00  0.00     0.296 C
HETATM   20  O7  UNL     1       2.058  21.251  23.355  1.00  0.00    -0.259 OA
BRANCH  19  21
HETATM   21  C12 UNL     1       3.938  21.083  21.915  1.00  0.00     0.076 A
HETATM   22  C13 UNL     1       3.533  20.444  20.766  1.00  0.00     0.057 A
HETATM   23  C14 UNL     1       4.476  19.739  20.052  1.00  0.00     0.073 A
HETATM   24  C15 UNL     1       5.815  19.665  20.470  1.00  0.00    -0.015 A
HETATM   25  C16 UNL     1       6.188  20.315  21.624  1.00  0.00    -0.011 A
HETATM   26  C24 UNL     1       6.768  18.889  19.644  1.00  0.00     0.042 C
HETATM   27  C17 UNL     1       5.245  21.017  22.334  1.00  0.00     0.091 A
HETATM   28  C19 UNL     1       7.611  20.214  22.022  1.00  0.00     0.022 C
HETATM   29  C20 UNL     1       7.940  18.840  22.605  1.00  0.00     0.015 C
HETATM   30  C21 UNL     1       8.390  20.404  20.709  1.00  0.00    -0.010 C
HETATM   31  C22 UNL     1       9.814  20.764  20.969  1.00  0.00     0.010 C
HETATM   32  C23 UNL     1       8.208  19.151  19.927  1.00  0.00     0.009 C
BRANCH  23  33
HETATM   33  O8  UNL     1       4.107  19.078  18.884  1.00  0.00    -0.360 OA
ATOM     34  H8  UNL     1       4.762  18.892  18.220  1.00  0.00     0.217 HD
ENDBRANCH  23  33
BRANCH  27  35
HETATM   35  O9  UNL     1       5.707  21.643  23.489  1.00  0.00    -0.354 OA
HETATM   36  C18 UNL     1       6.443  22.858  23.317  1.00  0.00     0.210 C
ENDBRANCH  27  35
ENDBRANCH  19  21
ENDBRANCH   1  19
TORSDOF 9
ENDMDL