MODEL 1
REMARK VINA RESULT: -7.785459118      0.000      0.000
REMARK  9 active torsions:
REMARK  status: ('A' for Active; 'I' for Inactive)
REMARK    1  A    between atoms: O1_2  and  C2_3
REMARK    2  A    between atoms: C4_5  and  C5_6
REMARK    3  A    between atoms: C5_6  and  O2_7
REMARK    4  A    between atoms: C5_6  and  N1_9
REMARK    5  A    between atoms: N1_9  and  C7_11
REMARK    6  A    between atoms: C8_14  and  N3_15
REMARK    7  A    between atoms: N3_15  and  N4_17
REMARK    8  A    between atoms: C17_33  and  O3_34
REMARK    9  A    between atoms: C19_36  and  O4_37
ROOT
HETATM    1  C7  UNL     1       8.144  21.302  22.204  1.00  0.00     0.694 A
HETATM    2  N2  UNL     1       7.172  21.401  21.364  1.00  0.00    -0.166 N
ATOM      3  H2  UNL     1       6.379  22.011  21.560  1.00  0.00     0.186 HD
HETATM    4  C8  UNL     1       7.218  20.695  20.237  1.00  0.00     0.195 A
HETATM    5  S2  UNL     1       8.705  19.875  20.410  1.00  0.00     0.040 SA
HETATM    6  N6  UNL     1       9.164  20.497  21.922  1.00  0.00    -0.157 N
ATOM      7  H6  UNL     1      10.002  20.304  22.470  1.00  0.00     0.193 HD
ENDROOT
BRANCH   1   8
HETATM    8  N1  UNL     1       8.124  22.080  23.477  1.00  0.00    -0.165 N
HETATM    9  C6  UNL     1       9.389  22.539  23.954  1.00  0.00     0.177 C
BRANCH   8  10
HETATM   10  C5  UNL     1       6.903  22.259  24.099  1.00  0.00     0.167 C
BRANCH  10  11
HETATM   11  C4  UNL     1       6.172  23.448  24.414  1.00  0.00     0.021 A
HETATM   12  C3  UNL     1       6.244  24.171  25.575  1.00  0.00     0.055 A
HETATM   13  C2  UNL     1       5.470  25.312  25.831  1.00  0.00     0.105 A
HETATM   14  C19 UNL     1       4.596  25.726  24.869  1.00  0.00     0.135 A
HETATM   15  C17 UNL     1       4.486  25.034  23.681  1.00  0.00     0.105 A
HETATM   16  C16 UNL     1       5.251  23.926  23.456  1.00  0.00     0.055 A
BRANCH  13  17
HETATM   17  O1  UNL     1       5.589  25.996  27.024  1.00  0.00    -0.353 OA
HETATM   18  C1  UNL     1       4.927  25.497  28.168  1.00  0.00     0.210 C
ENDBRANCH  13  17
BRANCH  14  19
HETATM   19  O4  UNL     1       3.784  26.845  25.024  1.00  0.00    -0.351 OA
HETATM   20  C20 UNL     1       2.520  26.721  25.643  1.00  0.00     0.210 C
ENDBRANCH  14  19
BRANCH  15  21
HETATM   21  O3  UNL     1       3.579  25.483  22.705  1.00  0.00    -0.353 OA
HETATM   22  C18 UNL     1       2.404  24.729  22.493  1.00  0.00     0.210 C
ENDBRANCH  15  21
ENDBRANCH  10  11
BRANCH  10  23
HETATM   23  O2  UNL     1       6.319  21.140  24.460  1.00  0.00    -0.345 OA
ATOM     24  H2  UNL     1       6.903  20.482  24.819  1.00  0.00     0.219 HD
ENDBRANCH  10  23
ENDBRANCH   8  10
ENDBRANCH   1   8
BRANCH   4  25
HETATM   25  N3  UNL     1       6.337  20.657  19.264  1.00  0.00    -0.277 N
ATOM     26  H3  UNL     1       6.437  21.236  18.431  1.00  0.00     0.189 HD
BRANCH  25  27
HETATM   27  N4  UNL     1       5.261  19.790  19.423  1.00  0.00    -0.294 N
HETATM   28  C9  UNL     1       4.207  20.023  20.074  1.00  0.00     0.091 C
HETATM   29  S1  UNL     1       3.756  21.498  20.979  1.00  0.00    -0.082 SA
HETATM   30  C13 UNL     1       3.061  19.134  20.254  1.00  0.00     0.070 C
HETATM   31  C10 UNL     1       2.213  20.816  21.702  1.00  0.00     0.074 C
HETATM   32  C11 UNL     1       2.250  21.101  23.188  1.00  0.00     0.050 C
HETATM   33  C12 UNL     1       1.002  21.456  21.060  1.00  0.00     0.050 C
HETATM   34  N5  UNL     1       2.280  19.462  21.358  1.00  0.00    -0.390 N
ATOM     35  H5  UNL     1       1.782  18.750  21.891  1.00  0.00     0.156 HD
HETATM   36  C14 UNL     1       3.452  17.668  20.268  1.00  0.00     0.045 C
HETATM   37  C15 UNL     1       2.205  19.294  18.986  1.00  0.00     0.045 C
ATOM     38  H4  UNL     1       5.332  18.879  18.970  1.00  0.00     0.187 HD
ENDBRANCH  25  27
ENDBRANCH   4  25
TORSDOF 9
ENDMDL