MODEL 1
REMARK VINA RESULT: -7.953541734      0.000      0.000
REMARK  8 active torsions:
REMARK  status: ('A' for Active; 'I' for Inactive)
REMARK    1  A    between atoms: C2_2  and  O1_3
REMARK    2  A    between atoms: O1_3  and  C3_4
REMARK    3  A    between atoms: C5_7  and  O2_8
REMARK    4  A    between atoms: O2_8  and  C6_9
REMARK    5  A    between atoms: C10_15  and  C11_16
REMARK    6  A    between atoms: C15_22  and  C16_23
REMARK    7  A    between atoms: C18_25  and  O7_26
REMARK    8  A    between atoms: C19_28  and  O8_29
ROOT
HETATM    1  C3  UNL     1       1.075  19.834  18.089  1.00  0.00     0.079 C
HETATM    2  C4  UNL     1       1.550  20.171  19.275  1.00  0.00     0.102 C
HETATM    3  S1  UNL     1       2.728  18.971  19.893  1.00  0.00    -0.075 SA
HETATM    4  C5  UNL     1       3.391  19.788  21.388  1.00  0.00     0.225 C
HETATM    5  C18 UNL     1       2.181  20.216  22.177  1.00  0.00     0.206 C
HETATM    6  C19 UNL     1       1.375  21.284  21.554  1.00  0.00     0.253 C
HETATM    7  N1  UNL     1       1.294  21.287  20.117  1.00  0.00    -0.345 N
HETATM    8  C20 UNL     1       0.902  22.628  19.668  1.00  0.00     0.126 C
HETATM    9  C21 UNL     1      -0.160  22.567  18.612  1.00  0.00     0.020 C
HETATM   10  C22 UNL     1       0.420  22.027  17.320  1.00  0.00     0.008 C
HETATM   11  C23 UNL     1       0.097  20.556  17.263  1.00  0.00     0.067 C
ENDROOT
BRANCH   4  12
HETATM   12  O2  UNL     1       4.172  20.830  20.968  1.00  0.00    -0.340 OA
BRANCH  12  13
HETATM   13  C6  UNL     1       5.421  20.898  21.578  1.00  0.00     0.296 C
HETATM   14  O3  UNL     1       5.206  21.169  22.907  1.00  0.00    -0.323 OA
HETATM   15  C7  UNL     1       5.573  22.492  23.126  1.00  0.00     0.160 C
HETATM   16  C8  UNL     1       6.132  22.579  24.531  1.00  0.00     0.078 C
HETATM   17  C9  UNL     1       4.331  23.350  22.995  1.00  0.00     0.078 C
HETATM   18  O4  UNL     1       6.523  22.791  22.153  1.00  0.00    -0.343 OA
HETATM   19  C10 UNL     1       6.274  21.996  21.049  1.00  0.00     0.212 C
BRANCH  19  20
HETATM   20  C11 UNL     1       7.632  21.499  20.535  1.00  0.00     0.188 C
HETATM   21  O5  UNL     1       7.487  20.705  19.421  1.00  0.00    -0.345 OA
HETATM   22  C12 UNL     1       8.239  19.566  19.558  1.00  0.00     0.158 C
HETATM   23  C13 UNL     1       7.515  18.331  19.033  1.00  0.00     0.078 C
HETATM   24  C14 UNL     1       9.585  19.676  18.859  1.00  0.00     0.078 C
HETATM   25  O6  UNL     1       8.454  19.396  20.896  1.00  0.00    -0.348 OA
HETATM   26  C15 UNL     1       8.288  20.620  21.541  1.00  0.00     0.156 C
BRANCH  26  27
HETATM   27  C16 UNL     1       9.668  21.097  21.935  1.00  0.00     0.030 C
HETATM   28  C17 UNL     1       9.689  21.784  23.283  1.00  0.00     0.007 C
ENDBRANCH  26  27
ENDBRANCH  19  20
ENDBRANCH  12  13
ENDBRANCH   4  12
BRANCH   5  29
HETATM   29  O7  UNL     1       2.538  20.632  23.475  1.00  0.00    -0.388 OA
ATOM     30  H7  UNL     1       3.057  21.429  23.452  1.00  0.00     0.210 HD
ENDBRANCH   5  29
BRANCH   6  31
HETATM   31  O8  UNL     1       0.036  21.184  22.008  1.00  0.00    -0.374 OA
ATOM     32  H8  UNL     1      -0.104  20.324  22.386  1.00  0.00     0.212 HD
ENDBRANCH   6  31
BRANCH   1  33
HETATM   33  O1  UNL     1       1.557  18.648  17.549  1.00  0.00    -0.353 OA
BRANCH  33  34
HETATM   34  C2  UNL     1       0.809  17.840  16.677  1.00  0.00     0.171 C
HETATM   35  C1  UNL     1       1.561  16.603  16.244  1.00  0.00     0.034 C
ENDBRANCH  33  34
ENDBRANCH   1  33
TORSDOF 8
ENDMDL