MODEL 5
REMARK VINA RESULT: -7.618306533      2.887      6.044
REMARK  10 active torsions:
REMARK  status: ('A' for Active; 'I' for Inactive)
REMARK    1  A    between atoms: C2_2  and  C3_3
REMARK    2  A    between atoms: C3_3  and  C4_4
REMARK    3  A    between atoms: C4_4  and  C5_5
REMARK    4  A    between atoms: C5_5  and  C6_6
REMARK    5  A    between atoms: C6_6  and  O2_8
REMARK    6  A    between atoms: O2_8  and  C7_9
REMARK    7  A    between atoms: C12_15  and  O4_16
REMARK    8  A    between atoms: C16_23  and  O7_24
REMARK    9  A    between atoms: C23_33  and  O9_34
REMARK   10  A    between atoms: O9_34  and  C24_35
ROOT
HETATM    1  C7  UNL     1       5.821  22.334  22.286  1.00  0.00     0.166 C
HETATM    2  C8  UNL     1       5.620  22.485  23.749  1.00  0.00     0.081 C
HETATM    3  C9  UNL     1       5.309  23.838  24.229  1.00  0.00     0.038 A
HETATM    4  C10 UNL     1       4.066  24.489  24.136  1.00  0.00     0.106 A
HETATM    5  C11 UNL     1       4.266  25.718  24.757  1.00  0.00     0.182 A
HETATM    6  O3  UNL     1       5.505  25.805  25.180  1.00  0.00    -0.297 OA
HETATM    7  C12 UNL     1       6.138  24.714  24.883  1.00  0.00     0.192 A
HETATM    8  O5  UNL     1       3.019  23.839  23.516  1.00  0.00    -0.309 OA
HETATM    9  C13 UNL     1       2.341  23.903  22.332  1.00  0.00     0.200 C
HETATM   10  C14 UNL     1       1.110  24.831  22.596  1.00  0.00     0.083 C
HETATM   11  O6  UNL     1       3.002  24.562  21.257  1.00  0.00    -0.349 OA
HETATM   12  C15 UNL     1       2.139  23.824  20.428  1.00  0.00     0.216 C
HETATM   13  C16 UNL     1       1.917  22.803  21.542  1.00  0.00     0.143 C
HETATM   14  C17 UNL     1       2.636  21.554  21.314  1.00  0.00     0.008 C
HETATM   15  C18 UNL     1       2.412  20.628  22.511  1.00  0.00     0.019 C
HETATM   16  C19 UNL     1       1.861  20.830  20.185  1.00  0.00     0.020 C
HETATM   17  C20 UNL     1       2.860  20.041  19.421  1.00  0.00     0.079 C
HETATM   18  C21 UNL     1       4.128  20.749  19.592  1.00  0.00     0.134 C
HETATM   19  O8  UNL     1       5.108  20.695  18.903  1.00  0.00    -0.297 OA
HETATM   20  C22 UNL     1       4.030  21.608  20.829  1.00  0.00     0.099 C
HETATM   21  C23 UNL     1       5.080  21.094  21.769  1.00  0.00     0.173 C
ENDROOT
BRANCH   1  22
HETATM   22  O2  UNL     1       7.194  22.128  21.953  1.00  0.00    -0.313 OA
BRANCH  22  23
HETATM   23  C6  UNL     1       8.140  21.680  22.831  1.00  0.00     0.259 C
HETATM   24  O1  UNL     1       7.973  21.912  24.061  1.00  0.00    -0.265 OA
BRANCH  23  25
HETATM   25  C5  UNL     1       9.328  20.944  22.342  1.00  0.00     0.111 C
BRANCH  25  26
HETATM   26  C4  UNL     1       9.722  21.391  20.946  1.00  0.00     0.010 C
BRANCH  26  27
HETATM   27  C3  UNL     1       9.864  20.205  20.017  1.00  0.00     0.000 C
BRANCH  27  28
HETATM   28  C2  UNL     1       8.620  19.982  19.189  1.00  0.00    -0.005 C
HETATM   29  C1  UNL     1       8.395  18.494  18.976  1.00  0.00     0.005 C
ENDBRANCH  27  28
ENDBRANCH  26  27
ENDBRANCH  25  26
ENDBRANCH  23  25
ENDBRANCH  22  23
ENDBRANCH   1  22
BRANCH  21  30
HETATM   30  O9  UNL     1       5.959  20.165  21.165  1.00  0.00    -0.313 OA
BRANCH  30  31
HETATM   31  C24 UNL     1       6.061  18.845  21.572  1.00  0.00     0.255 C
HETATM   32  C25 UNL     1       7.136  18.309  22.444  1.00  0.00     0.126 C
HETATM   33  O10 UNL     1       5.179  18.044  21.175  1.00  0.00    -0.266 OA
ENDBRANCH  30  31
ENDBRANCH  21  30
BRANCH   7  34
HETATM   34  O4  UNL     1       7.497  24.504  25.208  1.00  0.00    -0.340 OA
ATOM     35  H4  UNL     1       8.192  24.262  24.607  1.00  0.00     0.220 HD
ENDBRANCH   7  34
BRANCH  13  36
HETATM   36  O7  UNL     1       0.518  22.537  21.565  1.00  0.00    -0.381 OA
ATOM     37  H7  UNL     1       0.063  22.682  20.745  1.00  0.00     0.211 HD
ENDBRANCH  13  36
TORSDOF 10
ENDMDL