MODEL 2
REMARK VINA RESULT: -7.828510317      2.623      6.607
REMARK  9 active torsions:
REMARK  status: ('A' for Active; 'I' for Inactive)
REMARK    1  A    between atoms: O1_2  and  C2_3
REMARK    2  A    between atoms: C6_7  and  O2_8
REMARK    3  A    between atoms: C7_10  and  C8_11
REMARK    4  A    between atoms: C8_11  and  C9_12
REMARK    5  A    between atoms: C13_16  and  O3_17
REMARK    6  A    between atoms: O3_17  and  C14_18
REMARK    7  A    between atoms: C16_21  and  O5_22
REMARK    8  A    between atoms: O5_22  and  C17_23
REMARK    9  A    between atoms: C19_26  and  O7_27
ROOT
HETATM    1  C2  UNL     1       6.845  22.857  23.750  1.00  0.00     0.078 A
HETATM    2  C3  UNL     1       6.250  24.109  23.894  1.00  0.00     0.047 A
HETATM    3  C4  UNL     1       4.956  24.359  23.507  1.00  0.00    -0.020 A
HETATM    4  C5  UNL     1       4.174  23.374  22.954  1.00  0.00     0.016 A
HETATM    5  C6  UNL     1       4.763  22.127  22.810  1.00  0.00     0.084 A
HETATM    6  C7  UNL     1       6.076  21.860  23.198  1.00  0.00     0.012 A
HETATM    7  C13 UNL     1       2.796  23.257  22.435  1.00  0.00     0.201 C
HETATM    8  C16 UNL     1       1.754  23.409  23.510  1.00  0.00     0.214 C
HETATM    9  C19 UNL     1       1.550  24.810  23.977  1.00  0.00     0.168 C
HETATM   10  S1  UNL     1       0.317  24.727  25.341  1.00  0.00    -0.049 SA
HETATM   11  C20 UNL     1       1.225  25.742  26.541  1.00  0.00     0.191 C
HETATM   12  O8  UNL     1       1.063  25.815  27.735  1.00  0.00    -0.285 OA
HETATM   13  C21 UNL     1       2.215  26.455  25.656  1.00  0.00     0.127 C
HETATM   14  C22 UNL     1       2.717  25.421  24.677  1.00  0.00     0.177 C
HETATM   15  O9  UNL     1       3.432  26.157  23.701  1.00  0.00    -0.377 OA
HETATM   16  C23 UNL     1       4.772  25.795  23.850  1.00  0.00     0.207 C
ENDROOT
BRANCH   6  17
HETATM   17  C8  UNL     1       6.656  20.504  23.030  1.00  0.00     0.071 C
BRANCH  17  18
HETATM   18  C9  UNL     1       7.099  20.307  21.628  1.00  0.00    -0.020 C
HETATM   19  C10 UNL     1       8.331  20.376  21.210  1.00  0.00    -0.091 C
HETATM   20  C11 UNL     1       8.635  20.154  19.770  1.00  0.00     0.042 C
HETATM   21  C12 UNL     1       9.467  20.695  22.112  1.00  0.00     0.042 C
ENDBRANCH  17  18
ENDBRANCH   6  17
BRANCH   1  22
HETATM   22  O1  UNL     1       8.166  22.653  24.157  1.00  0.00    -0.355 OA
HETATM   23  C1  UNL     1       8.618  23.352  25.296  1.00  0.00     0.210 C
ENDBRANCH   1  22
BRANCH   5  24
HETATM   24  O2  UNL     1       4.007  21.090  22.253  1.00  0.00    -0.359 OA
ATOM     25  H2  UNL     1       4.280  20.194  22.410  1.00  0.00     0.217 HD
ENDBRANCH   5  24
BRANCH   7  26
HETATM   26  O3  UNL     1       2.495  24.171  21.422  1.00  0.00    -0.309 OA
BRANCH  26  27
HETATM   27  C14 UNL     1       1.860  23.816  20.245  1.00  0.00     0.255 C
HETATM   28  C15 UNL     1       2.335  22.693  19.395  1.00  0.00     0.126 C
HETATM   29  O4  UNL     1       0.863  24.472  19.913  1.00  0.00    -0.266 OA
ENDBRANCH  26  27
ENDBRANCH   7  26
BRANCH   8  30
HETATM   30  O5  UNL     1       0.512  22.976  22.941  1.00  0.00    -0.309 OA
BRANCH  30  31
HETATM   31  C17 UNL     1       0.333  21.698  22.443  1.00  0.00     0.255 C
HETATM   32  C18 UNL     1      -0.744  21.397  21.466  1.00  0.00     0.126 C
HETATM   33  O6  UNL     1       1.127  20.804  22.858  1.00  0.00    -0.266 OA
ENDBRANCH  30  31
ENDBRANCH   8  30
BRANCH   9  34
HETATM   34  O7  UNL     1       1.108  25.669  22.982  1.00  0.00    -0.373 OA
ATOM     35  H7  UNL     1       0.526  26.350  23.297  1.00  0.00     0.212 HD
ENDBRANCH   9  34
TORSDOF 9
ENDMDL