MODEL 1
REMARK VINA RESULT: -7.378045122      0.000      0.000
REMARK  11 active torsions:
REMARK  status: ('A' for Active; 'I' for Inactive)
REMARK    1  A    between atoms: C2_2  and  C3_3
REMARK    2  A    between atoms: C3_3  and  C4_4
REMARK    3  A    between atoms: C4_4  and  C5_5
REMARK    4  A    between atoms: C5_5  and  O2_7
REMARK    5  A    between atoms: O2_7  and  C6_8
REMARK    6  A    between atoms: C12_14  and  O3_15
REMARK    7  A    between atoms: C14_19  and  O5_21
REMARK    8  A    between atoms: O5_21  and  C16_22
REMARK    9  A    between atoms: C20_27  and  O7_28
REMARK   10  A    between atoms: C23_33  and  O9_34
REMARK   11  A    between atoms: O9_34  and  C24_35
ROOT
HETATM    1  C6  UNL     1       2.270  22.604  22.510  1.00  0.00     0.205 C
HETATM    2  C7  UNL     1       3.736  22.457  22.752  1.00  0.00     0.017 A
HETATM    3  C8  UNL     1       4.545  23.381  23.350  1.00  0.00    -0.017 A
HETATM    4  C9  UNL     1       5.881  23.077  23.491  1.00  0.00     0.023 A
HETATM    5  C10 UNL     1       6.367  21.869  23.038  1.00  0.00    -0.019 A
HETATM    6  C11 UNL     1       5.566  20.911  22.428  1.00  0.00     0.057 A
HETATM    7  C12 UNL     1       4.219  21.216  22.283  1.00  0.00     0.090 A
HETATM    8  C13 UNL     1       6.133  19.657  21.968  1.00  0.00     0.201 A
HETATM    9  O4  UNL     1       5.427  18.790  21.415  1.00  0.00    -0.288 OA
HETATM   10  C14 UNL     1       7.565  19.350  22.132  1.00  0.00     0.150 A
HETATM   11  C15 UNL     1       7.639  18.151  23.087  1.00  0.00     0.060 C
HETATM   12  C18 UNL     1       8.319  20.440  22.794  1.00  0.00     0.020 A
HETATM   13  C19 UNL     1       7.780  21.560  23.194  1.00  0.00     0.012 A
HETATM   14  C20 UNL     1       4.236  24.737  23.910  1.00  0.00     0.159 C
HETATM   15  C21 UNL     1       3.565  25.643  22.916  1.00  0.00     0.117 C
HETATM   16  C22 UNL     1       3.133  24.808  21.766  1.00  0.00     0.161 C
HETATM   17  O8  UNL     1       3.806  24.978  20.770  1.00  0.00    -0.295 OA
HETATM   18  C23 UNL     1       2.024  23.825  21.669  1.00  0.00     0.235 C
ENDROOT
BRANCH   1  19
HETATM   19  O2  UNL     1       1.566  22.718  23.711  1.00  0.00    -0.308 OA
BRANCH  19  20
HETATM   20  C5  UNL     1       0.382  23.427  23.839  1.00  0.00     0.259 C
HETATM   21  O1  UNL     1       0.412  24.545  24.407  1.00  0.00    -0.265 OA
BRANCH  20  22
HETATM   22  C4  UNL     1      -0.910  22.941  23.346  1.00  0.00     0.111 C
BRANCH  22  23
HETATM   23  C3  UNL     1      -1.879  24.039  22.986  1.00  0.00     0.009 C
BRANCH  23  24
HETATM   24  C2  UNL     1      -1.819  24.176  21.460  1.00  0.00    -0.004 C
HETATM   25  C1  UNL     1      -1.287  25.541  21.088  1.00  0.00     0.005 C
ENDBRANCH  23  24
ENDBRANCH  22  23
ENDBRANCH  20  22
ENDBRANCH  19  20
ENDBRANCH   1  19
BRANCH  18  26
HETATM   26  O9  UNL     1       1.720  23.505  20.326  1.00  0.00    -0.306 OA
BRANCH  26  27
HETATM   27  C24 UNL     1       1.451  22.220  19.882  1.00  0.00     0.255 C
HETATM   28  C25 UNL     1       0.124  21.569  20.053  1.00  0.00     0.126 C
HETATM   29  O10 UNL     1       2.417  21.629  19.315  1.00  0.00    -0.266 OA
ENDBRANCH  26  27
ENDBRANCH  18  26
BRANCH   7  30
HETATM   30  O3  UNL     1       3.329  20.368  21.705  1.00  0.00    -0.359 OA
ATOM     31  H3  UNL     1       3.155  19.543  22.142  1.00  0.00     0.217 HD
ENDBRANCH   7  30
BRANCH  14  32
HETATM   32  O7  UNL     1       3.402  24.538  25.036  1.00  0.00    -0.390 OA
ATOM     33  H7  UNL     1       2.788  25.263  25.057  1.00  0.00     0.210 HD
ENDBRANCH  14  32
BRANCH  10  34
HETATM   34  O5  UNL     1       8.171  18.919  20.931  1.00  0.00    -0.298 OA
BRANCH  34  35
HETATM   35  C16 UNL     1       8.507  19.759  19.890  1.00  0.00     0.256 C
HETATM   36  C17 UNL     1       9.864  20.350  19.734  1.00  0.00     0.126 C
HETATM   37  O6  UNL     1       7.612  20.026  19.045  1.00  0.00    -0.266 OA
ENDBRANCH  34  35
ENDBRANCH  10  34
TORSDOF 11
ENDMDL