MODEL 4
REMARK VINA RESULT: -7.685267693      1.785      2.045
REMARK  3 active torsions:
REMARK  status: ('A' for Active; 'I' for Inactive)
REMARK    1  A    between atoms: C4_4  and  N1_5
REMARK    2  A    between atoms: N2_7  and  C5_9
REMARK    3  A    between atoms: C13_24  and  N6_25
ROOT
HETATM    1  N1  UNL     1      35.641 -16.094  34.016  1.00  0.00    -0.300 N
ATOM      2  H1  UNL     1      35.090 -15.649  34.751  1.00  0.00     0.187 HD
HETATM    3  N2  UNL     1      36.778 -16.545  34.342  1.00  0.00    -0.294 N
ATOM      4  H2  UNL     1      37.353 -16.997  33.631  1.00  0.00     0.187 HD
ENDROOT
BRANCH   1   5
HETATM    5  C4  UNL     1      35.068 -16.150  32.730  1.00  0.00     0.056 A
HETATM    6  C3  UNL     1      34.928 -17.376  32.077  1.00  0.00     0.040 A
HETATM    7  C2  UNL     1      34.369 -17.476  30.816  1.00  0.00    -0.025 A
HETATM    8  C1  UNL     1      34.227 -18.794  30.146  1.00  0.00     0.051 C
HETATM    9  C13 UNL     1      33.926 -16.333  30.161  1.00  0.00     0.133 A
HETATM   10  C12 UNL     1      34.066 -15.113  30.810  1.00  0.00     0.088 A
HETATM   11  C10 UNL     1      34.627 -15.023  32.071  1.00  0.00    -0.007 A
HETATM   12  N5  UNL     1      33.605 -13.956  30.129  1.00  0.00    -0.099 NA
HETATM   13  C11 UNL     1      34.739 -13.679  32.694  1.00  0.00     0.052 C
BRANCH   9  14
HETATM   14  N6  UNL     1      33.341 -16.371  28.865  1.00  0.00    -0.113 N
HETATM   15  O2  UNL     1      32.118 -16.628  28.798  1.00  0.00    -0.532 OA
HETATM   16  O3  UNL     1      34.006 -16.151  27.696  1.00  0.00    -0.532 OA
ENDBRANCH   9  14
ENDBRANCH   1   5
BRANCH   3  17
HETATM   17  C5  UNL     1      37.280 -16.439  35.681  1.00  0.00     0.138 A
HETATM   18  C6  UNL     1      37.667 -17.548  36.401  1.00  0.00     0.041 A
HETATM   19  C7  UNL     1      37.571 -18.886  35.791  1.00  0.00     0.071 C
HETATM   20  N3  UNL     1      38.137 -17.395  37.664  1.00  0.00    -0.335 N
HETATM   21  C8  UNL     1      38.239 -16.185  38.245  1.00  0.00     0.179 A
ATOM     22  H3  UNL     1      38.422 -18.222  38.189  1.00  0.00     0.168 HD
HETATM   23  S1  UNL     1      38.818 -16.106  39.772  1.00  0.00    -0.040 SA
HETATM   24  N4  UNL     1      37.862 -15.089  37.552  1.00  0.00    -0.298 N
HETATM   25  C9  UNL     1      37.393 -15.202  36.301  1.00  0.00     0.277 A
ATOM     26  H4  UNL     1      37.935 -14.167  37.984  1.00  0.00     0.171 HD
HETATM   27  O1  UNL     1      37.040 -14.177  35.656  1.00  0.00    -0.265 OA
ENDBRANCH   3  17
TORSDOF 3
ENDMDL