MODEL 1
REMARK VINA RESULT: -7.292824169      0.000      0.000
REMARK  6 active torsions:
REMARK  status: ('A' for Active; 'I' for Inactive)
REMARK    1  A    between atoms: N1_2  and  C2_4
REMARK    2  A    between atoms: C4_8  and  C5_9
REMARK    3  A    between atoms: C5_9  and  C6_13
REMARK       I    between atoms: N4_17  and  C8_18
REMARK    4  A    between atoms: C8_18  and  O2_20
REMARK    5  A    between atoms: O2_20  and  C9_21
REMARK    6  A    between atoms: C12_24  and  O3_25
ROOT
HETATM    1  C6  UNL     1      35.882 -15.617  34.235  1.00  0.00     0.088 A
HETATM    2  S1  UNL     1      35.349 -15.159  35.792  1.00  0.00    -0.053 SA
HETATM    3  C7  UNL     1      35.233 -13.486  35.549  1.00  0.00     0.156 A
HETATM    4  S2  UNL     1      34.761 -12.344  36.650  1.00  0.00    -0.051 SA
HETATM    5  N4  UNL     1      35.608 -13.339  34.279  1.00  0.00    -0.220 N
HETATM    6  C8  UNL     1      35.629 -11.995  33.714  1.00  0.00     0.375 C
HETATM    7  O1  UNL     1      35.313 -11.004  34.370  1.00  0.00    -0.237 OA
HETATM    8  C12 UNL     1      35.941 -14.395  33.595  1.00  0.00     0.172 A
ENDROOT
BRANCH   1   9
HETATM    9  C5  UNL     1      36.205 -16.914  33.671  1.00  0.00     0.083 C
HETATM   10  N3  UNL     1      37.162 -17.598  34.188  1.00  0.00    -0.396 N
ATOM     11  H32 UNL     1      37.389 -18.510  33.792  1.00  0.00     0.156 HD
ATOM     12  H31 UNL     1      37.672 -17.214  34.984  1.00  0.00     0.156 HD
BRANCH   9  13
HETATM   13  C4  UNL     1      35.486 -17.457  32.549  1.00  0.00     0.122 A
HETATM   14  C3  UNL     1      35.354 -18.752  32.183  1.00  0.00     0.131 A
HETATM   15  N2  UNL     1      34.579 -18.747  31.050  1.00  0.00    -0.329 N
HETATM   16  C2  UNL     1      34.261 -17.487  30.752  1.00  0.00     0.224 A
ATOM     17  H2  UNL     1      34.293 -19.572  30.523  1.00  0.00     0.168 HD
HETATM   18  O4  UNL     1      34.810 -16.736  31.656  1.00  0.00    -0.276 OA
BRANCH  16  19
HETATM   19  N1  UNL     1      33.533 -17.109  29.736  1.00  0.00    -0.360 N
HETATM   20  C1  UNL     1      33.252 -15.714  29.558  1.00  0.00     0.150 C
ATOM     21  H1  UNL     1      33.168 -17.798  29.078  1.00  0.00     0.162 HD
ENDBRANCH  16  19
ENDBRANCH   9  13
ENDBRANCH   1   9
BRANCH   8  22
HETATM   22  O3  UNL     1      36.357 -14.349  32.232  1.00  0.00    -0.344 OA
ATOM     23  H3  UNL     1      37.163 -13.898  32.012  1.00  0.00     0.219 HD
ENDBRANCH   8  22
BRANCH   6  24
HETATM   24  O2  UNL     1      36.007 -11.749  32.404  1.00  0.00    -0.299 OA
BRANCH  24  25
HETATM   25  C9  UNL     1      35.150 -11.168  31.460  1.00  0.00     0.125 C
HETATM   26  C10 UNL     1      33.821 -11.890  31.546  1.00  0.00     0.040 C
HETATM   27  C11 UNL     1      35.630 -11.200  30.061  1.00  0.00     0.040 C
ENDBRANCH  24  25
ENDBRANCH   6  24
TORSDOF 6
ENDMDL