MODEL 1
REMARK VINA RESULT: -7.262409123      0.000      0.000
REMARK  7 active torsions:
REMARK  status: ('A' for Active; 'I' for Inactive)
REMARK    1  A    between atoms: C3_3  and  O1_4
REMARK    2  A    between atoms: C4_6  and  N1_7
REMARK    3  A    between atoms: N2_9  and  C5_11
REMARK    4  A    between atoms: C8_15  and  O3_16
REMARK    5  A    between atoms: C13_23  and  C14_24
REMARK    6  A    between atoms: C14_24  and  O5_25
REMARK    7  A    between atoms: O5_25  and  C15_26
ROOT
HETATM    1  C1  UNL     1      37.477 -14.468  37.759  1.00  0.00     0.054 C
HETATM    2  C2  UNL     1      36.840 -14.542  36.409  1.00  0.00     0.009 A
HETATM    3  C3  UNL     1      37.207 -15.522  35.514  1.00  0.00     0.103 A
HETATM    4  C4  UNL     1      36.592 -15.558  34.273  1.00  0.00     0.095 A
HETATM    5  C6  UNL     1      35.636 -14.643  33.931  1.00  0.00     0.039 A
HETATM    6  C7  UNL     1      35.267 -13.645  34.844  1.00  0.00     0.116 A
HETATM    7  C8  UNL     1      35.864 -13.600  36.065  1.00  0.00     0.108 A
HETATM    8  O4  UNL     1      34.293 -12.785  34.354  1.00  0.00    -0.337 OA
HETATM    9  C9  UNL     1      34.329 -12.291  33.022  1.00  0.00     0.065 C
HETATM   10  C10 UNL     1      35.297 -11.127  33.017  1.00  0.00     0.046 C
HETATM   11  C11 UNL     1      32.962 -11.765  32.608  1.00  0.00     0.046 C
HETATM   12  C12 UNL     1      34.739 -13.302  31.990  1.00  0.00     0.079 C
HETATM   13  C13 UNL     1      34.931 -14.638  32.673  1.00  0.00    -0.017 C
ENDROOT
BRANCH   4  14
HETATM   14  N1  UNL     1      36.973 -16.503  33.259  1.00  0.00    -0.295 N
HETATM   15  N2  UNL     1      36.706 -17.722  33.308  1.00  0.00    -0.277 N
ATOM     16  H2  UNL     1      37.029 -18.294  32.528  1.00  0.00     0.189 HD
ATOM     17  H1  UNL     1      37.492 -16.158  32.451  1.00  0.00     0.187 HD
BRANCH  15  18
HETATM   18  C5  UNL     1      36.004 -18.386  34.329  1.00  0.00     0.368 C
HETATM   19  O2  UNL     1      36.586 -18.968  35.298  1.00  0.00    -0.282 OA
ENDBRANCH  15  18
ENDBRANCH   4  14
BRANCH   3  20
HETATM   20  O1  UNL     1      38.167 -16.462  35.830  1.00  0.00    -0.358 OA
ATOM     21  H1  UNL     1      38.941 -16.581  35.292  1.00  0.00     0.217 HD
ENDBRANCH   3  20
BRANCH  13  22
HETATM   22  C14 UNL     1      34.407 -15.729  32.201  1.00  0.00     0.155 C
BRANCH  22  23
HETATM   23  O5  UNL     1      34.866 -16.440  31.125  1.00  0.00    -0.276 OA
BRANCH  23  24
HETATM   24  C15 UNL     1      34.182 -17.550  30.611  1.00  0.00     0.377 C
HETATM   25  N3  UNL     1      34.660 -18.824  30.978  1.00  0.00    -0.032 NA
HETATM   26  O6  UNL     1      33.209 -17.337  29.873  1.00  0.00    -0.242 OA
ENDBRANCH  23  24
ENDBRANCH  22  23
ENDBRANCH  13  22
BRANCH   7  27
HETATM   27  O3  UNL     1      35.500 -12.618  36.962  1.00  0.00    -0.357 OA
ATOM     28  H3  UNL     1      34.694 -12.130  36.836  1.00  0.00     0.217 HD
ENDBRANCH   7  27
TORSDOF 7
ENDMDL