MODEL 2
REMARK VINA RESULT: -8.496492455      1.268      1.373
REMARK  4 active torsions:
REMARK  status: ('A' for Active; 'I' for Inactive)
REMARK    1  A    between atoms: C2_2  and  O1_3
REMARK    2  A    between atoms: O1_3  and  C3_4
REMARK       I    between atoms: C3_4  and  N1_6
REMARK    3  A    between atoms: C4_7  and  C5_8
REMARK    4  A    between atoms: C9_12  and  N2_13
ROOT
HETATM    1  C5  UNL     1      34.508 -15.561  32.853  1.00  0.00     0.015 A
HETATM    2  C6  UNL     1      34.939 -16.894  32.955  1.00  0.00     0.047 A
HETATM    3  C7  UNL     1      34.857 -17.780  31.904  1.00  0.00     0.058 A
HETATM    4  C8  UNL     1      34.338 -17.388  30.673  1.00  0.00     0.088 A
HETATM    5  C9  UNL     1      33.915 -16.110  30.543  1.00  0.00     0.132 A
HETATM    6  C10 UNL     1      34.010 -15.222  31.645  1.00  0.00     0.053 A
HETATM    7  N3  UNL     1      34.268 -18.377  29.660  1.00  0.00    -0.385 N
ATOM      8  H3  UNL     1      34.133 -18.055  28.701  1.00  0.00     0.159 HD
HETATM    9  C11 UNL     1      34.370 -19.799  29.870  1.00  0.00     0.139 C
HETATM   10  C12 UNL     1      35.175 -20.161  31.072  1.00  0.00     0.139 C
HETATM   11  N4  UNL     1      35.307 -19.125  32.032  1.00  0.00    -0.386 N
ATOM     12  H4  UNL     1      35.774 -19.369  32.905  1.00  0.00     0.159 HD
ENDROOT
BRANCH   1  13
HETATM   13  C4  UNL     1      34.565 -14.772  34.073  1.00  0.00     0.144 A
HETATM   14  N1  UNL     1      34.623 -13.470  34.280  1.00  0.00    -0.215 N
HETATM   15  C3  UNL     1      34.756 -12.381  33.388  1.00  0.00     0.375 C
HETATM   16  C13 UNL     1      34.701 -13.246  35.643  1.00  0.00     0.203 A
HETATM   17  O2  UNL     1      34.676 -11.215  33.840  1.00  0.00    -0.237 OA
HETATM   18  N6  UNL     1      34.692 -14.433  36.237  1.00  0.00    -0.274 N
HETATM   19  S1  UNL     1      34.788 -11.843  36.426  1.00  0.00    -0.038 SA
HETATM   20  N5  UNL     1      34.613 -15.350  35.328  1.00  0.00    -0.282 N
ATOM     21  H6  UNL     1      34.739 -14.595  37.243  1.00  0.00     0.189 HD
ATOM     22  H5  UNL     1      34.591 -16.354  35.510  1.00  0.00     0.188 HD
BRANCH  15  23
HETATM   23  O1  UNL     1      34.974 -12.516  32.064  1.00  0.00    -0.304 OA
BRANCH  23  24
HETATM   24  C2  UNL     1      34.429 -11.743  31.024  1.00  0.00     0.176 C
HETATM   25  C1  UNL     1      35.482 -11.454  30.011  1.00  0.00     0.034 C
ENDBRANCH  23  24
ENDBRANCH  15  23
ENDBRANCH   1  13
BRANCH   5  26
HETATM   26  N2  UNL     1      33.359 -15.624  29.343  1.00  0.00    -0.113 N
HETATM   27  O3  UNL     1      33.466 -14.381  29.067  1.00  0.00    -0.532 OA
HETATM   28  O4  UNL     1      32.706 -16.364  28.437  1.00  0.00    -0.532 OA
ENDBRANCH   5  26
TORSDOF 4
ENDMDL