MODEL 5
REMARK VINA RESULT: -7.734146472      1.630      4.276
REMARK  8 active torsions:
REMARK  status: ('A' for Active; 'I' for Inactive)
REMARK    1  A    between atoms: O1_2  and  C2_3
REMARK    2  A    between atoms: C2_3  and  C3_5
REMARK    3  A    between atoms: C6_8  and  O3_9
REMARK    4  A    between atoms: C8_12  and  O4_13
REMARK    5  A    between atoms: C9_16  and  O6_17
REMARK    6  A    between atoms: O6_17  and  C10_18
REMARK    7  A    between atoms: C10_18  and  C11_20
REMARK    8  A    between atoms: C16_25  and  O8_26
ROOT
HETATM    1  C3  UNL     1      34.537 -17.235  31.432  1.00  0.00     0.082 A
HETATM    2  C4  UNL     1      35.156 -18.281  32.061  1.00  0.00    -0.009 A
HETATM    3  C5  UNL     1      35.169 -19.654  31.505  1.00  0.00     0.052 C
HETATM    4  C6  UNL     1      35.791 -17.990  33.276  1.00  0.00     0.088 A
HETATM    5  C7  UNL     1      35.811 -16.741  33.836  1.00  0.00     0.074 A
HETATM    6  C8  UNL     1      36.332 -16.171  34.971  1.00  0.00     0.200 A
HETATM    7  O5  UNL     1      36.040 -14.902  35.004  1.00  0.00    -0.262 OA
HETATM    8  C9  UNL     1      35.333 -14.556  33.934  1.00  0.00     0.209 A
HETATM    9  C15 UNL     1      35.165 -15.686  33.169  1.00  0.00     0.075 A
HETATM   10  C16 UNL     1      34.535 -15.940  31.973  1.00  0.00     0.098 A
ENDROOT
BRANCH   8  11
HETATM   11  O6  UNL     1      34.853 -13.278  33.645  1.00  0.00    -0.253 OA
BRANCH  11  12
HETATM   12  C10 UNL     1      35.555 -12.446  32.745  1.00  0.00     0.273 C
HETATM   13  O7  UNL     1      36.788 -12.677  32.666  1.00  0.00    -0.264 OA
BRANCH  12  14
HETATM   14  C11 UNL     1      34.887 -11.394  31.967  1.00  0.00     0.037 C
HETATM   15  C12 UNL     1      35.338 -10.000  32.424  1.00  0.00     0.025 C
HETATM   16  C13 UNL     1      33.406 -11.465  32.226  1.00  0.00     0.025 C
HETATM   17  C14 UNL     1      35.146 -11.487  30.485  1.00  0.00     0.025 C
ENDBRANCH  12  14
ENDBRANCH  11  12
ENDBRANCH   8  11
BRANCH   6  18
HETATM   18  O4  UNL     1      37.060 -16.814  35.953  1.00  0.00    -0.340 OA
ATOM     19  H4  UNL     1      37.183 -16.521  36.849  1.00  0.00     0.220 HD
ENDBRANCH   6  18
BRANCH  10  20
HETATM   20  O8  UNL     1      33.901 -14.929  31.302  1.00  0.00    -0.359 OA
ATOM     21  H8  UNL     1      33.687 -14.124  31.760  1.00  0.00     0.217 HD
ENDBRANCH  10  20
BRANCH   4  22
HETATM   22  O3  UNL     1      36.423 -19.034  33.927  1.00  0.00    -0.359 OA
ATOM     23  H3  UNL     1      36.065 -19.906  33.804  1.00  0.00     0.217 HD
ENDBRANCH   4  22
BRANCH   1  24
HETATM   24  C2  UNL     1      33.843 -17.445  30.146  1.00  0.00     0.296 C
HETATM   25  O2  UNL     1      32.922 -18.288  30.014  1.00  0.00    -0.259 OA
BRANCH  24  26
HETATM   26  O1  UNL     1      34.191 -16.703  29.026  1.00  0.00    -0.322 OA
HETATM   27  C1  UNL     1      33.179 -16.076  28.245  1.00  0.00     0.213 C
ENDBRANCH  24  26
ENDBRANCH   1  24
TORSDOF 8
ENDMDL