MODEL 2
REMARK VINA RESULT: -7.608382342      2.855      3.986
REMARK  7 active torsions:
REMARK  status: ('A' for Active; 'I' for Inactive)
REMARK    1  A    between atoms: N1_5  and  O1_7
REMARK    2  A    between atoms: C6_10  and  N2_11
REMARK    3  A    between atoms: C6_10  and  C8_18
REMARK    4  A    between atoms: N3_13  and  C7_15
REMARK    5  A    between atoms: C10_20  and  C11_21
REMARK    6  A    between atoms: C11_21  and  O2_22
REMARK    7  A    between atoms: C12_24  and  N5_25
ROOT
HETATM    1  C1  UNL     1      36.974 -15.097  32.380  1.00  0.00     0.013 C
HETATM    2  C2  UNL     1      35.988 -14.105  32.964  1.00  0.00     0.023 C
HETATM    3  C3  UNL     1      36.202 -12.737  32.377  1.00  0.00     0.061 C
HETATM    4  C4  UNL     1      34.906 -12.081  32.409  1.00  0.00     0.013 C
HETATM    5  N1  UNL     1      34.636 -10.826  32.295  1.00  0.00    -0.277 N
ATOM      6  H1  UNL     1      33.676 -10.485  32.333  1.00  0.00     0.193 HD
HETATM    7  C5  UNL     1      33.846 -13.093  32.585  1.00  0.00     0.094 C
HETATM    8  C6  UNL     1      34.566 -14.413  32.731  1.00  0.00     0.103 C
ENDROOT
BRANCH   8   9
HETATM    9  N2  UNL     1      34.024 -14.981  33.986  1.00  0.00    -0.317 N
HETATM   10  N3  UNL     1      34.691 -15.736  34.727  1.00  0.00    -0.282 N
ATOM     11  H3  UNL     1      35.645 -15.964  34.450  1.00  0.00     0.188 HD
ATOM     12  H2  UNL     1      33.068 -14.748  34.257  1.00  0.00     0.181 HD
BRANCH  10  13
HETATM   13  C7  UNL     1      34.195 -16.283  35.918  1.00  0.00     0.199 C
HETATM   14  N4  UNL     1      33.458 -15.581  36.901  1.00  0.00    -0.068 NA
HETATM   15  S1  UNL     1      34.486 -17.864  36.209  1.00  0.00    -0.043 SA
ENDBRANCH  10  13
ENDBRANCH   8   9
BRANCH   8  16
HETATM   16  C8  UNL     1      34.233 -15.363  31.678  1.00  0.00     0.086 A
HETATM   17  C9  UNL     1      33.687 -15.007  30.443  1.00  0.00     0.049 A
HETATM   18  C10 UNL     1      33.519 -16.178  29.737  1.00  0.00     0.025 A
HETATM   19  C12 UNL     1      33.959 -17.204  30.548  1.00  0.00     0.223 A
HETATM   20  O5  UNL     1      34.358 -16.651  31.658  1.00  0.00    -0.290 OA
BRANCH  18  21
HETATM   21  C11 UNL     1      32.973 -16.283  28.342  1.00  0.00     0.207 C
BRANCH  21  22
HETATM   22  O2  UNL     1      33.479 -15.199  27.595  1.00  0.00    -0.396 OA
ATOM     23  H2  UNL     1      33.647 -15.506  26.712  1.00  0.00     0.209 HD
ENDBRANCH  21  22
ENDBRANCH  18  21
BRANCH  19  24
HETATM   24  N5  UNL     1      33.937 -18.567  30.154  1.00  0.00    -0.090 N
HETATM   25  O3  UNL     1      34.994 -19.184  29.975  1.00  0.00    -0.530 OA
HETATM   26  O4  UNL     1      32.755 -19.238  29.968  1.00  0.00    -0.530 OA
ENDBRANCH  19  24
ENDBRANCH   8  16
BRANCH   5  27
HETATM   27  O1  UNL     1      35.701  -9.960  32.116  1.00  0.00    -0.290 OA
ATOM     28  H1  UNL     1      35.603  -9.074  32.444  1.00  0.00     0.244 HD
ENDBRANCH   5  27
TORSDOF 7
ENDMDL