MODEL 2
REMARK VINA RESULT: -7.346194222      2.454      6.792
REMARK  6 active torsions:
REMARK  status: ('A' for Active; 'I' for Inactive)
REMARK    1  A    between atoms: O1_1  and  C1_3
REMARK    2  A    between atoms: C2_4  and  N1_5
REMARK    3  A    between atoms: C9_15  and  O3_16
REMARK    4  A    between atoms: N2_18  and  C10_19
REMARK    5  A    between atoms: C10_19  and  C11_20
REMARK    6  A    between atoms: C15_25  and  O5_26
ROOT
HETATM    1  C1  UNL     1      34.639 -13.780  36.136  1.00  0.00     0.148 A
HETATM    2  C2  UNL     1      34.560 -14.778  35.188  1.00  0.00     0.124 A
HETATM    3  C9  UNL     1      34.957 -14.200  34.002  1.00  0.00     0.174 A
HETATM    4  N2  UNL     1      35.276 -12.896  34.186  1.00  0.00    -0.302 N
HETATM    5  C15 UNL     1      35.084 -12.630  35.488  1.00  0.00     0.181 A
ENDROOT
BRANCH   2   6
HETATM    6  N1  UNL     1      34.145 -16.146  35.393  1.00  0.00    -0.325 N
HETATM    7  C3  UNL     1      35.046 -17.064  35.407  1.00  0.00     0.187 C
HETATM    8  O2  UNL     1      36.423 -17.120  35.268  1.00  0.00    -0.307 OA
HETATM    9  S1  UNL     1      35.039 -18.835  35.617  1.00  0.00    -0.048 SA
HETATM   10  C4  UNL     1      36.620 -18.170  36.163  1.00  0.00     0.125 C
HETATM   11  C5  UNL     1      36.698 -17.799  37.623  1.00  0.00     0.051 C
HETATM   12  C8  UNL     1      37.811 -19.044  35.958  1.00  0.00     0.051 C
HETATM   13  C6  UNL     1      37.025 -19.156  38.252  1.00  0.00     0.004 C
HETATM   14  C7  UNL     1      38.022 -19.724  37.299  1.00  0.00     0.004 C
ATOM     15  H1  UNL     1      33.160 -16.379  35.524  1.00  0.00     0.169 HD
ENDBRANCH   2   6
BRANCH   1  16
HETATM   16  O1  UNL     1      34.330 -13.905  37.490  1.00  0.00    -0.355 OA
ATOM     17  H1  UNL     1      34.688 -13.381  38.197  1.00  0.00     0.218 HD
ENDBRANCH   1  16
BRANCH   3  18
HETATM   18  O3  UNL     1      35.038 -14.822  32.772  1.00  0.00    -0.344 OA
ATOM     19  H3  UNL     1      35.430 -14.467  31.984  1.00  0.00     0.219 HD
ENDBRANCH   3  18
BRANCH   5  20
HETATM   20  O5  UNL     1      35.265 -11.436  36.189  1.00  0.00    -0.344 OA
ATOM     21  H5  UNL     1      34.725 -11.224  36.940  1.00  0.00     0.219 HD
ENDBRANCH   5  20
BRANCH   4  22
HETATM   22  C10 UNL     1      35.717 -11.949  33.198  1.00  0.00     0.165 C
BRANCH  22  23
HETATM   23  C11 UNL     1      34.671 -11.132  32.544  1.00  0.00     0.140 C
HETATM   24  C12 UNL     1      33.374 -11.771  32.230  1.00  0.00     0.035 C
HETATM   25  C13 UNL     1      33.521 -12.278  30.823  1.00  0.00     0.029 C
HETATM   26  C14 UNL     1      34.902 -11.841  30.433  1.00  0.00     0.168 C
HETATM   27  O4  UNL     1      35.184 -10.794  31.265  1.00  0.00    -0.384 OA
ENDBRANCH  22  23
ENDBRANCH   4  22
TORSDOF 6
ENDMDL