MODEL 4
REMARK VINA RESULT: -7.871448161      1.546      5.654
REMARK  7 active torsions:
REMARK  status: ('A' for Active; 'I' for Inactive)
REMARK    1  A    between atoms: C2_2  and  C5_5
REMARK    2  A    between atoms: C5_5  and  C6_7
REMARK    3  A    between atoms: C6_7  and  C7_8
REMARK    4  A    between atoms: C8_10  and  O3_11
REMARK    5  A    between atoms: C10_14  and  O4_15
REMARK    6  A    between atoms: C13_19  and  O5_20
REMARK    7  A    between atoms: C15_23  and  C16_24
ROOT
HETATM    1  C7  UNL     1      35.403 -18.187  32.355  1.00  0.00     0.077 A
HETATM    2  O2  UNL     1      35.064 -19.258  31.670  1.00  0.00    -0.290 OA
HETATM    3  C8  UNL     1      34.399 -18.966  30.594  1.00  0.00     0.197 A
HETATM    4  C9  UNL     1      34.263 -17.595  30.518  1.00  0.00     0.074 A
HETATM    5  C10 UNL     1      33.674 -16.723  29.626  1.00  0.00     0.116 A
HETATM    6  C11 UNL     1      33.742 -15.369  29.885  1.00  0.00     0.117 A
HETATM    7  C12 UNL     1      34.389 -14.884  31.015  1.00  0.00     0.048 A
HETATM    8  C13 UNL     1      34.966 -15.747  31.888  1.00  0.00     0.091 A
HETATM    9  C14 UNL     1      34.910 -17.109  31.652  1.00  0.00     0.046 A
HETATM   10  C15 UNL     1      34.405 -13.434  31.191  1.00  0.00     0.224 C
HETATM   11  O7  UNL     1      34.569 -12.739  29.999  1.00  0.00    -0.350 OA
HETATM   12  C17 UNL     1      33.858 -13.171  28.932  1.00  0.00     0.346 C
HETATM   13  O8  UNL     1      33.188 -14.402  29.063  1.00  0.00    -0.323 OA
ENDROOT
BRANCH   1  14
HETATM   14  C6  UNL     1      36.160 -18.216  33.619  1.00  0.00     0.145 C
BRANCH  14  15
HETATM   15  C5  UNL     1      35.201 -18.589  34.723  1.00  0.00     0.140 C
HETATM   16  O1  UNL     1      34.669 -19.681  34.711  1.00  0.00    -0.297 OA
BRANCH  15  17
HETATM   17  C2  UNL     1      34.884 -17.664  35.827  1.00  0.00     0.010 C
HETATM   18  C1  UNL     1      33.685 -16.794  35.557  1.00  0.00     0.022 C
HETATM   19  C3  UNL     1      34.555 -18.432  37.115  1.00  0.00     0.022 C
HETATM   20  C4  UNL     1      36.088 -16.813  36.121  1.00  0.00     0.022 C
ENDBRANCH  15  17
ENDBRANCH  14  15
ENDBRANCH   1  14
BRANCH   3  21
HETATM   21  O3  UNL     1      33.873 -19.816  29.623  1.00  0.00    -0.340 OA
ATOM     22  H3  UNL     1      33.433 -20.651  29.729  1.00  0.00     0.220 HD
ENDBRANCH   3  21
BRANCH   8  23
HETATM   23  O5  UNL     1      35.614 -15.327  33.012  1.00  0.00    -0.359 OA
ATOM     24  H5  UNL     1      35.154 -14.966  33.761  1.00  0.00     0.217 HD
ENDBRANCH   8  23
BRANCH   5  25
HETATM   25  O4  UNL     1      33.024 -17.177  28.495  1.00  0.00    -0.357 OA
ATOM     26  H4  UNL     1      32.479 -16.602  27.971  1.00  0.00     0.217 HD
ENDBRANCH   5  25
BRANCH  10  27
HETATM   27  C16 UNL     1      33.077 -13.031  31.735  1.00  0.00     0.268 C
HETATM   28  O6  UNL     1      32.850 -11.929  32.202  1.00  0.00    -0.304 OA
ENDBRANCH  10  27
TORSDOF 7
ENDMDL