MODEL 1
REMARK VINA RESULT: -7.485360736      0.000      0.000
REMARK  3 active torsions:
REMARK  status: ('A' for Active; 'I' for Inactive)
REMARK    1  A    between atoms: C2_2  and  C3_4
REMARK    2  A    between atoms: C4_6  and  C5_7
REMARK    3  A    between atoms: C12_20  and  N3_21
ROOT
HETATM    1  C5  UNL     1      34.511 -14.437  31.436  1.00  0.00     0.061 A
HETATM    2  N1  UNL     1      34.860 -13.172  31.226  1.00  0.00    -0.335 N
ATOM      3  H1  UNL     1      35.288 -12.701  32.023  1.00  0.00     0.168 HD
HETATM    4  C6  UNL     1      34.735 -12.434  30.133  1.00  0.00     0.143 A
HETATM    5  N2  UNL     1      35.117 -11.202  30.054  1.00  0.00    -0.380 N
ATOM      6  H21 UNL     1      35.020 -10.635  29.213  1.00  0.00     0.158 HD
ATOM      7  H22 UNL     1      35.547 -10.712  30.839  1.00  0.00     0.158 HD
HETATM    8  S2  UNL     1      34.015 -13.254  28.820  1.00  0.00    -0.058 SA
HETATM    9  C7  UNL     1      33.609 -14.874  29.210  1.00  0.00    -0.005 A
HETATM   10  C8  UNL     1      33.915 -15.262  30.487  1.00  0.00    -0.017 A
HETATM   11  C9  UNL     1      33.527 -16.674  30.644  1.00  0.00     0.042 C
HETATM   12  C10 UNL     1      33.141 -17.159  29.291  1.00  0.00     0.010 C
HETATM   13  C11 UNL     1      32.970 -15.965  28.441  1.00  0.00     0.047 C
ENDROOT
BRANCH   1  14
HETATM   14  C4  UNL     1      34.765 -14.972  32.807  1.00  0.00     0.068 A
HETATM   15  S1  UNL     1      33.675 -15.687  33.902  1.00  0.00    -0.080 SA
HETATM   16  C3  UNL     1      34.739 -16.019  35.183  1.00  0.00     0.077 A
HETATM   17  C13 UNL     1      35.935 -15.560  34.723  1.00  0.00     0.101 A
HETATM   18  C12 UNL     1      35.948 -15.010  33.480  1.00  0.00     0.147 A
HETATM   19  N4  UNL     1      37.111 -15.686  35.587  1.00  0.00    -0.098 NA
BRANCH  16  20
HETATM   20  C2  UNL     1      34.393 -16.650  36.460  1.00  0.00     0.164 C
HETATM   21  C1  UNL     1      34.665 -18.073  36.733  1.00  0.00     0.097 C
HETATM   22  O1  UNL     1      33.849 -15.932  37.331  1.00  0.00    -0.292 OA
ENDBRANCH  16  20
BRANCH  18  23
HETATM   23  N3  UNL     1      37.199 -14.500  32.927  1.00  0.00    -0.112 N
HETATM   24  O2  UNL     1      38.035 -15.255  32.401  1.00  0.00    -0.532 OA
HETATM   25  O3  UNL     1      37.426 -13.148  32.975  1.00  0.00    -0.532 OA
ENDBRANCH  18  23
ENDBRANCH   1  14
TORSDOF 3
ENDMDL