MODEL 1
REMARK VINA RESULT: -7.530238835      0.000      0.000
REMARK  6 active torsions:
REMARK  status: ('A' for Active; 'I' for Inactive)
REMARK    1  A    between atoms: C7_9  and  O3_10
REMARK    2  A    between atoms: N1_12  and  C8_13
REMARK    3  A    between atoms: C11_17  and  O5_18
REMARK    4  A    between atoms: C12_20  and  S1_21
REMARK    5  A    between atoms: S1_21  and  C13_22
REMARK    6  A    between atoms: C15_24  and  O6_25
ROOT
HETATM    1  C1  UNL     1      34.042 -11.872  36.693  1.00  0.00     0.028 C
HETATM    2  C2  UNL     1      34.869 -12.758  36.231  1.00  0.00     0.020 C
HETATM    3  C3  UNL     1      35.708 -13.539  37.172  1.00  0.00     0.183 C
HETATM    4  O1  UNL     1      36.019 -13.066  38.291  1.00  0.00    -0.290 OA
HETATM    5  C4  UNL     1      36.133 -14.894  36.680  1.00  0.00     0.259 C
HETATM    6  O2  UNL     1      36.705 -14.727  35.375  1.00  0.00    -0.338 OA
HETATM    7  C5  UNL     1      35.937 -14.036  34.428  1.00  0.00     0.136 A
HETATM    8  C6  UNL     1      35.035 -13.068  34.823  1.00  0.00     0.066 A
HETATM    9  C7  UNL     1      34.395 -12.541  33.702  1.00  0.00     0.163 A
HETATM   10  N1  UNL     1      34.888 -13.167  32.643  1.00  0.00    -0.265 N
HETATM   11  C15 UNL     1      35.829 -14.078  33.063  1.00  0.00     0.184 A
ENDROOT
BRANCH  10  12
HETATM   12  C8  UNL     1      34.582 -13.095  31.247  1.00  0.00     0.095 A
HETATM   13  C9  UNL     1      34.986 -12.040  30.397  1.00  0.00     0.081 A
HETATM   14  C10 UNL     1      35.822 -10.914  30.901  1.00  0.00     0.079 C
HETATM   15  O4  UNL     1      34.506 -12.259  29.191  1.00  0.00    -0.289 OA
HETATM   16  C11 UNL     1      33.822 -13.354  29.154  1.00  0.00     0.203 A
HETATM   17  C12 UNL     1      33.851 -13.904  30.427  1.00  0.00     0.088 A
BRANCH  16  18
HETATM   18  O5  UNL     1      33.142 -13.932  28.057  1.00  0.00    -0.340 OA
ATOM     19  H5  UNL     1      32.923 -14.845  27.910  1.00  0.00     0.220 HD
ENDBRANCH  16  18
BRANCH  17  20
HETATM   20  S1  UNL     1      33.106 -15.473  30.876  1.00  0.00    -0.123 SA
BRANCH  20  21
HETATM   21  C13 UNL     1      34.226 -16.833  30.377  1.00  0.00     0.075 C
HETATM   22  C14 UNL     1      33.442 -18.024  29.881  1.00  0.00     0.016 C
ENDBRANCH  20  21
ENDBRANCH  17  20
ENDBRANCH  10  12
BRANCH   9  23
HETATM   23  O3  UNL     1      33.421 -11.557  33.642  1.00  0.00    -0.345 OA
ATOM     24  H3  UNL     1      32.954 -11.229  32.882  1.00  0.00     0.219 HD
ENDBRANCH   9  23
BRANCH  11  25
HETATM   25  O6  UNL     1      36.584 -14.929  32.270  1.00  0.00    -0.344 OA
ATOM     26  H6  UNL     1      36.244 -15.345  31.487  1.00  0.00     0.219 HD
ENDBRANCH  11  25
TORSDOF 6
ENDMDL