MODEL 2
REMARK VINA RESULT: -9.037007285      2.221      6.558
REMARK  6 active torsions:
REMARK  status: ('A' for Active; 'I' for Inactive)
REMARK    1  A    between atoms: O1_2  and  C2_3
REMARK    2  A    between atoms: C11_13  and  O3_14
REMARK    3  A    between atoms: C12_16  and  C13_17
REMARK    4  A    between atoms: C13_17  and  O4_18
REMARK    5  A    between atoms: C13_17  and  C14_20
REMARK    6  A    between atoms: C14_20  and  N1_22
ROOT
HETATM    1  C2  UNL     1       0.449  21.965 -21.695  1.00  0.00     0.280 C
HETATM    2  C3  UNL     1       1.180  22.339 -22.978  1.00  0.00     0.115 C
HETATM    3  O2  UNL     1      -0.616  21.130 -22.107  1.00  0.00    -0.323 OA
HETATM    4  C4  UNL     1      -1.560  22.092 -22.472  1.00  0.00     0.183 C
HETATM    5  C5  UNL     1      -2.937  21.559 -22.608  1.00  0.00     0.049 C
HETATM    6  C6  UNL     1      -3.944  22.244 -21.704  1.00  0.00     0.057 C
HETATM    7  C7  UNL     1      -5.270  22.019 -22.241  1.00  0.00    -0.026 A
HETATM    8  C8  UNL     1      -5.765  22.896 -23.194  1.00  0.00    -0.014 A
HETATM    9  C9  UNL     1      -7.009  22.684 -23.820  1.00  0.00     0.114 A
HETATM   10  C10 UNL     1      -7.710  21.579 -23.448  1.00  0.00     0.139 A
HETATM   11  C11 UNL     1      -7.206  20.707 -22.490  1.00  0.00     0.115 A
HETATM   12  C12 UNL     1      -5.995  20.894 -21.864  1.00  0.00     0.038 A
HETATM   13  O5  UNL     1      -8.901  21.586 -24.205  1.00  0.00    -0.320 OA
HETATM   14  C19 UNL     1      -9.079  22.918 -24.713  1.00  0.00     0.352 C
HETATM   15  O6  UNL     1      -7.747  23.367 -24.784  1.00  0.00    -0.322 OA
HETATM   16  C20 UNL     1      -5.132  24.152 -23.641  1.00  0.00     0.045 C
HETATM   17  C21 UNL     1      -3.692  24.210 -23.274  1.00  0.00     0.043 C
HETATM   18  C22 UNL     1      -3.562  23.748 -21.876  1.00  0.00     0.068 C
HETATM   19  C23 UNL     1      -4.534  24.502 -21.000  1.00  0.00     0.047 C
HETATM   20  O7  UNL     1      -2.305  23.980 -21.339  1.00  0.00    -0.347 OA
HETATM   21  C24 UNL     1      -1.525  22.890 -21.160  1.00  0.00     0.295 C
HETATM   22  O8  UNL     1      -0.154  23.105 -21.116  1.00  0.00    -0.299 OA
ENDROOT
BRANCH  12  23
HETATM   23  C13 UNL     1      -5.579  20.060 -20.797  1.00  0.00     0.079 C
BRANCH  23  24
HETATM   24  O4  UNL     1      -5.473  18.710 -20.898  1.00  0.00    -0.362 OA
ATOM     25  H4  UNL     1      -5.909  18.105 -20.310  1.00  0.00     0.217 HD
ENDBRANCH  23  24
BRANCH  23  26
HETATM   26  C14 UNL     1      -6.097  20.216 -19.390  1.00  0.00     0.135 C
HETATM   27  C15 UNL     1      -5.803  21.617 -18.863  1.00  0.00     0.039 C
BRANCH  26  28
HETATM   28  N1  UNL     1      -7.525  20.143 -19.498  1.00  0.00    -0.387 N
HETATM   29  C16 UNL     1      -8.359  19.268 -19.336  1.00  0.00    -0.025 C
HETATM   30  C17 UNL     1      -8.134  17.835 -18.929  1.00  0.00     0.062 C
HETATM   31  C18 UNL     1      -9.810  19.649 -19.584  1.00  0.00     0.062 C
ATOM     32  H1  UNL     1      -7.940  21.032 -19.777  1.00  0.00     0.159 HD
ENDBRANCH  26  28
ENDBRANCH  23  26
ENDBRANCH  12  23
BRANCH  11  33
HETATM   33  O3  UNL     1      -8.043  19.654 -22.241  1.00  0.00    -0.357 OA
ATOM     34  H3  UNL     1      -8.926  19.929 -22.026  1.00  0.00     0.217 HD
ENDBRANCH  11  33
BRANCH   1  35
HETATM   35  O1  UNL     1       1.242  21.340 -20.765  1.00  0.00    -0.338 OA
HETATM   36  C1  UNL     1       2.314  20.744 -21.375  1.00  0.00     0.208 C
ENDBRANCH   1  35
TORSDOF 6
ENDMDL