MODEL 5
REMARK VINA RESULT: -8.399990420      2.448      5.189
REMARK  6 active torsions:
REMARK  status: ('A' for Active; 'I' for Inactive)
REMARK    1  A    between atoms: C2_2  and  C3_3
REMARK    2  A    between atoms: C3_3  and  C4_4
REMARK    3  A    between atoms: C4_4  and  O1_5
REMARK    4  A    between atoms: O1_5  and  C5_6
REMARK    5  A    between atoms: C11_17  and  O4_18
REMARK    6  A    between atoms: C19_27  and  O5_28
ROOT
HETATM    1  C5  UNL     1      -5.199  24.005 -23.627  1.00  0.00     0.160 A
HETATM    2  N1  UNL     1      -3.906  24.366 -23.412  1.00  0.00    -0.316 N
ATOM      3  H1  UNL     1      -3.539  25.223 -23.825  1.00  0.00     0.170 HD
HETATM    4  C6  UNL     1      -3.124  23.601 -22.667  1.00  0.00     0.157 A
HETATM    5  C7  UNL     1      -3.650  22.438 -22.117  1.00  0.00     0.050 A
HETATM    6  C8  UNL     1      -4.952  22.034 -22.307  1.00  0.00     0.111 A
HETATM    7  O2  UNL     1      -5.327  20.922 -21.738  1.00  0.00    -0.272 OA
HETATM    8  C9  UNL     1      -6.564  20.556 -21.931  1.00  0.00     0.315 A
HETATM    9  O3  UNL     1      -6.941  19.468 -21.378  1.00  0.00    -0.258 OA
HETATM   10  C10 UNL     1      -7.464  21.263 -22.680  1.00  0.00     0.155 A
HETATM   11  N2  UNL     1      -8.809  20.843 -22.875  1.00  0.00    -0.093 NA
HETATM   12  C11 UNL     1      -7.060  22.472 -23.300  1.00  0.00     0.113 A
HETATM   13  C12 UNL     1      -5.750  22.844 -23.087  1.00  0.00     0.085 A
HETATM   14  C13 UNL     1      -3.020  21.411 -21.246  1.00  0.00     0.015 C
HETATM   15  C14 UNL     1      -2.012  21.534 -20.388  1.00  0.00    -0.015 C
HETATM   16  C15 UNL     1      -1.169  22.687 -19.987  1.00  0.00    -0.008 C
HETATM   17  C16 UNL     1      -2.070  23.846 -19.506  1.00  0.00     0.021 C
HETATM   18  C17 UNL     1      -0.445  22.249 -18.730  1.00  0.00     0.024 C
HETATM   19  C18 UNL     1      -1.457  21.631 -17.807  1.00  0.00     0.014 C
HETATM   20  C19 UNL     1       0.687  21.336 -18.968  1.00  0.00     0.132 C
HETATM   21  C21 UNL     1       1.763  21.939 -19.841  1.00  0.00     0.111 C
HETATM   22  C22 UNL     1       1.116  22.580 -20.999  1.00  0.00     0.137 C
HETATM   23  O6  UNL     1       1.784  22.535 -22.044  1.00  0.00    -0.297 OA
HETATM   24  C23 UNL     1      -0.225  23.236 -20.955  1.00  0.00     0.097 C
HETATM   25  C24 UNL     1      -0.605  23.504 -22.352  1.00  0.00     0.139 C
HETATM   26  C25 UNL     1      -0.431  22.290 -23.237  1.00  0.00     0.041 C
HETATM   27  O7  UNL     1      -1.847  24.151 -22.580  1.00  0.00    -0.329 OA
ENDROOT
BRANCH   1  28
HETATM   28  O1  UNL     1      -5.950  24.833 -24.399  1.00  0.00    -0.335 OA
BRANCH  28  29
HETATM   29  C4  UNL     1      -5.586  25.648 -25.458  1.00  0.00     0.177 C
BRANCH  29  30
HETATM   30  C3  UNL     1      -5.905  25.090 -26.822  1.00  0.00     0.026 C
BRANCH  30  31
HETATM   31  C2  UNL     1      -4.707  25.309 -27.736  1.00  0.00    -0.002 C
HETATM   32  C1  UNL     1      -4.835  24.546 -29.021  1.00  0.00     0.005 C
ENDBRANCH  30  31
ENDBRANCH  29  30
ENDBRANCH  28  29
ENDBRANCH   1  28
BRANCH  12  33
HETATM   33  O4  UNL     1      -7.947  23.170 -24.040  1.00  0.00    -0.358 OA
ATOM     34  H4  UNL     1      -8.313  23.976 -23.696  1.00  0.00     0.217 HD
ENDBRANCH  12  33
BRANCH  20  35
HETATM   35  O5  UNL     1       1.252  20.941 -17.780  1.00  0.00    -0.390 OA
HETATM   36  C20 UNL     1       1.687  19.643 -17.734  1.00  0.00     0.202 C
ENDBRANCH  20  35
TORSDOF 6
ENDMDL