MODEL 5
REMARK VINA RESULT: -7.727516925      3.075      3.663
REMARK  5 active torsions:
REMARK  status: ('A' for Active; 'I' for Inactive)
REMARK    1  A    between atoms: C2_2  and  C7_10
REMARK    2  A    between atoms: N1_3  and  C3_5
REMARK    3  A    between atoms: C3_5  and  C4_6
REMARK    4  A    between atoms: C4_6  and  N2_7
REMARK    5  A    between atoms: C13_22  and  N4_23
ROOT
HETATM    1  C7  UNL     1       0.320  23.330 -19.765  1.00  0.00     0.054 A
HETATM    2  S1  UNL     1      -0.556  22.629 -18.482  1.00  0.00    -0.068 SA
HETATM    3  C8  UNL     1      -2.112  22.638 -19.166  1.00  0.00     0.093 A
HETATM    4  N3  UNL     1      -3.233  22.180 -18.556  1.00  0.00    -0.316 N
ATOM      5  H3  UNL     1      -3.124  21.898 -17.582  1.00  0.00     0.169 HD
HETATM    6  C9  UNL     1      -4.464  22.048 -19.067  1.00  0.00     0.260 C
HETATM    7  O1  UNL     1      -5.355  21.863 -18.217  1.00  0.00    -0.267 OA
HETATM    8  C10 UNL     1      -4.910  22.085 -20.417  1.00  0.00     0.082 A
HETATM    9  C11 UNL     1      -4.192  22.711 -21.379  1.00  0.00     0.075 A
HETATM   10  S2  UNL     1      -5.074  22.522 -22.819  1.00  0.00    -0.075 SA
HETATM   11  C12 UNL     1      -6.381  21.625 -22.165  1.00  0.00     0.077 A
HETATM   12  S3  UNL     1      -7.895  20.794 -22.360  1.00  0.00    -0.044 SA
HETATM   13  C13 UNL     1      -8.080  20.328 -20.734  1.00  0.00     0.147 A
HETATM   14  N5  UNL     1      -7.047  20.796 -20.153  1.00  0.00    -0.334 N
ATOM     15  H5  UNL     1      -6.925  20.645 -19.152  1.00  0.00     0.168 HD
HETATM   16  C16 UNL     1      -6.110  21.488 -20.839  1.00  0.00     0.075 A
HETATM   17  C17 UNL     1      -2.968  23.391 -21.316  1.00  0.00     0.205 C
HETATM   18  O2  UNL     1      -2.842  24.263 -22.198  1.00  0.00    -0.286 OA
HETATM   19  C18 UNL     1      -1.912  23.196 -20.399  1.00  0.00     0.075 A
HETATM   20  C19 UNL     1      -0.646  23.556 -20.708  1.00  0.00     0.082 A
HETATM   21  N6  UNL     1      -0.283  24.165 -21.986  1.00  0.00    -0.100 NA
ENDROOT
BRANCH   1  22
HETATM   22  C2  UNL     1       1.767  23.628 -19.858  1.00  0.00     0.020 C
HETATM   23  C1  UNL     1       2.793  22.594 -19.880  1.00  0.00     0.069 C
HETATM   24  N1  UNL     1       2.072  24.864 -19.918  1.00  0.00    -0.391 N
ATOM     25  H1  UNL     1       1.287  25.515 -19.897  1.00  0.00     0.159 HD
BRANCH  24  26
HETATM   26  C3  UNL     1       3.359  25.455 -20.011  1.00  0.00     0.150 C
BRANCH  26  27
HETATM   27  C4  UNL     1       3.240  26.665 -20.947  1.00  0.00     0.290 C
BRANCH  27  28
HETATM   28  N2  UNL     1       3.043  27.882 -20.200  1.00  0.00     0.081 N
HETATM   29  C5  UNL     1       3.773  27.835 -18.946  1.00  0.00     0.309 C
HETATM   30  C6  UNL     1       3.330  29.060 -20.958  1.00  0.00     0.309 C
ENDBRANCH  27  28
ENDBRANCH  26  27
ENDBRANCH  24  26
ENDBRANCH   1  22
BRANCH  13  31
HETATM   31  N4  UNL     1      -9.157  19.569 -20.122  1.00  0.00    -0.370 N
HETATM   32  C14 UNL     1      -8.838  18.446 -19.295  1.00  0.00     0.151 C
HETATM   33  C15 UNL     1     -10.482  20.030 -20.414  1.00  0.00     0.151 C
ENDBRANCH  13  31
TORSDOF 5
ENDMDL