MODEL 2
REMARK VINA RESULT: -7.166880886      3.119      7.063
REMARK  7 active torsions:
REMARK  status: ('A' for Active; 'I' for Inactive)
REMARK    1  A    between atoms: C2_2  and  C3_3
REMARK    2  A    between atoms: C3_3  and  C4_4
REMARK    3  A    between atoms: C4_4  and  C5_5
REMARK    4  A    between atoms: C5_5  and  C6_6
REMARK    5  A    between atoms: C6_6  and  O1_7
REMARK    6  A    between atoms: C10_13  and  O3_14
REMARK    7  A    between atoms: C12_17  and  O4_18
ROOT
HETATM    1  C5  UNL     1       0.943  23.231 -21.139  1.00  0.00     0.105 C
HETATM    2  C16 UNL     1       1.399  23.751 -22.473  1.00  0.00     0.194 C
HETATM    3  O6  UNL     1       1.176  24.951 -22.855  1.00  0.00    -0.290 OA
HETATM    4  C17 UNL     1       2.131  22.953 -23.449  1.00  0.00     0.118 A
HETATM    5  N1  UNL     1       2.574  23.177 -24.716  1.00  0.00    -0.257 N
ATOM      6  H1  UNL     1       2.443  24.045 -25.235  1.00  0.00     0.195 HD
HETATM    7  O7  UNL     1       3.188  22.124 -25.168  1.00  0.00    -0.241 OA
HETATM    8  C18 UNL     1       3.202  21.162 -24.282  1.00  0.00     0.088 A
HETATM    9  C19 UNL     1       3.776  19.821 -24.364  1.00  0.00     0.080 C
HETATM   10  C20 UNL     1       2.535  21.663 -23.175  1.00  0.00     0.074 A
HETATM   11  C21 UNL     1       2.184  21.164 -21.863  1.00  0.00     0.173 C
HETATM   12  O8  UNL     1       2.104  19.899 -21.715  1.00  0.00    -0.291 OA
HETATM   13  C22 UNL     1       1.936  22.129 -20.774  1.00  0.00     0.039 C
HETATM   14  C23 UNL     1       3.302  22.770 -20.488  1.00  0.00     0.025 C
HETATM   15  C24 UNL     1       1.604  21.347 -19.555  1.00  0.00     0.025 C
ENDROOT
BRANCH   1  16
HETATM   16  C4  UNL     1       1.091  24.268 -20.073  1.00  0.00     0.025 C
BRANCH  16  17
HETATM   17  C3  UNL     1       1.076  25.692 -20.425  1.00  0.00     0.001 C
BRANCH  17  18
HETATM   18  C2  UNL     1       2.297  26.409 -19.834  1.00  0.00    -0.005 C
HETATM   19  C1  UNL     1       2.374  27.834 -20.237  1.00  0.00     0.005 C
ENDBRANCH  17  18
ENDBRANCH  16  17
ENDBRANCH   1  16
BRANCH   1  20
HETATM   20  C6  UNL     1      -0.431  22.714 -21.217  1.00  0.00     0.251 C
HETATM   21  O2  UNL     1      -1.159  23.736 -22.012  1.00  0.00    -0.304 OA
HETATM   22  C7  UNL     1      -2.515  23.545 -21.844  1.00  0.00     0.098 A
HETATM   23  C8  UNL     1      -3.600  23.864 -22.633  1.00  0.00     0.006 A
HETATM   24  C14 UNL     1      -2.655  22.909 -20.620  1.00  0.00     0.083 A
HETATM   25  C9  UNL     1      -3.394  24.553 -23.953  1.00  0.00     0.054 C
HETATM   26  C10 UNL     1      -4.867  23.546 -22.202  1.00  0.00     0.077 A
HETATM   27  C11 UNL     1      -5.032  22.917 -20.995  1.00  0.00     0.075 A
HETATM   28  C12 UNL     1      -3.931  22.600 -20.208  1.00  0.00     0.087 A
HETATM   29  C15 UNL     1      -1.294  22.725 -20.054  1.00  0.00     0.228 C
HETATM   30  O5  UNL     1      -1.109  22.624 -18.847  1.00  0.00    -0.286 OA
BRANCH  20  31
HETATM   31  O1  UNL     1      -0.588  21.515 -21.911  1.00  0.00    -0.358 OA
ATOM     32  H1  UNL     1       0.200  20.998 -22.027  1.00  0.00     0.213 HD
ENDBRANCH  20  31
BRANCH  26  33
HETATM   33  O3  UNL     1      -5.927  23.886 -23.028  1.00  0.00    -0.360 OA
ATOM     34  H3  UNL     1      -6.060  24.808 -23.213  1.00  0.00     0.217 HD
ENDBRANCH  26  33
BRANCH  28  35
HETATM   35  O4  UNL     1      -4.126  21.965 -18.989  1.00  0.00    -0.355 OA
HETATM   36  C13 UNL     1      -5.264  21.187 -18.769  1.00  0.00     0.210 C
ENDBRANCH  28  35
ENDBRANCH   1  20
TORSDOF 7
ENDMDL