MODEL 1
REMARK VINA RESULT: -9.199392490      0.000      0.000
REMARK  8 active torsions:
REMARK  status: ('A' for Active; 'I' for Inactive)
REMARK    1  A    between atoms: C3_3  and  C4_4
REMARK    2  A    between atoms: C5_5  and  O1_6
REMARK    3  A    between atoms: C7_9  and  O2_10
REMARK    4  A    between atoms: C11_16  and  O4_17
REMARK    5  A    between atoms: C18_25  and  C19_26
REMARK    6  A    between atoms: C19_26  and  C20_27
REMARK    7  A    between atoms: C20_27  and  O6_28
REMARK    8  A    between atoms: O6_28  and  C21_29
ROOT
HETATM    1  C4  UNL     1      -3.254  21.508 -20.030  1.00  0.00     0.032 A
HETATM    2  C5  UNL     1      -1.975  21.883 -19.747  1.00  0.00     0.081 A
HETATM    3  C6  UNL     1      -1.284  22.862 -20.456  1.00  0.00     0.075 A
HETATM    4  C7  UNL     1      -1.867  23.506 -21.487  1.00  0.00     0.085 A
HETATM    5  C8  UNL     1      -3.158  23.182 -21.831  1.00  0.00     0.083 A
HETATM    6  C9  UNL     1      -3.771  23.841 -22.894  1.00  0.00     0.203 A
HETATM    7  O3  UNL     1      -3.166  24.724 -23.544  1.00  0.00    -0.286 OA
HETATM    8  C10 UNL     1      -5.066  23.460 -23.177  1.00  0.00     0.083 A
HETATM    9  C11 UNL     1      -5.722  24.082 -24.220  1.00  0.00     0.086 A
HETATM   10  C13 UNL     1      -7.015  23.692 -24.490  1.00  0.00     0.054 A
HETATM   11  C14 UNL     1      -7.667  22.707 -23.752  1.00  0.00     0.030 A
HETATM   12  C15 UNL     1      -7.018  22.076 -22.705  1.00  0.00    -0.004 A
HETATM   13  C16 UNL     1      -5.706  22.478 -22.438  1.00  0.00     0.101 A
HETATM   14  O5  UNL     1      -5.070  21.907 -21.459  1.00  0.00    -0.307 OA
HETATM   15  C17 UNL     1      -3.828  22.220 -21.130  1.00  0.00     0.106 A
HETATM   16  C18 UNL     1      -7.676  21.002 -21.916  1.00  0.00     0.032 C
HETATM   17  C23 UNL     1      -9.174  21.305 -21.772  1.00  0.00     0.097 C
HETATM   18  C24 UNL     1      -9.681  21.311 -23.188  1.00  0.00     0.200 C
HETATM   19  O8  UNL     1     -10.538  20.560 -23.648  1.00  0.00    -0.289 OA
HETATM   20  C25 UNL     1      -9.049  22.335 -24.036  1.00  0.00     0.228 C
HETATM   21  O9  UNL     1      -9.665  22.883 -24.979  1.00  0.00    -0.284 OA
ENDROOT
BRANCH  16  22
HETATM   22  C19 UNL     1      -7.615  19.664 -22.626  1.00  0.00     0.036 C
BRANCH  22  23
HETATM   23  C20 UNL     1      -8.189  18.530 -21.854  1.00  0.00     0.179 C
BRANCH  23  24
HETATM   24  O6  UNL     1      -7.589  18.397 -20.605  1.00  0.00    -0.322 OA
BRANCH  24  25
HETATM   25  C21 UNL     1      -8.238  18.228 -19.426  1.00  0.00     0.254 C
HETATM   26  C22 UNL     1      -9.550  18.866 -19.102  1.00  0.00     0.126 C
HETATM   27  O7  UNL     1      -7.750  17.508 -18.530  1.00  0.00    -0.266 OA
ENDBRANCH  24  25
ENDBRANCH  23  24
ENDBRANCH  22  23
ENDBRANCH  16  22
BRANCH   9  28
HETATM   28  O4  UNL     1      -5.051  25.061 -24.941  1.00  0.00    -0.355 OA
HETATM   29  C12 UNL     1      -5.516  25.409 -26.241  1.00  0.00     0.210 C
ENDBRANCH   9  28
BRANCH   1  30
HETATM   30  C3  UNL     1      -4.037  20.489 -19.393  1.00  0.00     0.013 C
HETATM   31  C2  UNL     1      -5.162  20.378 -18.855  1.00  0.00    -0.030 C
HETATM   32  C1  UNL     1      -6.319  21.219 -18.568  1.00  0.00     0.036 C
ENDBRANCH   1  30
BRANCH   4  33
HETATM   33  O2  UNL     1      -1.189  24.480 -22.198  1.00  0.00    -0.360 OA
ATOM     34  H2  UNL     1      -1.565  24.872 -22.978  1.00  0.00     0.217 HD
ENDBRANCH   4  33
BRANCH   2  35
HETATM   35  O1  UNL     1      -1.298  21.288 -18.711  1.00  0.00    -0.360 OA
ATOM     36  H1  UNL     1      -1.599  20.457 -18.364  1.00  0.00     0.217 HD
ENDBRANCH   2  35
TORSDOF 8
ENDMDL