MODEL 5
REMARK VINA RESULT: -8.733640650      1.672      6.609
REMARK  7 active torsions:
REMARK  status: ('A' for Active; 'I' for Inactive)
REMARK    1  A    between atoms: O1_2  and  C2_3
REMARK    2  A    between atoms: C5_6  and  C6_7
REMARK    3  A    between atoms: C8_10  and  O3_11
REMARK    4  A    between atoms: C16_21  and  O5_22
REMARK    5  A    between atoms: C18_24  and  O6_25
REMARK    6  A    between atoms: C22_31  and  O8_32
REMARK    7  A    between atoms: C24_34  and  O9_35
ROOT
HETATM    1  C2  UNL     1      -2.275  23.427 -22.139  1.00  0.00     0.105 A
HETATM    2  C3  UNL     1      -3.207  23.776 -23.117  1.00  0.00     0.052 A
HETATM    3  C4  UNL     1      -4.510  23.355 -23.130  1.00  0.00    -0.010 A
HETATM    4  C5  UNL     1      -5.409  23.749 -24.148  1.00  0.00    -0.029 A
HETATM    5  C9  UNL     1      -6.687  23.273 -24.034  1.00  0.00    -0.037 A
HETATM    6  C10 UNL     1      -7.724  23.761 -24.931  1.00  0.00     0.050 C
HETATM    7  C11 UNL     1      -7.104  22.431 -22.985  1.00  0.00     0.056 A
HETATM    8  C12 UNL     1      -8.387  21.973 -22.925  1.00  0.00     0.198 A
HETATM    9  O4  UNL     1      -9.228  22.267 -23.794  1.00  0.00    -0.286 OA
HETATM   10  C13 UNL     1      -8.742  21.154 -21.863  1.00  0.00     0.052 A
HETATM   11  C14 UNL     1     -10.040  20.723 -21.846  1.00  0.00     0.021 A
HETATM   12  C15 UNL     1     -10.447  19.921 -20.827  1.00  0.00     0.041 A
HETATM   13  C16 UNL     1      -9.560  19.536 -19.804  1.00  0.00     0.104 A
HETATM   14  C18 UNL     1      -8.234  20.019 -19.887  1.00  0.00     0.134 A
HETATM   15  C19 UNL     1      -7.801  20.826 -20.908  1.00  0.00     0.126 A
HETATM   16  O7  UNL     1      -6.585  21.283 -21.017  1.00  0.00    -0.305 OA
HETATM   17  C20 UNL     1      -6.188  22.062 -22.002  1.00  0.00     0.105 A
HETATM   18  C21 UNL     1      -4.900  22.520 -22.079  1.00  0.00     0.046 A
HETATM   19  C22 UNL     1      -4.005  22.155 -21.108  1.00  0.00     0.118 A
HETATM   20  C24 UNL     1      -2.690  22.600 -21.118  1.00  0.00     0.136 A
ENDROOT
BRANCH   4  21
HETATM   21  C6  UNL     1      -4.893  24.520 -25.197  1.00  0.00     0.099 C
HETATM   22  C7  UNL     1      -5.398  24.854 -26.523  1.00  0.00     0.185 C
HETATM   23  O2  UNL     1      -4.249  25.758 -26.510  1.00  0.00    -0.360 OA
HETATM   24  C8  UNL     1      -4.798  26.006 -25.204  1.00  0.00     0.267 C
BRANCH  24  25
HETATM   25  O3  UNL     1      -3.923  26.712 -24.473  1.00  0.00    -0.370 OA
ATOM     26  H3  UNL     1      -2.989  26.540 -24.443  1.00  0.00     0.212 HD
ENDBRANCH  24  25
ENDBRANCH   4  21
BRANCH   1  27
HETATM   27  O1  UNL     1      -0.969  23.868 -22.146  1.00  0.00    -0.353 OA
HETATM   28  C1  UNL     1       0.073  23.288 -22.864  1.00  0.00     0.210 C
ENDBRANCH   1  27
BRANCH  19  29
HETATM   29  O8  UNL     1      -4.336  21.286 -20.039  1.00  0.00    -0.352 OA
HETATM   30  C23 UNL     1      -4.724  21.952 -18.810  1.00  0.00     0.210 C
ENDBRANCH  19  29
BRANCH  20  31
HETATM   31  O9  UNL     1      -1.846  22.208 -20.119  1.00  0.00    -0.351 OA
HETATM   32  C25 UNL     1      -1.354  23.075 -19.113  1.00  0.00     0.210 C
ENDBRANCH  20  31
BRANCH  14  33
HETATM   33  O6  UNL     1      -7.414  19.630 -18.875  1.00  0.00    -0.356 OA
ATOM     34  H6  UNL     1      -7.359  20.236 -18.145  1.00  0.00     0.218 HD
ENDBRANCH  14  33
BRANCH  13  35
HETATM   35  O5  UNL     1      -9.970  18.767 -18.835  1.00  0.00    -0.353 OA
HETATM   36  C17 UNL     1     -10.504  18.217 -17.805  1.00  0.00     0.210 C
ENDBRANCH  13  35
TORSDOF 7
ENDMDL