MODEL 2
REMARK VINA RESULT: -9.602210803      0.904      1.088
REMARK  6 active torsions:
REMARK  status: ('A' for Active; 'I' for Inactive)
REMARK    1  A    between atoms: C2_2  and  C3_3
REMARK    2  A    between atoms: C3_3  and  C4_4
REMARK    3  A    between atoms: C4_4  and  C5_5
REMARK    4  A    between atoms: C6_6  and  C7_7
REMARK    5  A    between atoms: C9_9  and  O1_10
REMARK    6  A    between atoms: C19_24  and  O5_25
ROOT
HETATM    1  C7  UNL     1      -6.434  23.946 -24.357  1.00  0.00    -0.033 A
HETATM    2  C8  UNL     1      -7.627  23.261 -24.425  1.00  0.00     0.051 A
HETATM    3  C9  UNL     1      -7.927  22.231 -23.562  1.00  0.00     0.100 A
HETATM    4  C10 UNL     1      -7.046  21.801 -22.549  1.00  0.00     0.110 A
HETATM    5  C11 UNL     1      -5.865  22.496 -22.501  1.00  0.00    -0.012 A
HETATM    6  C12 UNL     1      -5.570  23.537 -23.380  1.00  0.00     0.022 A
HETATM    7  C13 UNL     1      -4.686  22.307 -21.539  1.00  0.00     0.082 C
HETATM    8  C14 UNL     1      -4.073  23.662 -21.182  1.00  0.00     0.021 C
HETATM    9  C15 UNL     1      -5.296  21.611 -20.439  1.00  0.00     0.203 C
HETATM   10  C16 UNL     1      -6.099  22.695 -19.901  1.00  0.00     0.083 C
HETATM   11  O2  UNL     1      -4.868  21.073 -19.267  1.00  0.00    -0.199 OA
HETATM   12  O3  UNL     1      -6.103  20.632 -18.850  1.00  0.00    -0.212 OA
HETATM   13  C17 UNL     1      -6.690  19.768 -19.644  1.00  0.00     0.236 C
HETATM   14  C18 UNL     1      -7.467  18.646 -19.029  1.00  0.00     0.313 C
HETATM   15  O4  UNL     1      -8.692  19.326 -18.816  1.00  0.00    -0.324 OA
HETATM   16  C19 UNL     1      -8.926  20.030 -19.990  1.00  0.00     0.306 C
HETATM   17  C21 UNL     1      -7.600  20.006 -20.785  1.00  0.00     0.216 C
HETATM   18  O6  UNL     1      -7.518  20.786 -21.809  1.00  0.00    -0.322 OA
HETATM   19  C22 UNL     1      -7.492  18.534 -21.266  1.00  0.00     0.206 C
HETATM   20  C23 UNL     1      -8.284  18.176 -22.418  1.00  0.00     0.083 C
HETATM   21  O7  UNL     1      -7.743  17.790 -20.094  1.00  0.00    -0.318 OA
HETATM   22  O8  UNL     1      -6.092  18.400 -21.439  1.00  0.00    -0.318 OA
HETATM   23  C24 UNL     1      -5.513  19.261 -20.520  1.00  0.00     0.313 C
HETATM   24  O9  UNL     1      -5.396  20.482 -21.113  1.00  0.00    -0.319 OA
ENDROOT
BRANCH   1  25
HETATM   25  C6  UNL     1      -6.159  24.982 -25.312  1.00  0.00     0.007 C
HETATM   26  C5  UNL     1      -5.094  25.585 -25.685  1.00  0.00    -0.026 C
BRANCH  26  27
HETATM   27  C4  UNL     1      -3.691  25.534 -25.346  1.00  0.00     0.027 C
BRANCH  27  28
HETATM   28  C3  UNL     1      -2.804  25.657 -26.587  1.00  0.00     0.003 C
BRANCH  28  29
HETATM   29  C2  UNL     1      -3.603  25.282 -27.819  1.00  0.00    -0.004 C
HETATM   30  C1  UNL     1      -2.693  24.515 -28.755  1.00  0.00     0.005 C
ENDBRANCH  28  29
ENDBRANCH  27  28
ENDBRANCH  26  27
ENDBRANCH   1  25
BRANCH   3  31
HETATM   31  O1  UNL     1      -9.172  21.656 -23.777  1.00  0.00    -0.358 OA
ATOM     32  H1  UNL     1      -9.136  20.751 -24.067  1.00  0.00     0.217 HD
ENDBRANCH   3  31
BRANCH  16  33
HETATM   33  O5  UNL     1     -10.002  19.606 -20.696  1.00  0.00    -0.362 OA
HETATM   34  C20 UNL     1     -10.758  20.697 -21.113  1.00  0.00     0.204 C
ENDBRANCH  16  33
TORSDOF 6
ENDMDL