MODEL 3
REMARK VINA RESULT: -8.813701567      0.810      1.098
REMARK  8 active torsions:
REMARK  status: ('A' for Active; 'I' for Inactive)
REMARK    1  A    between atoms: C3_3  and  O1_4
REMARK    2  A    between atoms: O1_4  and  O2_5
REMARK    3  A    between atoms: C4_8  and  O4_9
REMARK    4  A    between atoms: O4_9  and  C5_10
REMARK    5  A    between atoms: C5_10  and  C6_12
REMARK    6  A    between atoms: C19_27  and  O8_28
REMARK    7  A    between atoms: O8_28  and  C20_29
REMARK    8  A    between atoms: C20_29  and  C21_31
ROOT
HETATM    1  C1  UNL     1      -6.481  22.789 -24.409  1.00  0.00     0.022 C
HETATM    2  C2  UNL     1      -5.816  22.691 -23.269  1.00  0.00     0.001 C
HETATM    3  C3  UNL     1      -5.487  23.995 -22.591  1.00  0.00     0.331 C
HETATM    4  O3  UNL     1      -4.160  24.241 -22.450  1.00  0.00    -0.321 OA
HETATM    5  C4  UNL     1      -3.383  23.371 -21.746  1.00  0.00     0.307 C
HETATM    6  C9  UNL     1      -4.128  22.175 -21.370  1.00  0.00     0.234 C
HETATM    7  O6  UNL     1      -4.181  21.300 -22.475  1.00  0.00    -0.361 OA
HETATM    8  C10 UNL     1      -5.513  21.289 -22.883  1.00  0.00     0.191 C
HETATM    9  C11 UNL     1      -6.330  20.767 -21.765  1.00  0.00     0.009 A
HETATM   10  C12 UNL     1      -7.638  20.651 -22.181  1.00  0.00     0.020 A
HETATM   11  C13 UNL     1      -8.632  20.175 -21.338  1.00  0.00    -0.055 A
HETATM   12  C14 UNL     1     -10.054  20.046 -21.779  1.00  0.00     0.049 C
HETATM   13  C15 UNL     1      -8.291  19.810 -20.054  1.00  0.00    -0.053 A
HETATM   14  C16 UNL     1      -9.367  19.295 -19.145  1.00  0.00     0.049 C
HETATM   15  C17 UNL     1      -6.993  19.922 -19.631  1.00  0.00     0.044 A
HETATM   16  C18 UNL     1      -6.007  20.396 -20.470  1.00  0.00     0.082 A
HETATM   17  O7  UNL     1      -4.731  20.456 -19.907  1.00  0.00    -0.316 OA
HETATM   18  C19 UNL     1      -3.629  21.338 -20.227  1.00  0.00     0.310 C
ENDROOT
BRANCH  18  19
HETATM   19  O8  UNL     1      -3.199  22.053 -19.121  1.00  0.00    -0.283 OA
BRANCH  19  20
HETATM   20  C20 UNL     1      -1.875  22.260 -18.746  1.00  0.00     0.291 C
HETATM   21  O9  UNL     1      -1.385  23.374 -19.065  1.00  0.00    -0.260 OA
BRANCH  20  22
HETATM   22  C21 UNL     1      -1.093  21.266 -18.032  1.00  0.00     0.009 C
HETATM   23  C22 UNL     1      -1.799  20.338 -17.119  1.00  0.00     0.054 C
HETATM   24  C23 UNL     1       0.205  21.196 -18.193  1.00  0.00    -0.018 C
HETATM   25  C24 UNL     1       1.027  20.189 -17.476  1.00  0.00     0.036 C
ENDBRANCH  20  22
ENDBRANCH  19  20
ENDBRANCH  18  19
BRANCH   5  26
HETATM   26  O4  UNL     1      -2.328  22.976 -22.647  1.00  0.00    -0.283 OA
BRANCH  26  27
HETATM   27  C5  UNL     1      -0.992  23.041 -22.290  1.00  0.00     0.285 C
HETATM   28  O5  UNL     1      -0.514  24.193 -22.137  1.00  0.00    -0.260 OA
BRANCH  27  29
HETATM   29  C6  UNL     1      -0.147  21.890 -22.092  1.00  0.00     0.078 C
HETATM   30  C7  UNL     1       1.081  22.045 -21.663  1.00  0.00    -0.025 C
HETATM   31  C8  UNL     1       2.021  20.918 -21.431  1.00  0.00     0.036 C
ENDBRANCH  27  29
ENDBRANCH  26  27
ENDBRANCH   5  26
BRANCH   3  32
HETATM   32  O1  UNL     1      -5.961  25.034 -23.436  1.00  0.00    -0.205 OA
BRANCH  32  33
HETATM   33  O2  UNL     1      -5.115  25.993 -23.603  1.00  0.00    -0.248 OA
ATOM     34  H2  UNL     1      -4.398  25.773 -24.186  1.00  0.00     0.253 HD
ENDBRANCH  32  33
ENDBRANCH   3  32
TORSDOF 8
ENDMDL