MODEL 4
REMARK VINA RESULT: -8.562909225      1.221      1.501
REMARK  9 active torsions:
REMARK  status: ('A' for Active; 'I' for Inactive)
REMARK    1  A    between atoms: C2_2  and  C23_32
REMARK    2  A    between atoms: C3_3  and  C4_4
REMARK    3  A    between atoms: C4_4  and  C5_5
REMARK    4  A    between atoms: C5_5  and  O2_7
REMARK    5  A    between atoms: O2_7  and  C6_8
REMARK    6  A    between atoms: C18_23  and  O6_24
REMARK    7  A    between atoms: O6_24  and  C19_25
REMARK    8  A    between atoms: C19_25  and  C20_27
REMARK    9  A    between atoms: C20_27  and  O8_30
ROOT
HETATM    1  C23 UNL     1       0.688  22.821 -20.903  1.00  0.00     0.100 C
HETATM    2  C24 UNL     1       1.202  21.677 -21.554  1.00  0.00     0.088 C
HETATM    3  N1  UNL     1       1.664  20.761 -22.088  1.00  0.00    -0.192 NA
ENDROOT
BRANCH   1   4
HETATM    4  C2  UNL     1      -0.567  22.813 -20.173  1.00  0.00    -0.055 C
HETATM    5  C1  UNL     1      -0.437  22.591 -18.639  1.00  0.00     0.048 C
HETATM    6  C3  UNL     1      -1.775  22.920 -20.623  1.00  0.00    -0.010 C
BRANCH   6   7
HETATM    7  C4  UNL     1      -2.336  23.133 -21.951  1.00  0.00     0.138 C
BRANCH   7   8
HETATM    8  C5  UNL     1      -2.879  21.830 -22.425  1.00  0.00     0.264 C
HETATM    9  O1  UNL     1      -2.059  20.882 -22.534  1.00  0.00    -0.265 OA
BRANCH   8  10
HETATM   10  O2  UNL     1      -4.217  21.648 -22.736  1.00  0.00    -0.284 OA
BRANCH  10  11
HETATM   11  C6  UNL     1      -5.214  22.166 -21.903  1.00  0.00     0.337 C
HETATM   12  O3  UNL     1      -5.095  21.860 -20.598  1.00  0.00    -0.344 OA
HETATM   13  C7  UNL     1      -6.147  21.093 -20.120  1.00  0.00     0.073 C
HETATM   14  C8  UNL     1      -6.538  21.718 -18.813  1.00  0.00     0.047 C
HETATM   15  C9  UNL     1      -5.421  19.800 -19.685  1.00  0.00     0.047 C
HETATM   16  C10 UNL     1      -7.158  20.905 -21.167  1.00  0.00     0.087 C
HETATM   17  C11 UNL     1      -8.581  21.115 -20.823  1.00  0.00     0.001 C
HETATM   18  C17 UNL     1      -7.057  19.556 -21.874  1.00  0.00     0.181 C
HETATM   19  C18 UNL     1      -6.606  21.777 -22.266  1.00  0.00     0.268 C
HETATM   20  C12 UNL     1      -9.572  21.044 -21.910  1.00  0.00     0.011 C
HETATM   21  C13 UNL     1      -9.047  20.016 -19.872  1.00  0.00     0.006 C
HETATM   22  C14 UNL     1      -8.934  18.648 -20.459  1.00  0.00     0.007 C
HETATM   23  C15 UNL     1      -7.777  18.418 -21.342  1.00  0.00     0.015 C
HETATM   24  C16 UNL     1      -8.224  17.514 -22.508  1.00  0.00     0.012 C
HETATM   25  O4  UNL     1      -7.434  19.971 -23.178  1.00  0.00    -0.231 OA
HETATM   26  O5  UNL     1      -6.429  20.840 -23.353  1.00  0.00    -0.193 OA
BRANCH  19  27
HETATM   27  O6  UNL     1      -7.303  22.786 -22.793  1.00  0.00    -0.272 OA
BRANCH  27  28
HETATM   28  C19 UNL     1      -7.304  23.371 -24.006  1.00  0.00     0.295 C
HETATM   29  O7  UNL     1      -7.885  22.775 -24.915  1.00  0.00    -0.262 OA
BRANCH  28  30
HETATM   30  C20 UNL     1      -6.635  24.692 -24.272  1.00  0.00     0.138 C
HETATM   31  C21 UNL     1      -6.264  24.724 -25.720  1.00  0.00     0.056 C
HETATM   32  C22 UNL     1      -5.490  24.845 -23.322  1.00  0.00     0.056 C
BRANCH  30  33
HETATM   33  O8  UNL     1      -7.554  25.722 -24.068  1.00  0.00    -0.380 OA
ATOM     34  H8  UNL     1      -7.166  26.380 -23.505  1.00  0.00     0.211 HD
ENDBRANCH  30  33
ENDBRANCH  28  30
ENDBRANCH  27  28
ENDBRANCH  19  27
ENDBRANCH  10  11
ENDBRANCH   8  10
ENDBRANCH   7   8
ENDBRANCH   6   7
ENDBRANCH   1   4
TORSDOF 9
ENDMDL