MODEL 5
REMARK VINA RESULT: -7.373388044      2.579      8.331
REMARK  7 active torsions:
REMARK  status: ('A' for Active; 'I' for Inactive)
REMARK    1  A    between atoms: C2_2  and  O1_3
REMARK    2  A    between atoms: O1_3  and  C3_4
REMARK    3  A    between atoms: C5_6  and  C6_7
REMARK    4  A    between atoms: C12_16  and  O5_17
REMARK    5  A    between atoms: C14_20  and  O6_21
REMARK    6  A    between atoms: C18_26  and  C19_27
REMARK    7  A    between atoms: C26_36  and  O8_37
ROOT
HETATM    1  C6  UNL     1      -0.292  23.257 -21.517  1.00  0.00     0.180 C
HETATM    2  O2  UNL     1      -1.149  24.137 -22.167  1.00  0.00    -0.306 OA
HETATM    3  C7  UNL     1      -2.492  23.929 -22.443  1.00  0.00     0.300 C
HETATM    4  O3  UNL     1      -3.186  24.700 -23.151  1.00  0.00    -0.259 OA
HETATM    5  C8  UNL     1      -3.121  22.745 -21.871  1.00  0.00     0.121 A
HETATM    6  C9  UNL     1      -2.360  21.922 -21.108  1.00  0.00     0.085 A
HETATM    7  O4  UNL     1      -2.929  20.854 -20.593  1.00  0.00    -0.312 OA
HETATM    8  C10 UNL     1      -4.191  20.548 -20.779  1.00  0.00     0.095 A
HETATM    9  C11 UNL     1      -4.732  19.394 -20.199  1.00  0.00     0.075 A
HETATM   10  C12 UNL     1      -6.060  19.083 -20.402  1.00  0.00     0.071 A
HETATM   11  C13 UNL     1      -6.867  19.885 -21.165  1.00  0.00     0.074 A
HETATM   12  C14 UNL     1      -6.344  21.041 -21.751  1.00  0.00     0.087 A
HETATM   13  C16 UNL     1      -5.026  21.342 -21.545  1.00  0.00     0.082 A
HETATM   14  C17 UNL     1      -4.461  22.474 -22.104  1.00  0.00     0.206 A
HETATM   15  O7  UNL     1      -5.131  23.252 -22.809  1.00  0.00    -0.286 OA
HETATM   16  C18 UNL     1      -0.924  22.119 -20.799  1.00  0.00     0.111 C
ENDROOT
BRANCH   1  17
HETATM   17  C5  UNL     1       0.708  22.790 -22.533  1.00  0.00    -0.025 A
HETATM   18  C4  UNL     1       0.982  23.522 -23.669  1.00  0.00     0.049 A
HETATM   19  C3  UNL     1       1.901  23.106 -24.614  1.00  0.00     0.102 A
HETATM   20  C26 UNL     1       2.595  21.907 -24.445  1.00  0.00     0.099 A
HETATM   21  C25 UNL     1       2.315  21.186 -23.310  1.00  0.00     0.040 A
HETATM   22  C24 UNL     1       1.392  21.605 -22.362  1.00  0.00     0.013 A
BRANCH  19  23
HETATM   23  O1  UNL     1       2.158  23.844 -25.733  1.00  0.00    -0.349 OA
BRANCH  23  24
HETATM   24  C2  UNL     1       1.455  24.928 -26.243  1.00  0.00     0.171 C
HETATM   25  C1  UNL     1       2.056  26.275 -25.981  1.00  0.00     0.034 C
ENDBRANCH  23  24
ENDBRANCH  19  23
BRANCH  20  26
HETATM   26  O8  UNL     1       3.521  21.483 -25.393  1.00  0.00    -0.358 OA
ATOM     27  H8  UNL     1       3.753  20.565 -25.467  1.00  0.00     0.217 HD
ENDBRANCH  20  26
ENDBRANCH   1  17
BRANCH  16  28
HETATM   28  C19 UNL     1      -0.694  22.162 -19.328  1.00  0.00    -0.042 A
HETATM   29  C20 UNL     1       0.586  22.159 -18.814  1.00  0.00     0.025 A
HETATM   30  C21 UNL     1       0.856  22.198 -17.466  1.00  0.00     0.088 A
HETATM   31  N1  UNL     1      -0.176  22.240 -16.614  1.00  0.00    -0.375 N
HETATM   32  C22 UNL     1      -1.444  22.245 -17.070  1.00  0.00     0.088 A
ATOM     33  H1  UNL     1      -0.001  22.269 -15.610  1.00  0.00     0.164 HD
HETATM   34  C23 UNL     1      -1.743  22.206 -18.432  1.00  0.00     0.025 A
ENDBRANCH  16  28
BRANCH  12  35
HETATM   35  O6  UNL     1      -7.125  21.868 -22.523  1.00  0.00    -0.355 OA
HETATM   36  C15 UNL     1      -8.181  21.359 -23.285  1.00  0.00     0.210 C
ENDBRANCH  12  35
BRANCH  10  37
HETATM   37  O5  UNL     1      -6.524  17.921 -19.794  1.00  0.00    -0.361 OA
ATOM     38  H5  UNL     1      -6.077  17.651 -19.001  1.00  0.00     0.217 HD
ENDBRANCH  10  37
TORSDOF 7
ENDMDL