MODEL 5
REMARK VINA RESULT: -7.836581060      4.083      7.019
REMARK  8 active torsions:
REMARK  status: ('A' for Active; 'I' for Inactive)
REMARK    1  A    between atoms: C2_2  and  O1_3
REMARK    2  A    between atoms: O1_3  and  C3_4
REMARK    3  A    between atoms: C3_4  and  N1_5
REMARK    4  A    between atoms: C3_4  and  O5_14
REMARK    5  A    between atoms: N1_5  and  C4_7
REMARK    6  A    between atoms: O5_14  and  C8_15
REMARK    7  A    between atoms: C12_19  and  O6_20
REMARK    8  A    between atoms: C18_27  and  O7_28
ROOT
HETATM    1  C8  UNL     1       4.109  22.166  21.108  1.00  0.00     0.139 C
HETATM    2  C9  UNL     1       4.027  23.022  22.339  1.00  0.00     0.014 C
HETATM    3  C10 UNL     1       4.073  24.500  21.956  1.00  0.00     0.012 C
HETATM    4  C11 UNL     1       4.949  22.732  23.445  1.00  0.00     0.039 C
HETATM    5  C12 UNL     1       6.220  22.030  23.106  1.00  0.00     0.123 C
HETATM    6  C13 UNL     1       6.142  21.130  21.922  1.00  0.00     0.026 C
HETATM    7  C14 UNL     1       7.595  20.836  21.523  1.00  0.00     0.019 C
HETATM    8  C15 UNL     1       7.567  19.693  20.571  1.00  0.00    -0.021 C
HETATM    9  C16 UNL     1       7.781  18.416  21.400  1.00  0.00     0.017 C
HETATM   10  C17 UNL     1       8.795  19.803  19.679  1.00  0.00     0.017 C
HETATM   11  C18 UNL     1       6.311  19.526  19.814  1.00  0.00     0.130 C
HETATM   12  C19 UNL     1       5.494  20.766  19.591  1.00  0.00     0.022 C
HETATM   13  C20 UNL     1       5.921  21.409  18.279  1.00  0.00     0.013 C
HETATM   14  C21 UNL     1       5.483  21.743  20.733  1.00  0.00    -0.006 C
HETATM   15  C22 UNL     1       6.245  22.987  20.290  1.00  0.00     0.019 C
ENDROOT
BRANCH   1  16
HETATM   16  O5  UNL     1       3.439  22.890  20.093  1.00  0.00    -0.338 OA
BRANCH  16  17
HETATM   17  C3  UNL     1       2.289  22.274  19.649  1.00  0.00     0.371 C
BRANCH  17  18
HETATM   18  O1  UNL     1       1.146  22.796  20.277  1.00  0.00    -0.344 OA
BRANCH  18  19
HETATM   19  C2  UNL     1       0.970  24.140  20.013  1.00  0.00     0.168 C
HETATM   20  C1  UNL     1      -0.465  24.572  19.974  1.00  0.00     0.033 C
ENDBRANCH  18  19
ENDBRANCH  17  18
BRANCH  17  21
HETATM   21  N1  UNL     1       2.038  22.402  18.233  1.00  0.00    -0.337 N
ATOM     22  H1  UNL     1       2.384  23.229  17.747  1.00  0.00     0.164 HD
BRANCH  21  23
HETATM   23  C4  UNL     1       1.324  21.420  17.487  1.00  0.00     0.111 A
HETATM   24  C5  UNL     1       1.564  20.123  17.388  1.00  0.00     0.179 A
HETATM   25  O2  UNL     1       0.650  19.487  16.567  1.00  0.00    -0.282 OA
HETATM   26  C6  UNL     1      -0.272  20.431  16.079  1.00  0.00     0.340 A
HETATM   27  O3  UNL     1      -1.238  20.198  15.306  1.00  0.00    -0.255 OA
HETATM   28  C7  UNL     1       0.157  21.685  16.670  1.00  0.00     0.275 A
HETATM   29  O4  UNL     1      -0.402  22.787  16.488  1.00  0.00    -0.279 OA
ENDBRANCH  21  23
ENDBRANCH  17  21
ENDBRANCH  16  17
ENDBRANCH   1  16
BRANCH   5  30
HETATM   30  O6  UNL     1       6.618  21.218  24.199  1.00  0.00    -0.395 OA
ATOM     31  H6  UNL     1       5.897  20.654  24.453  1.00  0.00     0.210 HD
ENDBRANCH   5  30
BRANCH  11  32
HETATM   32  O7  UNL     1       5.503  18.500  20.330  1.00  0.00    -0.394 OA
ATOM     33  H7  UNL     1       4.887  18.164  19.689  1.00  0.00     0.210 HD
ENDBRANCH  11  32
TORSDOF 8
ENDMDL