MODEL 5
REMARK VINA RESULT: -8.033583408      3.121      4.334
REMARK  7 active torsions:
REMARK  status: ('A' for Active; 'I' for Inactive)
REMARK    1  A    between atoms: C6_7  and  C7_8
REMARK    2  A    between atoms: C7_8  and  C12_15
REMARK    3  A    between atoms: N1_9  and  C8_11
REMARK       I    between atoms: C12_15  and  N2_17
REMARK    4  A    between atoms: N3_19  and  C13_21
REMARK    5  A    between atoms: C14_22  and  O3_23
REMARK    6  A    between atoms: C15_27  and  O4_28
REMARK    7  A    between atoms: C16_30  and  C17_31
ROOT
HETATM    1  C12 UNL     1       4.908  21.929  22.431  1.00  0.00     0.283 C
HETATM    2  O2  UNL     1       4.665  20.847  23.084  1.00  0.00    -0.265 OA
HETATM    3  N2  UNL     1       3.799  22.399  21.695  1.00  0.00    -0.264 N
ATOM      4  H2  UNL     1       3.646  23.406  21.645  1.00  0.00     0.190 HD
HETATM    5  N3  UNL     1       2.984  21.638  21.096  1.00  0.00    -0.293 N
ATOM      6  H3  UNL     1       3.136  20.631  21.146  1.00  0.00     0.187 HD
ENDROOT
BRANCH   1   7
HETATM    7  C7  UNL     1       6.221  22.528  22.506  1.00  0.00     0.094 C
HETATM    8  N1  UNL     1       6.520  23.523  23.168  1.00  0.00    -0.380 N
ATOM      9  H1  UNL     1       7.513  23.711  23.025  1.00  0.00     0.160 HD
BRANCH   7  10
HETATM   10  C6  UNL     1       7.330  21.892  21.710  1.00  0.00     0.180 C
HETATM   11  C5  UNL     1       7.958  20.756  22.434  1.00  0.00     0.144 C
HETATM   12  C4  UNL     1       8.952  19.964  21.668  1.00  0.00     0.088 C
HETATM   13  O1  UNL     1       7.725  20.437  23.578  1.00  0.00    -0.297 OA
HETATM   14  C2  UNL     1       8.503  19.498  20.342  1.00  0.00    -0.035 C
HETATM   15  C1  UNL     1       8.012  18.052  20.511  1.00  0.00     0.015 C
HETATM   16  C3  UNL     1       9.743  19.378  19.446  1.00  0.00     0.015 C
HETATM   17  C19 UNL     1       7.446  20.267  19.668  1.00  0.00     0.088 C
HETATM   18  C18 UNL     1       6.840  21.368  20.425  1.00  0.00     0.144 C
HETATM   19  O7  UNL     1       5.843  21.894  19.948  1.00  0.00    -0.297 OA
ENDBRANCH   7  10
BRANCH   8  20
HETATM   20  C8  UNL     1       6.019  24.484  24.034  1.00  0.00     0.019 C
HETATM   21  C9  UNL     1       4.620  24.945  23.795  1.00  0.00     0.037 C
HETATM   22  C10 UNL     1       6.907  25.757  23.848  1.00  0.00     0.037 C
HETATM   23  C11 UNL     1       6.179  24.149  25.510  1.00  0.00     0.037 C
ENDBRANCH   8  20
ENDBRANCH   1   7
BRANCH   5  24
HETATM   24  C13 UNL     1       1.870  22.114  20.358  1.00  0.00     0.120 A
HETATM   25  C14 UNL     1       1.840  22.486  19.042  1.00  0.00     0.172 A
HETATM   26  N4  UNL     1       0.593  22.876  18.738  1.00  0.00    -0.315 N
HETATM   27  C15 UNL     1      -0.206  22.776  19.814  1.00  0.00     0.161 A
ATOM     28  H4  UNL     1       0.293  23.203  17.820  1.00  0.00     0.170 HD
HETATM   29  C16 UNL     1       0.588  22.294  20.846  1.00  0.00     0.123 A
BRANCH  25  30
HETATM   30  O3  UNL     1       2.889  22.486  18.110  1.00  0.00    -0.344 OA
ATOM     31  H3  UNL     1       3.178  21.779  17.545  1.00  0.00     0.219 HD
ENDBRANCH  25  30
BRANCH  27  32
HETATM   32  O4  UNL     1      -1.544  23.102  19.825  1.00  0.00    -0.345 OA
ATOM     33  H4  UNL     1      -2.216  22.601  20.273  1.00  0.00     0.219 HD
ENDBRANCH  27  32
BRANCH  29  34
HETATM   34  C17 UNL     1       0.104  22.039  22.199  1.00  0.00     0.216 C
HETATM   35  O5  UNL     1       0.848  22.301  23.157  1.00  0.00    -0.644 OA
HETATM   36  O6  UNL     1      -1.155  21.518  22.414  1.00  0.00    -0.644 OA
ENDBRANCH  29  34
ENDBRANCH   5  24
TORSDOF 7
ENDMDL