MODEL 4
REMARK VINA RESULT: -7.186589819      4.092      8.591
REMARK  7 active torsions:
REMARK  status: ('A' for Active; 'I' for Inactive)
REMARK    1  A    between atoms: C2_2  and  C4_6
REMARK    2  A    between atoms: C3_3  and  O1_4
REMARK    3  A    between atoms: C8_12  and  C9_13
REMARK    4  A    between atoms: C10_15  and  C11_16
REMARK    5  A    between atoms: C11_16  and  O5_17
REMARK    6  A    between atoms: C12_19  and  N1_20
REMARK       I    between atoms: N1_20  and  C13_22
REMARK    7  A    between atoms: C13_22  and  C14_24
ROOT
HETATM    1  C9  UNL     1      -0.162  23.453  21.288  1.00  0.00     0.182 C
HETATM    2  O4  UNL     1       0.083  23.039  20.000  1.00  0.00    -0.369 OA
HETATM    3  C10 UNL     1       1.442  22.776  19.924  1.00  0.00     0.194 C
HETATM    4  C12 UNL     1       1.824  21.773  20.982  1.00  0.00     0.255 C
HETATM    5  O7  UNL     1       0.770  21.353  21.718  1.00  0.00    -0.356 OA
HETATM    6  C19 UNL     1      -0.170  22.245  22.160  1.00  0.00     0.151 C
HETATM    7  C20 UNL     1      -1.497  21.504  22.137  1.00  0.00     0.042 C
ENDROOT
BRANCH   1   8
HETATM    8  C8  UNL     1      -1.165  24.493  21.503  1.00  0.00     0.190 C
HETATM    9  C4  UNL     1      -1.144  25.417  22.618  1.00  0.00     0.187 C
HETATM   10  O2  UNL     1      -1.917  26.513  22.139  1.00  0.00    -0.344 OA
HETATM   11  C5  UNL     1      -1.876  26.455  20.768  1.00  0.00     0.158 C
HETATM   12  C6  UNL     1      -3.276  26.384  20.177  1.00  0.00     0.078 C
HETATM   13  C7  UNL     1      -1.227  27.718  20.206  1.00  0.00     0.078 C
HETATM   14  O3  UNL     1      -1.205  25.315  20.372  1.00  0.00    -0.345 OA
BRANCH   9  15
HETATM   15  C2  UNL     1      -1.842  25.008  23.857  1.00  0.00    -0.031 C
HETATM   16  C1  UNL     1      -3.335  25.107  23.865  1.00  0.00     0.048 C
HETATM   17  C3  UNL     1      -1.273  24.561  24.952  1.00  0.00     0.136 C
BRANCH  17  18
HETATM   18  O1  UNL     1      -2.013  24.188  26.080  1.00  0.00    -0.372 OA
ATOM     19  H1  UNL     1      -2.743  23.583  26.032  1.00  0.00     0.216 HD
ENDBRANCH  17  18
ENDBRANCH   9  15
ENDBRANCH   1   8
BRANCH   3  20
HETATM   20  C11 UNL     1       1.893  22.371  18.545  1.00  0.00     0.200 C
BRANCH  20  21
HETATM   21  O5  UNL     1       3.269  22.279  18.410  1.00  0.00    -0.398 OA
ATOM     22  H5  UNL     1       3.559  21.494  17.959  1.00  0.00     0.209 HD
ENDBRANCH  20  21
ENDBRANCH   3  20
BRANCH   4  23
HETATM   23  N1  UNL     1       2.876  22.264  21.842  1.00  0.00    -0.328 N
HETATM   24  C13 UNL     1       4.232  21.860  21.743  1.00  0.00     0.260 C
HETATM   25  O6  UNL     1       4.540  21.020  20.854  1.00  0.00    -0.267 OA
ATOM     26  H1  UNL     1       2.629  22.942  22.563  1.00  0.00     0.165 HD
BRANCH  24  27
HETATM   27  C14 UNL     1       5.274  22.380  22.624  1.00  0.00     0.073 A
HETATM   28  C15 UNL     1       5.320  23.613  23.227  1.00  0.00     0.025 A
HETATM   29  C16 UNL     1       6.374  23.882  24.000  1.00  0.00     0.015 A
HETATM   30  C17 UNL     1       7.330  22.909  24.133  1.00  0.00    -0.020 A
HETATM   31  C18 UNL     1       8.605  22.973  24.938  1.00  0.00     0.056 C
HETATM   32  S1  UNL     1       6.711  21.647  23.166  1.00  0.00    -0.090 SA
ENDBRANCH  24  27
ENDBRANCH   4  23
TORSDOF 7
ENDMDL