MODEL 3
REMARK VINA RESULT: -7.636558496      1.825      4.991
REMARK  9 active torsions:
REMARK  status: ('A' for Active; 'I' for Inactive)
REMARK    1  A    between atoms: C2_2  and  O1_3
REMARK    2  A    between atoms: O1_3  and  C3_4
REMARK    3  A    between atoms: C3_4  and  C4_5
REMARK    4  A    between atoms: C6_7  and  C7_8
REMARK    5  A    between atoms: C7_8  and  C8_9
REMARK    6  A    between atoms: C8_9  and  O3_11
REMARK    7  A    between atoms: C10_13  and  O4_14
REMARK    8  A    between atoms: C14_19  and  O5_20
REMARK    9  A    between atoms: C17_24  and  O6_25
ROOT
HETATM    1  C4  UNL     1       2.975  21.289  19.526  1.00  0.00     0.211 C
HETATM    2  C5  UNL     1       4.193  20.447  19.826  1.00  0.00     0.050 C
HETATM    3  C6  UNL     1       5.396  21.365  20.267  1.00  0.00     0.074 C
HETATM    4  C10 UNL     1       5.554  21.072  21.697  1.00  0.00     0.065 C
HETATM    5  C11 UNL     1       5.825  22.160  22.669  1.00  0.00     0.038 A
HETATM    6  C12 UNL     1       7.064  22.302  23.239  1.00  0.00    -0.013 A
HETATM    7  C13 UNL     1       8.158  21.322  22.992  1.00  0.00     0.052 C
HETATM    8  C14 UNL     1       7.397  23.296  24.173  1.00  0.00     0.081 A
HETATM    9  C15 UNL     1       6.447  24.190  24.560  1.00  0.00     0.008 A
HETATM   10  C16 UNL     1       6.739  25.276  25.552  1.00  0.00     0.054 C
HETATM   11  C17 UNL     1       5.190  24.071  24.006  1.00  0.00     0.111 A
HETATM   12  C19 UNL     1       4.825  23.089  23.069  1.00  0.00     0.116 A
HETATM   13  O7  UNL     1       3.558  23.032  22.580  1.00  0.00    -0.345 OA
HETATM   14  C20 UNL     1       2.761  23.381  21.525  1.00  0.00     0.208 C
HETATM   15  C21 UNL     1       1.688  22.394  21.154  1.00  0.00     0.206 C
HETATM   16  C22 UNL     1       0.746  22.148  22.322  1.00  0.00     0.042 C
HETATM   17  N1  UNL     1       2.072  21.167  20.615  1.00  0.00    -0.063 N
ATOM     18  H11 UNL     1       2.456  20.558  21.338  1.00  0.00     0.278 HD
ATOM     19  H12 UNL     1       1.255  20.617  20.348  1.00  0.00     0.278 HD
ENDROOT
BRANCH   3  20
HETATM   20  C7  UNL     1       6.418  21.041  19.260  1.00  0.00     0.067 C
BRANCH  20  21
HETATM   21  C8  UNL     1       7.235  19.878  19.281  1.00  0.00     0.279 C
HETATM   22  O2  UNL     1       6.825  18.701  19.263  1.00  0.00    -0.261 OA
BRANCH  21  23
HETATM   23  O3  UNL     1       8.646  19.990  19.325  1.00  0.00    -0.323 OA
HETATM   24  C9  UNL     1       9.425  19.185  20.153  1.00  0.00     0.213 C
ENDBRANCH  21  23
ENDBRANCH  20  21
ENDBRANCH   3  20
BRANCH   4  25
HETATM   25  O4  UNL     1       6.329  19.937  21.980  1.00  0.00    -0.363 OA
ATOM     26  H4  UNL     1       7.085  19.823  21.416  1.00  0.00     0.217 HD
ENDBRANCH   4  25
BRANCH   1  27
HETATM   27  C3  UNL     1       2.322  20.827  18.209  1.00  0.00     0.200 C
BRANCH  27  28
HETATM   28  O1  UNL     1       1.489  21.817  17.755  1.00  0.00    -0.389 OA
BRANCH  28  29
HETATM   29  C2  UNL     1       0.658  21.445  16.734  1.00  0.00     0.163 C
HETATM   30  C1  UNL     1       1.135  20.078  16.237  1.00  0.00     0.033 C
ENDBRANCH  28  29
ENDBRANCH  27  28
ENDBRANCH   1  27
BRANCH   8  31
HETATM   31  O5  UNL     1       8.677  23.392  24.715  1.00  0.00    -0.359 OA
ATOM     32  H5  UNL     1       9.411  23.717  24.207  1.00  0.00     0.217 HD
ENDBRANCH   8  31
BRANCH  11  33
HETATM   33  O6  UNL     1       4.243  25.030  24.458  1.00  0.00    -0.352 OA
HETATM   34  C18 UNL     1       4.021  26.235  23.796  1.00  0.00     0.210 C
ENDBRANCH  11  33
TORSDOF 9
ENDMDL