MODEL 3
REMARK VINA RESULT: -9.565869231      0.087      1.342
REMARK  9 active torsions:
REMARK  status: ('A' for Active; 'I' for Inactive)
REMARK    1  A    between atoms: O1_1  and  N1_3
REMARK    2  A    between atoms: N1_3  and  N2_5
REMARK    3  A    between atoms: N2_5  and  C1_6
REMARK       I    between atoms: N2_5  and  C8_25
REMARK    4  A    between atoms: C1_6  and  C2_7
REMARK    5  A    between atoms: C3_9  and  C4_10
REMARK       I    between atoms: C4_10  and  N3_12
REMARK    6  A    between atoms: N3_12  and  N4_14
REMARK    7  A    between atoms: N4_14  and  C5_16
REMARK    8  A    between atoms: C7_22  and  O4_23
REMARK       I    between atoms: C8_25  and  N7_27
REMARK    9  A    between atoms: N7_27  and  C9_29
ROOT
HETATM    1  N2  UNL     1       7.172  23.620  24.217  1.00  0.00    -0.221 N
HETATM    2  C8  UNL     1       7.075  22.652  23.187  1.00  0.00     0.339 C
HETATM    3  O5  UNL     1       6.303  22.900  22.230  1.00  0.00    -0.245 OA
HETATM    4  N7  UNL     1       7.801  21.445  23.201  1.00  0.00    -0.332 N
ATOM      5  H7  UNL     1       8.427  21.253  23.983  1.00  0.00     0.165 HD
ENDROOT
BRANCH   1   6
HETATM    6  N1  UNL     1       8.019  23.366  25.285  1.00  0.00    -0.204 N
ATOM      7  H1  UNL     1       7.626  23.237  26.219  1.00  0.00     0.216 HD
BRANCH   6   8
HETATM    8  O1  UNL     1       9.255  23.294  25.122  1.00  0.00    -0.274 OA
ATOM      9  H1  UNL     1       9.835  23.953  25.485  1.00  0.00     0.246 HD
ENDBRANCH   6   8
ENDBRANCH   1   6
BRANCH   1  10
HETATM   10  C1  UNL     1       6.417  24.822  24.157  1.00  0.00     0.191 C
BRANCH  10  11
HETATM   11  C2  UNL     1       4.950  24.657  24.320  1.00  0.00     0.181 A
HETATM   12  O2  UNL     1       4.126  25.708  24.634  1.00  0.00    -0.364 OA
HETATM   13  C3  UNL     1       4.087  25.361  23.296  1.00  0.00     0.246 A
BRANCH  13  14
HETATM   14  C4  UNL     1       2.979  24.566  22.761  1.00  0.00     0.267 C
HETATM   15  O3  UNL     1       1.865  24.606  23.331  1.00  0.00    -0.269 OA
HETATM   16  N3  UNL     1       3.131  23.751  21.618  1.00  0.00    -0.266 N
ATOM     17  H3  UNL     1       3.772  24.075  20.894  1.00  0.00     0.190 HD
BRANCH  16  18
HETATM   18  N4  UNL     1       2.536  22.654  21.418  1.00  0.00    -0.279 N
ATOM     19  H4  UNL     1       1.954  22.245  22.149  1.00  0.00     0.189 HD
BRANCH  18  20
HETATM   20  C5  UNL     1       2.683  21.995  20.169  1.00  0.00     0.173 A
HETATM   21  N5  UNL     1       1.834  21.162  19.535  1.00  0.00    -0.334 N
HETATM   22  C6  UNL     1       2.350  20.749  18.369  1.00  0.00     0.184 A
ATOM     23  H5  UNL     1       0.920  20.884  19.893  1.00  0.00     0.168 HD
HETATM   24  N6  UNL     1       3.557  21.312  18.221  1.00  0.00    -0.330 N
HETATM   25  C7  UNL     1       3.784  22.081  19.313  1.00  0.00     0.187 A
ATOM     26  H6  UNL     1       4.189  21.184  17.431  1.00  0.00     0.168 HD
BRANCH  25  27
HETATM   27  O4  UNL     1       4.888  22.858  19.617  1.00  0.00    -0.343 OA
ATOM     28  H4  UNL     1       4.837  23.805  19.669  1.00  0.00     0.219 HD
ENDBRANCH  25  27
ENDBRANCH  18  20
ENDBRANCH  16  18
ENDBRANCH  13  14
ENDBRANCH  10  11
ENDBRANCH   1  10
BRANCH   4  29
HETATM   29  C9  UNL     1       7.683  20.482  22.150  1.00  0.00     0.035 C
HETATM   30  C10 UNL     1       6.184  20.308  21.777  1.00  0.00     0.035 C
HETATM   31  C11 UNL     1       6.091  19.377  20.616  1.00  0.00    -0.012 C
HETATM   32  C12 UNL     1       6.802  19.901  19.387  1.00  0.00     0.009 C
HETATM   33  C16 UNL     1       6.631  18.012  20.917  1.00  0.00     0.009 C
HETATM   34  C13 UNL     1       8.253  20.107  19.725  1.00  0.00    -0.012 C
HETATM   35  C14 UNL     1       8.874  18.809  20.157  1.00  0.00     0.009 C
HETATM   36  C18 UNL     1       8.313  21.057  20.901  1.00  0.00     0.035 C
HETATM   37  C15 UNL     1       8.102  18.218  21.290  1.00  0.00    -0.012 C
HETATM   38  C17 UNL     1       8.155  19.110  22.503  1.00  0.00     0.035 C
ENDBRANCH   4  29
TORSDOF 9
ENDMDL