MODEL 1
REMARK VINA RESULT: -7.766440329      0.000      0.000
REMARK  9 active torsions:
REMARK  status: ('A' for Active; 'I' for Inactive)
REMARK    1  A    between atoms: O1_2  and  C2_3
REMARK    2  A    between atoms: C2_3  and  O3_5
REMARK    3  A    between atoms: O3_5  and  C3_6
REMARK    4  A    between atoms: C8_13  and  C10_15
REMARK    5  A    between atoms: C10_15  and  C11_16
REMARK    6  A    between atoms: C15_21  and  O7_22
REMARK    7  A    between atoms: C16_24  and  O8_25
REMARK    8  A    between atoms: C17_27  and  C18_28
REMARK    9  A    between atoms: C18_28  and  C19_29
ROOT
HETATM    1  C3  UNL     1       3.306  22.079  20.148  1.00  0.00     0.100 C
HETATM    2  C4  UNL     1       2.924  20.970  20.829  1.00  0.00     0.089 C
HETATM    3  C5  UNL     1       3.508  20.828  22.155  1.00  0.00     0.186 C
HETATM    4  O4  UNL     1       2.968  20.006  22.955  1.00  0.00    -0.290 OA
HETATM    5  C6  UNL     1       4.689  21.622  22.542  1.00  0.00     0.130 C
HETATM    6  C7  UNL     1       5.567  20.911  23.547  1.00  0.00     0.055 C
HETATM    7  O5  UNL     1       4.142  22.793  23.128  1.00  0.00    -0.357 OA
HETATM    8  C8  UNL     1       3.800  23.645  22.077  1.00  0.00     0.102 C
HETATM    9  C9  UNL     1       2.341  23.998  22.135  1.00  0.00     0.050 C
HETATM   10  C16 UNL     1       4.260  23.020  20.804  1.00  0.00     0.145 C
HETATM   11  C17 UNL     1       5.410  22.143  21.343  1.00  0.00     0.075 C
ENDROOT
BRANCH   8  12
HETATM   12  C10 UNL     1       4.676  24.882  22.283  1.00  0.00     0.109 C
BRANCH  12  13
HETATM   13  C11 UNL     1       4.714  25.398  23.645  1.00  0.00     0.089 A
HETATM   14  O6  UNL     1       4.014  26.431  24.126  1.00  0.00    -0.324 OA
HETATM   15  C12 UNL     1       4.273  26.646  25.379  1.00  0.00     0.151 A
HETATM   16  C13 UNL     1       5.198  25.723  25.812  1.00  0.00    -0.004 A
HETATM   17  C14 UNL     1       5.785  25.588  27.162  1.00  0.00     0.053 C
HETATM   18  C15 UNL     1       5.476  24.934  24.715  1.00  0.00     0.103 A
BRANCH  18  19
HETATM   19  O7  UNL     1       6.355  23.890  24.744  1.00  0.00    -0.358 OA
ATOM     20  H7  UNL     1       6.209  23.001  25.045  1.00  0.00     0.217 HD
ENDBRANCH  18  19
ENDBRANCH  12  13
ENDBRANCH   8  12
BRANCH  10  21
HETATM   21  O8  UNL     1       4.760  23.944  19.890  1.00  0.00    -0.379 OA
ATOM     22  H8  UNL     1       4.491  24.827  20.115  1.00  0.00     0.211 HD
ENDBRANCH  10  21
BRANCH   1  23
HETATM   23  O3  UNL     1       2.786  22.238  18.907  1.00  0.00    -0.257 OA
BRANCH  23  24
HETATM   24  C2  UNL     1       1.556  22.426  18.407  1.00  0.00     0.411 C
HETATM   25  O2  UNL     1       0.770  23.257  18.902  1.00  0.00    -0.229 OA
BRANCH  24  26
HETATM   26  O1  UNL     1       1.047  21.716  17.296  1.00  0.00    -0.303 OA
HETATM   27  C1  UNL     1       1.302  20.332  17.156  1.00  0.00     0.215 C
ENDBRANCH  24  26
ENDBRANCH  23  24
ENDBRANCH   1  23
BRANCH  11  28
HETATM   28  C18 UNL     1       5.959  21.194  20.364  1.00  0.00     0.039 C
BRANCH  28  29
HETATM   29  C19 UNL     1       7.455  21.074  20.378  1.00  0.00    -0.024 C
HETATM   30  C20 UNL     1       8.097  19.965  20.721  1.00  0.00    -0.091 C
HETATM   31  C21 UNL     1       9.594  19.974  20.695  1.00  0.00     0.042 C
HETATM   32  C22 UNL     1       7.406  18.736  21.119  1.00  0.00     0.042 C
ENDBRANCH  28  29
ENDBRANCH  11  28
TORSDOF 9
ENDMDL