MODEL 3
REMARK VINA RESULT: -7.578469938      1.581      2.311
REMARK  11 active torsions:
REMARK  status: ('A' for Active; 'I' for Inactive)
REMARK    1  A    between atoms: C2_2  and  O2_4
REMARK    2  A    between atoms: O2_4  and  C3_5
REMARK    3  A    between atoms: C4_6  and  O3_7
REMARK    4  A    between atoms: O3_7  and  C5_8
REMARK    5  A    between atoms: C5_8  and  C6_10
REMARK    6  A    between atoms: C9_13  and  C10_14
REMARK    7  A    between atoms: C11_15  and  C12_16
REMARK    8  A    between atoms: C19_24  and  C20_25
REMARK    9  A    between atoms: C20_25  and  O6_26
REMARK   10  A    between atoms: C21_28  and  O7_29
REMARK   11  A    between atoms: C22_31  and  O8_32
ROOT
HETATM    1  C3  UNL     1       1.821  22.321  18.526  1.00  0.00     0.218 C
HETATM    2  C4  UNL     1       0.996  22.542  19.774  1.00  0.00     0.302 C
HETATM    3  O5  UNL     1      -0.340  22.533  19.487  1.00  0.00    -0.348 OA
HETATM    4  C19 UNL     1      -0.659  22.417  18.161  1.00  0.00     0.179 C
HETATM    5  C21 UNL     1      -0.053  21.198  17.490  1.00  0.00     0.180 C
HETATM    6  C22 UNL     1       1.400  21.003  17.951  1.00  0.00     0.183 C
ENDROOT
BRANCH   2   7
HETATM    7  O3  UNL     1       1.416  23.667  20.504  1.00  0.00    -0.283 OA
BRANCH   7   8
HETATM    8  C5  UNL     1       1.914  23.611  21.791  1.00  0.00     0.296 C
HETATM    9  O4  UNL     1       1.194  24.093  22.691  1.00  0.00    -0.259 OA
BRANCH   8  10
HETATM   10  C6  UNL     1       3.221  23.002  21.997  1.00  0.00     0.045 A
HETATM   11  C7  UNL     1       4.391  23.725  21.766  1.00  0.00     0.019 A
HETATM   12  C8  UNL     1       5.645  23.183  21.949  1.00  0.00     0.012 A
HETATM   13  C9  UNL     1       5.792  21.880  22.375  1.00  0.00    -0.036 A
HETATM   14  C16 UNL     1       4.628  21.167  22.602  1.00  0.00     0.019 A
HETATM   15  C17 UNL     1       3.378  21.718  22.416  1.00  0.00    -0.045 A
HETATM   16  C18 UNL     1       2.215  20.836  22.698  1.00  0.00     0.049 C
BRANCH  13  17
HETATM   17  C10 UNL     1       7.088  21.258  22.585  1.00  0.00     0.008 C
HETATM   18  C11 UNL     1       7.929  20.916  21.656  1.00  0.00    -0.017 C
BRANCH  18  19
HETATM   19  C12 UNL     1       9.236  20.283  21.955  1.00  0.00    -0.034 C
HETATM   20  C13 UNL     1      10.103  21.161  22.822  1.00  0.00     0.018 C
HETATM   21  C14 UNL     1      10.022  20.020  20.674  1.00  0.00     0.018 C
HETATM   22  C15 UNL     1       8.984  18.951  22.626  1.00  0.00     0.018 C
ENDBRANCH  18  19
ENDBRANCH  13  17
ENDBRANCH   8  10
ENDBRANCH   7   8
ENDBRANCH   2   7
BRANCH   1  23
HETATM   23  O2  UNL     1       3.182  22.496  18.728  1.00  0.00    -0.309 OA
BRANCH  23  24
HETATM   24  C2  UNL     1       4.112  21.501  18.893  1.00  0.00     0.255 C
HETATM   25  C1  UNL     1       5.545  21.738  18.574  1.00  0.00     0.126 C
HETATM   26  O1  UNL     1       3.664  20.427  19.316  1.00  0.00    -0.266 OA
ENDBRANCH  23  24
ENDBRANCH   1  23
BRANCH   6  27
HETATM   27  O8  UNL     1       2.116  20.654  16.810  1.00  0.00    -0.390 OA
ATOM     28  H8  UNL     1       2.904  20.161  17.002  1.00  0.00     0.210 HD
ENDBRANCH   6  27
BRANCH   4  29
HETATM   29  C20 UNL     1      -2.180  22.198  18.100  1.00  0.00     0.198 C
BRANCH  29  30
HETATM   30  O6  UNL     1      -2.476  20.855  17.868  1.00  0.00    -0.398 OA
ATOM     31  H6  UNL     1      -1.729  20.406  17.489  1.00  0.00     0.209 HD
ENDBRANCH  29  30
ENDBRANCH   4  29
BRANCH   5  32
HETATM   32  O7  UNL     1      -0.126  21.399  16.122  1.00  0.00    -0.390 OA
ATOM     33  H7  UNL     1      -0.443  22.284  15.981  1.00  0.00     0.210 HD
ENDBRANCH   5  32
TORSDOF 11
ENDMDL