MODEL 5
REMARK VINA RESULT: -7.583269922      1.240      1.794
REMARK  10 active torsions:
REMARK  status: ('A' for Active; 'I' for Inactive)
REMARK    1  A    between atoms: C2_2  and  C5_8
REMARK    2  A    between atoms: C3_3  and  C4_4
REMARK    3  A    between atoms: C4_4  and  N1_5
REMARK    4  A    between atoms: C5_8  and  C6_9
REMARK    5  A    between atoms: C6_9  and  C7_10
REMARK    6  A    between atoms: C7_10  and  C8_11
REMARK    7  A    between atoms: C9_12  and  O1_13
REMARK    8  A    between atoms: C11_16  and  O2_17
REMARK    9  A    between atoms: O2_17  and  S1_18
REMARK   10  A    between atoms: C13_24  and  C14_25
ROOT
HETATM    1  C8  UNL     1       4.119  23.576  21.053  1.00  0.00     0.069 C
HETATM    2  C9  UNL     1       2.602  23.505  20.987  1.00  0.00     0.131 C
HETATM    3  C10 UNL     1       2.115  22.120  20.630  1.00  0.00     0.068 C
HETATM    4  C11 UNL     1       2.660  21.637  19.309  1.00  0.00     0.179 C
HETATM    5  C12 UNL     1       4.093  22.038  19.166  1.00  0.00     0.185 C
HETATM    6  O6  UNL     1       4.936  21.040  18.752  1.00  0.00    -0.346 OA
HETATM    7  C13 UNL     1       6.186  21.529  19.129  1.00  0.00     0.302 C
HETATM    8  O7  UNL     1       6.003  22.273  20.289  1.00  0.00    -0.348 OA
HETATM    9  C18 UNL     1       4.647  22.260  20.582  1.00  0.00     0.166 C
ENDROOT
BRANCH   1  10
HETATM   10  C7  UNL     1       4.601  23.958  22.388  1.00  0.00    -0.017 C
BRANCH  10  11
HETATM   11  C6  UNL     1       5.332  23.184  23.162  1.00  0.00    -0.003 C
BRANCH  11  12
HETATM   12  C5  UNL     1       6.719  23.507  23.440  1.00  0.00     0.007 C
BRANCH  12  13
HETATM   13  C2  UNL     1       7.167  23.490  24.701  1.00  0.00    -0.053 C
HETATM   14  C1  UNL     1       8.524  23.010  24.993  1.00  0.00     0.049 C
HETATM   15  C3  UNL     1       6.287  23.948  25.749  1.00  0.00     0.081 C
BRANCH  15  16
HETATM   16  C4  UNL     1       5.864  25.173  25.730  1.00  0.00    -0.048 C
BRANCH  16  17
HETATM   17  N1  UNL     1       5.284  26.322  25.790  1.00  0.00    -0.366 N
ATOM     18  H12 UNL     1       4.634  25.892  26.448  1.00  0.00     0.165 HD
ATOM     19  H11 UNL     1       4.930  27.277  25.738  1.00  0.00     0.165 HD
ENDBRANCH  16  17
ENDBRANCH  15  16
ENDBRANCH  12  13
ENDBRANCH  11  12
ENDBRANCH  10  11
ENDBRANCH   1  10
BRANCH   2  20
HETATM   20  O1  UNL     1       2.055  24.474  20.169  1.00  0.00    -0.395 OA
ATOM     21  H1  UNL     1       1.654  24.112  19.388  1.00  0.00     0.210 HD
ENDBRANCH   2  20
BRANCH   4  22
HETATM   22  O2  UNL     1       1.939  22.317  18.310  1.00  0.00    -0.249 OA
BRANCH  22  23
HETATM   23  S1  UNL     1       0.818  21.314  17.580  1.00  0.00     0.252 S
HETATM   24  O3  UNL     1       0.583  21.846  16.189  1.00  0.00    -0.572 OA
HETATM   25  O4  UNL     1       1.398  19.933  17.415  1.00  0.00    -0.572 OA
HETATM   26  O5  UNL     1      -0.634  21.276  18.400  1.00  0.00    -0.572 OA
ENDBRANCH  22  23
ENDBRANCH   4  22
BRANCH   7  27
HETATM   27  C14 UNL     1       7.098  20.388  19.520  1.00  0.00     0.037 A
HETATM   28  C15 UNL     1       8.379  20.471  19.991  1.00  0.00     0.020 A
HETATM   29  C16 UNL     1       9.010  19.319  20.279  1.00  0.00     0.008 A
HETATM   30  C17 UNL     1       8.313  18.159  20.074  1.00  0.00     0.050 A
HETATM   31  S2  UNL     1       6.809  18.709  19.491  1.00  0.00    -0.102 SA
ENDBRANCH   7  27
TORSDOF 10
ENDMDL