MODEL 4
REMARK VINA RESULT: -7.857083457      2.509      6.391
REMARK  10 active torsions:
REMARK  status: ('A' for Active; 'I' for Inactive)
REMARK    1  A    between atoms: C2_2  and  O1_4
REMARK    2  A    between atoms: O1_4  and  C4_5
REMARK    3  A    between atoms: C4_5  and  C5_7
REMARK    4  A    between atoms: C8_10  and  C9_11
REMARK    5  A    between atoms: C9_11  and  O3_12
REMARK    6  A    between atoms: O3_12  and  C10_13
REMARK    7  A    between atoms: C10_13  and  O4_14
REMARK    8  A    between atoms: C10_13  and  C11_16
REMARK    9  A    between atoms: C21_28  and  O7_29
REMARK   10  A    between atoms: C22_31  and  O8_32
ROOT
HETATM    1  C5  UNL     1       3.297  22.158  19.812  1.00  0.00     0.137 C
HETATM    2  C6  UNL     1       4.203  21.646  18.680  1.00  0.00     0.031 C
HETATM    3  C7  UNL     1       5.086  20.628  19.308  1.00  0.00     0.017 C
HETATM    4  C8  UNL     1       5.229  20.788  20.822  1.00  0.00     0.026 C
HETATM    5  C15 UNL     1       5.471  22.235  21.121  1.00  0.00     0.074 C
HETATM    6  C16 UNL     1       4.212  22.954  20.683  1.00  0.00     0.153 C
HETATM    7  O6  UNL     1       4.019  24.079  21.042  1.00  0.00    -0.296 OA
HETATM    8  C17 UNL     1       5.600  22.529  22.586  1.00  0.00    -0.006 C
HETATM    9  C18 UNL     1       7.049  22.533  23.055  1.00  0.00     0.011 C
HETATM   10  C19 UNL     1       4.803  21.640  23.484  1.00  0.00     0.008 C
HETATM   11  C20 UNL     1       3.642  21.061  22.762  1.00  0.00     0.042 C
HETATM   12  C21 UNL     1       3.927  20.416  21.452  1.00  0.00     0.096 C
HETATM   13  C22 UNL     1       2.810  20.889  20.504  1.00  0.00     0.179 C
ENDROOT
BRANCH   4  14
HETATM   14  C9  UNL     1       6.357  19.870  21.195  1.00  0.00     0.185 C
BRANCH  14  15
HETATM   15  O3  UNL     1       6.521  18.847  20.246  1.00  0.00    -0.354 OA
BRANCH  15  16
HETATM   16  C10 UNL     1       7.756  18.260  20.313  1.00  0.00     0.315 C
BRANCH  16  17
HETATM   17  O4  UNL     1       8.187  17.771  19.066  1.00  0.00    -0.365 OA
ATOM     18  H4  UNL     1       8.831  18.338  18.657  1.00  0.00     0.213 HD
ENDBRANCH  16  17
BRANCH  16  19
HETATM   19  C11 UNL     1       8.795  19.193  20.881  1.00  0.00     0.107 A
HETATM   20  C12 UNL     1       9.690  19.959  20.175  1.00  0.00     0.040 A
HETATM   21  C13 UNL     1      10.442  20.650  21.084  1.00  0.00     0.027 A
HETATM   22  C14 UNL     1       9.982  20.286  22.323  1.00  0.00     0.142 A
HETATM   23  O5  UNL     1       9.011  19.424  22.147  1.00  0.00    -0.322 OA
ENDBRANCH  16  19
ENDBRANCH  15  16
ENDBRANCH  14  15
ENDBRANCH   4  14
BRANCH  12  24
HETATM   24  O7  UNL     1       3.858  19.023  21.564  1.00  0.00    -0.386 OA
ATOM     25  H7  UNL     1       2.968  18.776  21.785  1.00  0.00     0.210 HD
ENDBRANCH  12  24
BRANCH  13  26
HETATM   26  O8  UNL     1       1.636  21.085  21.207  1.00  0.00    -0.391 OA
ATOM     27  H8  UNL     1       0.871  20.780  20.732  1.00  0.00     0.210 HD
ENDBRANCH  13  26
BRANCH   1  28
HETATM   28  C4  UNL     1       2.173  22.937  19.290  1.00  0.00     0.278 C
HETATM   29  O2  UNL     1       1.603  23.837  19.985  1.00  0.00    -0.264 OA
BRANCH  28  30
HETATM   30  O1  UNL     1       1.668  22.746  18.025  1.00  0.00    -0.316 OA
BRANCH  30  31
HETATM   31  C2  UNL     1       0.589  21.917  17.762  1.00  0.00     0.123 C
HETATM   32  C1  UNL     1       1.059  20.626  17.129  1.00  0.00     0.040 C
HETATM   33  C3  UNL     1      -0.492  22.545  16.925  1.00  0.00     0.040 C
ENDBRANCH  30  31
ENDBRANCH  28  30
ENDBRANCH   1  28
TORSDOF 10
ENDMDL