MODEL 4
REMARK VINA RESULT: -8.122818583      0.945      1.477
REMARK  9 active torsions:
REMARK  status: ('A' for Active; 'I' for Inactive)
REMARK    1  A    between atoms: C2_2  and  S1_4
REMARK    2  A    between atoms: S1_4  and  C4_5
REMARK    3  A    between atoms: C4_5  and  C7_8
REMARK    4  A    between atoms: C9_10  and  O1_11
REMARK    5  A    between atoms: C15_19  and  O3_20
REMARK    6  A    between atoms: O3_20  and  C16_21
REMARK    7  A    between atoms: C18_25  and  C19_26
REMARK    8  A    between atoms: C19_26  and  O6_27
REMARK    9  A    between atoms: C20_29  and  O7_30
ROOT
HETATM    1  C7  UNL     1       2.486  22.543  21.137  1.00  0.00    -0.036 A
HETATM    2  C8  UNL     1       2.695  22.152  19.850  1.00  0.00     0.046 A
HETATM    3  C9  UNL     1       3.926  21.550  19.517  1.00  0.00     0.081 A
HETATM    4  C10 UNL     1       4.912  21.353  20.460  1.00  0.00     0.060 A
HETATM    5  C11 UNL     1       4.682  21.754  21.759  1.00  0.00     0.028 A
HETATM    6  C12 UNL     1       3.484  22.339  22.089  1.00  0.00     0.025 A
HETATM    7  C13 UNL     1       5.715  21.528  22.722  1.00  0.00     0.171 C
HETATM    8  O2  UNL     1       5.685  22.154  23.825  1.00  0.00    -0.292 OA
HETATM    9  C14 UNL     1       6.863  20.599  22.551  1.00  0.00     0.141 C
HETATM   10  C15 UNL     1       8.130  21.453  22.434  1.00  0.00     0.182 C
HETATM   11  C17 UNL     1       8.505  20.651  21.248  1.00  0.00    -0.009 C
HETATM   12  C18 UNL     1       9.672  20.485  20.643  1.00  0.00     0.008 C
HETATM   13  C20 UNL     1       7.118  20.163  21.155  1.00  0.00     0.162 C
HETATM   14  C21 UNL     1       6.227  20.787  20.152  1.00  0.00     0.202 C
HETATM   15  O8  UNL     1       6.603  20.848  18.952  1.00  0.00    -0.288 OA
ENDROOT
BRANCH   1  16
HETATM   16  C4  UNL     1       1.255  23.236  21.566  1.00  0.00     0.032 C
HETATM   17  C5  UNL     1       1.542  24.235  22.631  1.00  0.00     0.032 C
HETATM   18  C6  UNL     1       0.947  24.138  20.294  1.00  0.00     0.032 C
BRANCH  16  19
HETATM   19  S1  UNL     1      -0.204  22.263  21.734  1.00  0.00    -0.121 SA
BRANCH  19  20
HETATM   20  C2  UNL     1      -1.621  22.949  22.468  1.00  0.00    -0.034 C
HETATM   21  C1  UNL     1      -1.887  22.925  23.735  1.00  0.00     0.026 C
HETATM   22  C3  UNL     1      -2.601  23.670  21.568  1.00  0.00     0.055 C
ENDBRANCH  19  20
ENDBRANCH  16  19
ENDBRANCH   1  16
BRANCH   3  23
HETATM   23  O1  UNL     1       4.073  21.178  18.213  1.00  0.00    -0.360 OA
ATOM     24  H1  UNL     1       4.963  21.002  17.929  1.00  0.00     0.217 HD
ENDBRANCH   3  23
BRANCH  13  25
HETATM   25  O7  UNL     1       7.078  18.746  21.077  1.00  0.00    -0.376 OA
ATOM     26  H7  UNL     1       7.907  18.417  20.749  1.00  0.00     0.211 HD
ENDBRANCH  13  25
BRANCH  10  27
HETATM   27  O3  UNL     1       8.934  21.363  23.569  1.00  0.00    -0.285 OA
BRANCH  27  28
HETATM   28  C16 UNL     1       9.234  22.505  24.330  1.00  0.00     0.333 C
HETATM   29  O4  UNL     1      10.253  23.149  23.991  1.00  0.00    -0.624 OA
HETATM   30  O5  UNL     1       8.451  22.882  25.380  1.00  0.00    -0.624 OA
ENDBRANCH  27  28
ENDBRANCH  10  27
BRANCH  12  31
HETATM   31  C19 UNL     1       9.863  19.626  19.446  1.00  0.00     0.192 C
BRANCH  31  32
HETATM   32  O6  UNL     1       9.221  18.387  19.649  1.00  0.00    -0.397 OA
ATOM     33  H6  UNL     1       9.690  17.707  19.178  1.00  0.00     0.209 HD
ENDBRANCH  31  32
ENDBRANCH  12  31
TORSDOF 9
ENDMDL