MODEL 4
REMARK VINA RESULT: -7.940430734      1.126      1.935
REMARK  6 active torsions:
REMARK  status: ('A' for Active; 'I' for Inactive)
REMARK    1  A    between atoms: C4_6  and  C5_7
REMARK    2  A    between atoms: C5_7  and  N3_11
REMARK    3  A    between atoms: N3_11  and  C6_13
REMARK    4  A    between atoms: C6_13  and  C7_14
REMARK    5  A    between atoms: C7_14  and  O1_15
REMARK    6  A    between atoms: O1_15  and  C8_16
ROOT
HETATM    1  C5  UNL     1      69.390  -8.595  33.307  1.00  0.00     0.140 C
HETATM    2  N2  UNL     1      70.569  -8.168  33.613  1.00  0.00    -0.383 N
ATOM      3  H21 UNL     1      70.757  -7.184  33.808  1.00  0.00     0.157 HD
ATOM      4  H22 UNL     1      71.330  -8.846  33.661  1.00  0.00     0.157 HD
ENDROOT
BRANCH   1   5
HETATM    5  C4  UNL     1      69.122 -10.000  33.028  1.00  0.00     0.149 A
HETATM    6  N1  UNL     1      67.959 -10.650  33.188  1.00  0.00    -0.347 N
HETATM    7  C3  UNL     1      68.089 -11.957  32.827  1.00  0.00     0.114 A
ATOM      8  H1  UNL     1      67.098 -10.225  33.532  1.00  0.00     0.167 HD
HETATM    9  C2  UNL     1      69.400 -12.118  32.423  1.00  0.00     0.022 A
HETATM   10  C1  UNL     1      69.955 -13.411  31.945  1.00  0.00     0.069 C
HETATM   11  N4  UNL     1      69.983 -10.932  32.558  1.00  0.00    -0.342 N
ATOM     12  H4  UNL     1      70.961 -10.747  32.334  1.00  0.00     0.167 HD
ENDBRANCH   1   5
BRANCH   1  13
HETATM   13  N3  UNL     1      68.338  -7.657  33.240  1.00  0.00    -0.372 N
ATOM     14  H3  UNL     1      67.467  -7.885  32.762  1.00  0.00     0.161 HD
BRANCH  13  15
HETATM   15  C6  UNL     1      68.521  -6.359  33.865  1.00  0.00     0.148 C
BRANCH  15  16
HETATM   16  C7  UNL     1      68.567  -5.335  32.778  1.00  0.00     0.195 C
BRANCH  16  17
HETATM   17  O1  UNL     1      68.579  -4.020  33.127  1.00  0.00    -0.350 OA
BRANCH  17  18
HETATM   18  C8  UNL     1      69.294  -2.997  32.603  1.00  0.00     0.068 A
HETATM   19  C9  UNL     1      68.975  -1.674  32.700  1.00  0.00     0.037 A
HETATM   20  C10 UNL     1      69.753  -0.682  32.134  1.00  0.00     0.003 A
HETATM   21  C11 UNL     1      70.884  -1.055  31.453  1.00  0.00     0.000 A
HETATM   22  C12 UNL     1      71.239  -2.389  31.332  1.00  0.00     0.003 A
HETATM   23  C13 UNL     1      70.453  -3.340  31.900  1.00  0.00     0.037 A
ENDBRANCH  17  18
ENDBRANCH  16  17
ENDBRANCH  15  16
ENDBRANCH  13  15
ENDBRANCH   1  13
TORSDOF 6
ENDMDL