MODEL 5
REMARK VINA RESULT: -7.960123016      1.798      2.358
REMARK  7 active torsions:
REMARK  status: ('A' for Active; 'I' for Inactive)
REMARK    1  A    between atoms: N1_1  and  C1_5
REMARK    2  A    between atoms: C1_5  and  C2_6
REMARK    3  A    between atoms: C1_5  and  C12_16
REMARK    4  A    between atoms: C2_6  and  C3_7
REMARK    5  A    between atoms: C12_16  and  O1_17
REMARK    6  A    between atoms: C12_16  and  N2_19
REMARK    7  A    between atoms: N2_19  and  C13_21
ROOT
HETATM    1  C1  UNL     1      69.852  -9.116  32.335  1.00  0.00     0.235 C
ENDROOT
BRANCH   1   2
HETATM    2  N1  UNL     1      71.066  -9.299  31.501  1.00  0.00    -0.071 N
ATOM      3  H13 UNL     1      71.863  -8.772  31.858  1.00  0.00     0.274 HD
ATOM      4  H12 UNL     1      71.459 -10.235  31.591  1.00  0.00     0.274 HD
ATOM      5  H11 UNL     1      70.850  -9.063  30.532  1.00  0.00     0.274 HD
ENDBRANCH   1   2
BRANCH   1   6
HETATM    6  C2  UNL     1      70.192  -8.287  33.533  1.00  0.00     0.075 C
BRANCH   6   7
HETATM    7  C3  UNL     1      69.721  -6.871  33.332  1.00  0.00    -0.056 A
HETATM    8  C4  UNL     1      68.501  -6.489  33.844  1.00  0.00     0.007 A
HETATM    9  C5  UNL     1      68.089  -5.185  33.672  1.00  0.00     0.008 A
HETATM   10  C6  UNL     1      68.899  -4.259  32.986  1.00  0.00    -0.052 A
HETATM   11  C7  UNL     1      70.113  -4.644  32.478  1.00  0.00    -0.051 A
HETATM   12  C11 UNL     1      68.695  -2.825  32.663  1.00  0.00     0.039 C
HETATM   13  C8  UNL     1      70.502  -5.961  32.664  1.00  0.00     0.014 A
HETATM   14  C9  UNL     1      70.798  -3.480  31.806  1.00  0.00     0.039 C
HETATM   15  C10 UNL     1      70.100  -2.306  32.507  1.00  0.00     0.009 C
ENDBRANCH   6   7
ENDBRANCH   1   6
BRANCH   1  16
HETATM   16  C12 UNL     1      69.357 -10.495  32.576  1.00  0.00     0.244 C
BRANCH  16  17
HETATM   17  O1  UNL     1      68.571 -10.422  33.766  1.00  0.00    -0.375 OA
ATOM     18  H1  UNL     1      68.417  -9.496  33.916  1.00  0.00     0.212 HD
ENDBRANCH  16  17
BRANCH  16  19
HETATM   19  N2  UNL     1      70.193 -11.592  32.541  1.00  0.00    -0.391 N
ATOM     20  H2  UNL     1      71.179 -11.462  32.766  1.00  0.00     0.156 HD
BRANCH  19  21
HETATM   21  C13 UNL     1      69.740 -12.890  32.204  1.00  0.00     0.079 A
HETATM   22  C14 UNL     1      70.652 -14.072  32.566  1.00  0.00     0.027 A
HETATM   23  C15 UNL     1      70.453 -13.660  31.128  1.00  0.00     0.027 A
ENDBRANCH  19  21
ENDBRANCH  16  19
ENDBRANCH   1  16
TORSDOF 7
ENDMDL