MODEL 3
REMARK VINA RESULT: -6.579401234      0.988      1.250
REMARK  7 active torsions:
REMARK  status: ('A' for Active; 'I' for Inactive)
REMARK    1  A    between atoms: C2_2  and  C3_3
REMARK    2  A    between atoms: C3_3  and  N1_4
REMARK    3  A    between atoms: C3_3  and  N2_7
REMARK    4  A    between atoms: N2_7  and  C4_9
REMARK    5  A    between atoms: C4_9  and  C5_10
REMARK    6  A    between atoms: C5_10  and  N3_11
REMARK    7  A    between atoms: N3_11  and  C6_13
ROOT
HETATM    1  C6  UNL     1      69.537  -3.462  32.650  1.00  0.00     0.114 A
HETATM    2  N4  UNL     1      70.671  -4.006  32.188  1.00  0.00    -0.338 N
ATOM      3  H4  UNL     1      70.875  -4.986  32.386  1.00  0.00     0.168 HD
HETATM    4  C7  UNL     1      71.557  -3.274  31.458  1.00  0.00     0.182 A
HETATM    5  N5  UNL     1      71.288  -1.991  31.202  1.00  0.00    -0.352 N
ATOM      6  H5  UNL     1      71.962  -1.455  30.654  1.00  0.00     0.166 HD
HETATM    7  C8  UNL     1      70.179  -1.371  31.625  1.00  0.00     0.047 A
HETATM    8  C9  UNL     1      69.919  -0.046  31.349  1.00  0.00     0.030 A
HETATM    9  C10 UNL     1      68.752   0.574  31.804  1.00  0.00     0.002 A
HETATM   10  C11 UNL     1      67.853  -0.167  32.543  1.00  0.00     0.001 A
HETATM   11  C12 UNL     1      68.142  -1.490  32.802  1.00  0.00     0.017 A
HETATM   12  C13 UNL     1      69.279  -2.135  32.372  1.00  0.00     0.034 A
ENDROOT
BRANCH   1  13
HETATM   13  N3  UNL     1      68.710  -4.159  33.335  1.00  0.00    -0.374 N
ATOM     14  H3  UNL     1      68.379  -3.745  34.206  1.00  0.00     0.161 HD
BRANCH  13  15
HETATM   15  C5  UNL     1      68.201  -5.454  33.011  1.00  0.00     0.141 C
BRANCH  15  16
HETATM   16  C4  UNL     1      68.389  -6.481  34.109  1.00  0.00     0.141 C
BRANCH  16  17
HETATM   17  N2  UNL     1      69.567  -7.277  33.945  1.00  0.00    -0.375 N
ATOM     18  H2  UNL     1      70.449  -6.949  34.341  1.00  0.00     0.161 HD
BRANCH  17  19
HETATM   19  C3  UNL     1      69.540  -8.509  33.248  1.00  0.00     0.093 C
BRANCH  19  20
HETATM   20  C2  UNL     1      69.996  -8.565  31.867  1.00  0.00     0.037 C
HETATM   21  C1  UNL     1      69.423  -7.806  30.935  1.00  0.00     0.015 C
ENDBRANCH  19  20
BRANCH  19  22
HETATM   22  N1  UNL     1      69.119  -9.594  33.813  1.00  0.00    -0.386 N
ATOM     23  H12 UNL     1      69.766 -10.329  34.100  1.00  0.00     0.157 HD
ATOM     24  H11 UNL     1      68.118  -9.712  33.970  1.00  0.00     0.157 HD
ENDBRANCH  19  22
ENDBRANCH  17  19
ENDBRANCH  16  17
ENDBRANCH  15  16
ENDBRANCH  13  15
ENDBRANCH   1  13
TORSDOF 7
ENDMDL