MODEL 5
REMARK VINA RESULT: -8.234460258      1.152      1.429
REMARK  6 active torsions:
REMARK  status: ('A' for Active; 'I' for Inactive)
REMARK    1  A    between atoms: O1_2  and  C2_3
REMARK    2  A    between atoms: C6_7  and  C7_8
REMARK    3  A    between atoms: C7_8  and  C8_9
REMARK    4  A    between atoms: C8_9  and  N1_10
REMARK    5  A    between atoms: N1_10  and  C9_12
REMARK    6  A    between atoms: C12_17  and  N3_18
ROOT
HETATM    1  N1  UNL     1      68.865  -6.622  31.719  1.00  0.00    -0.355 N
ATOM      2  H1  UNL     1      68.873  -6.976  30.763  1.00  0.00     0.166 HD
ENDROOT
BRANCH   1   3
HETATM    3  C8  UNL     1      68.522  -5.299  31.595  1.00  0.00     0.067 C
BRANCH   3   4
HETATM    4  C7  UNL     1      68.869  -4.458  32.792  1.00  0.00     0.083 C
BRANCH   4   5
HETATM    5  C6  UNL     1      69.552  -3.188  32.388  1.00  0.00    -0.051 A
HETATM    6  C5  UNL     1      70.758  -3.269  31.727  1.00  0.00     0.007 A
HETATM    7  C4  UNL     1      71.425  -2.121  31.333  1.00  0.00     0.003 A
HETATM    8  C3  UNL     1      70.871  -0.873  31.608  1.00  0.00     0.037 A
HETATM    9  C2  UNL     1      69.665  -0.774  32.269  1.00  0.00     0.068 A
HETATM   10  C13 UNL     1      69.035  -1.946  32.643  1.00  0.00     0.044 A
BRANCH   9  11
HETATM   11  O1  UNL     1      69.078   0.466  32.562  1.00  0.00    -0.356 OA
HETATM   12  C1  UNL     1      67.723   0.665  32.219  1.00  0.00     0.210 C
ENDBRANCH   9  11
ENDBRANCH   4   5
ENDBRANCH   3   4
ENDBRANCH   1   3
BRANCH   1  13
HETATM   13  C9  UNL     1      69.165  -7.585  32.406  1.00  0.00     0.121 A
HETATM   14  C10 UNL     1      69.106  -7.441  33.817  1.00  0.00     0.066 A
HETATM   15  C11 UNL     1      69.444  -8.523  34.569  1.00  0.00     0.110 A
HETATM   16  N2  UNL     1      69.823  -9.699  34.026  1.00  0.00    -0.202 N
HETATM   17  C12 UNL     1      69.865  -9.792  32.686  1.00  0.00     0.677 A
ATOM     18  H2  UNL     1      70.071 -10.494  34.615  1.00  0.00     0.183 HD
HETATM   19  N4  UNL     1      69.545  -8.763  31.884  1.00  0.00    -0.177 N
ATOM     20  H4  UNL     1      69.591  -8.878  30.871  1.00  0.00     0.185 HD
BRANCH  17  21
HETATM   21  N3  UNL     1      70.234 -10.937  32.161  1.00  0.00    -0.234 N
ATOM     22  H32 UNL     1      71.055 -11.420  32.526  1.00  0.00     0.174 HD
ATOM     23  H31 UNL     1      69.678 -11.312  31.393  1.00  0.00     0.174 HD
ENDBRANCH  17  21
ENDBRANCH   1  13
TORSDOF 6
ENDMDL