MODEL 4
REMARK VINA RESULT: -4.931023867      2.472      8.556
REMARK  4 active torsions:
REMARK  status: ('A' for Active; 'I' for Inactive)
REMARK    1  A    between atoms: N1_2  and  C2_3
REMARK    2  A    between atoms: N1_2  and  C5_12
REMARK    3  A    between atoms: C2_3  and  C3_4
REMARK    4  A    between atoms: C3_4  and  N2_5
REMARK       I    between atoms: N2_5  and  C4_7
ROOT
HETATM    1  C1  UNL     1      69.673  -8.633  34.287  1.00  0.00     0.150 C
HETATM    2  N1  UNL     1      69.347  -9.072  32.972  1.00  0.00    -0.382 N
ENDROOT
BRANCH   2   3
HETATM    3  C2  UNL     1      69.015  -8.189  31.874  1.00  0.00     0.142 C
BRANCH   3   4
HETATM    4  C3  UNL     1      68.589  -6.823  32.422  1.00  0.00     0.142 C
BRANCH   4   5
HETATM    5  N2  UNL     1      69.260  -5.769  31.717  1.00  0.00    -0.363 N
HETATM    6  C4  UNL     1      69.379  -4.450  32.204  1.00  0.00     0.181 C
HETATM    7  N3  UNL     1      68.311  -3.798  32.497  1.00  0.00    -0.374 N
HETATM    8  N4  UNL     1      70.630  -3.834  32.374  1.00  0.00    -0.064 NA
ATOM      9  H32 UNL     1      67.403  -4.246  32.373  1.00  0.00     0.158 HD
ATOM     10  H31 UNL     1      68.398  -2.845  32.849  1.00  0.00     0.158 HD
ATOM     11  H2  UNL     1      69.675  -5.985  30.811  1.00  0.00     0.162 HD
ENDBRANCH   4   5
ENDBRANCH   3   4
ENDBRANCH   2   3
BRANCH   2  12
HETATM   12  C5  UNL     1      69.345 -10.481  32.737  1.00  0.00     0.058 A
HETATM   13  C6  UNL     1      70.393 -11.114  32.115  1.00  0.00     0.121 A
HETATM   14  N5  UNL     1      70.107 -12.415  32.058  1.00  0.00    -0.358 N
HETATM   15  C7  UNL     1      70.937 -13.461  31.482  1.00  0.00     0.156 C
HETATM   16  C8  UNL     1      68.909 -12.624  32.626  1.00  0.00     0.046 A
HETATM   17  C9  UNL     1      68.136 -13.759  32.832  1.00  0.00     0.030 A
HETATM   18  C13 UNL     1      68.417 -11.411  33.059  1.00  0.00     0.019 A
HETATM   19  C10 UNL     1      66.920 -13.646  33.453  1.00  0.00     0.002 A
HETATM   20  C11 UNL     1      66.422 -12.431  33.889  1.00  0.00     0.001 A
HETATM   21  C12 UNL     1      67.174 -11.305  33.691  1.00  0.00     0.016 A
ENDBRANCH   2  12
TORSDOF 4
ENDMDL