MODEL 2
REMARK VINA RESULT: -7.452644322      0.037      1.120
REMARK  6 active torsions:
REMARK  status: ('A' for Active; 'I' for Inactive)
REMARK    1  A    between atoms: C4_5  and  N2_6
REMARK    2  A    between atoms: N2_6  and  C5_8
REMARK    3  A    between atoms: C5_8  and  C6_9
REMARK    4  A    between atoms: C6_9  and  O1_10
REMARK    5  A    between atoms: C6_9  and  C7_12
REMARK    6  A    between atoms: C7_12  and  N3_13
ROOT
HETATM    1  C5  UNL     1      68.999  -6.928  31.881  1.00  0.00     0.153 C
ENDROOT
BRANCH   1   2
HETATM    2  N2  UNL     1      68.360  -5.686  32.253  1.00  0.00    -0.387 N
ATOM      3  H2  UNL     1      67.447  -5.712  32.707  1.00  0.00     0.159 HD
BRANCH   2   4
HETATM    4  C4  UNL     1      68.983  -4.414  31.998  1.00  0.00     0.028 A
HETATM    5  C3  UNL     1      68.203  -3.379  31.532  1.00  0.00     0.031 A
HETATM    6  C2  UNL     1      68.800  -2.141  31.283  1.00  0.00     0.029 A
HETATM    7  C1  UNL     1      70.150  -1.988  31.510  1.00  0.00     0.046 A
HETATM    8  N1  UNL     1      70.724  -0.706  31.243  1.00  0.00    -0.102 NA
HETATM    9  C14 UNL     1      70.946  -3.023  31.979  1.00  0.00     0.029 A
HETATM   10  C13 UNL     1      70.333  -4.258  32.224  1.00  0.00     0.031 A
ENDBRANCH   2   4
ENDBRANCH   1   2
BRANCH   1  11
HETATM   11  C6  UNL     1      68.882  -7.923  32.993  1.00  0.00     0.154 C
BRANCH  11  12
HETATM   12  O1  UNL     1      69.107  -7.248  34.190  1.00  0.00    -0.392 OA
ATOM     13  H1  UNL     1      69.518  -7.857  34.792  1.00  0.00     0.210 HD
ENDBRANCH  11  12
BRANCH  11  14
HETATM   14  C7  UNL     1      69.908  -9.018  32.755  1.00  0.00     0.161 C
BRANCH  14  15
HETATM   15  N3  UNL     1      69.203 -10.289  32.802  1.00  0.00    -0.364 N
HETATM   16  C8  UNL     1      69.814 -11.403  32.380  1.00  0.00     0.090 A
HETATM   17  C9  UNL     1      69.148 -12.608  32.423  1.00  0.00     0.017 A
HETATM   18  C10 UNL     1      67.853 -12.639  32.904  1.00  0.00     0.003 A
HETATM   19  C11 UNL     1      67.218 -11.493  33.340  1.00  0.00     0.017 A
HETATM   20  C12 UNL     1      67.943 -10.320  33.270  1.00  0.00     0.090 A
ENDBRANCH  14  15
ENDBRANCH  11  14
ENDBRANCH   1  11
TORSDOF 6
ENDMDL