MODEL 5
REMARK VINA RESULT: -8.597914766      1.951      8.360
REMARK  5 active torsions:
REMARK  status: ('A' for Active; 'I' for Inactive)
REMARK    1  A    between atoms: N3_4  and  C2_6
REMARK    2  A    between atoms: C2_6  and  C3_7
REMARK    3  A    between atoms: C3_7  and  O1_8
REMARK    4  A    between atoms: O1_8  and  C4_9
REMARK    5  A    between atoms: C7_12  and  C8_13
ROOT
HETATM    1  C4  UNL     1      69.052  -8.650  33.005  1.00  0.00     0.068 A
HETATM    2  C5  UNL     1      68.947  -7.728  34.011  1.00  0.00     0.037 A
HETATM    3  C6  UNL     1      69.040  -6.370  33.731  1.00  0.00     0.016 A
HETATM    4  C7  UNL     1      69.236  -5.899  32.454  1.00  0.00    -0.009 A
HETATM    5  C13 UNL     1      69.337  -6.877  31.458  1.00  0.00     0.016 A
HETATM    6  C14 UNL     1      69.247  -8.219  31.723  1.00  0.00     0.037 A
ENDROOT
BRANCH   1   7
HETATM    7  O1  UNL     1      68.949  -9.988  33.357  1.00  0.00    -0.350 OA
BRANCH   7   8
HETATM    8  C3  UNL     1      67.809 -10.772  33.214  1.00  0.00     0.195 C
BRANCH   8   9
HETATM    9  C2  UNL     1      68.268 -12.181  32.838  1.00  0.00     0.148 C
BRANCH   9  10
HETATM   10  N3  UNL     1      69.561 -12.187  32.224  1.00  0.00    -0.365 N
HETATM   11  C1  UNL     1      70.289 -13.221  32.026  1.00  0.00     0.197 C
HETATM   12  N1  UNL     1      69.813 -14.494  32.439  1.00  0.00    -0.067 NA
HETATM   13  N2  UNL     1      71.542 -13.045  31.403  1.00  0.00    -0.067 NA
ATOM     14  H3  UNL     1      69.934 -11.289  31.916  1.00  0.00     0.161 HD
ENDBRANCH   9  10
ENDBRANCH   8   9
ENDBRANCH   7   8
ENDBRANCH   1   7
BRANCH   4  15
HETATM   15  C8  UNL     1      69.340  -4.492  32.104  1.00  0.00     0.042 A
HETATM   16  C9  UNL     1      70.556  -3.920  31.884  1.00  0.00     0.030 A
HETATM   17  C10 UNL     1      70.621  -2.571  31.552  1.00  0.00     0.004 A
HETATM   18  C11 UNL     1      69.448  -1.872  31.462  1.00  0.00     0.017 A
HETATM   19  C12 UNL     1      68.241  -2.488  31.692  1.00  0.00     0.088 A
HETATM   20  N4  UNL     1      68.211  -3.783  32.008  1.00  0.00    -0.365 N
ATOM     21  H4  UNL     1      67.315  -4.238  32.179  1.00  0.00     0.165 HD
ENDBRANCH   4  15
TORSDOF 5
ENDMDL