MODEL 4
REMARK VINA RESULT: -7.884157660      3.902      7.960
REMARK  6 active torsions:
REMARK  status: ('A' for Active; 'I' for Inactive)
REMARK    1  A    between atoms: C2_2  and  C3_4
REMARK    2  A    between atoms: C3_4  and  O1_5
REMARK    3  A    between atoms: O1_5  and  C4_6
REMARK    4  A    between atoms: C7_9  and  C8_10
REMARK    5  A    between atoms: N2_11  and  N3_13
REMARK    6  A    between atoms: N3_13  and  C9_15
ROOT
HETATM    1  C4  UNL     1      68.654  -5.616  32.381  1.00  0.00     0.069 A
HETATM    2  C5  UNL     1      68.703  -6.054  33.689  1.00  0.00     0.037 A
HETATM    3  C6  UNL     1      69.029  -7.363  33.965  1.00  0.00     0.015 A
HETATM    4  C7  UNL     1      69.319  -8.291  32.969  1.00  0.00    -0.019 A
HETATM    5  C10 UNL     1      69.267  -7.842  31.667  1.00  0.00     0.015 A
HETATM    6  C11 UNL     1      68.940  -6.532  31.392  1.00  0.00     0.037 A
ENDROOT
BRANCH   4   7
HETATM    7  C8  UNL     1      69.662  -9.666  33.278  1.00  0.00     0.118 C
HETATM    8  N2  UNL     1      69.956 -10.459  32.318  1.00  0.00    -0.309 N
ATOM      9  H2  UNL     1      69.935 -10.077  31.373  1.00  0.00     0.186 HD
BRANCH   8  10
HETATM   10  N3  UNL     1      70.303 -11.792  32.453  1.00  0.00    -0.279 N
ATOM     11  H3  UNL     1      71.245 -12.027  32.764  1.00  0.00     0.189 HD
BRANCH  10  12
HETATM   12  C9  UNL     1      69.391 -12.845  32.173  1.00  0.00     0.199 C
HETATM   13  N4  UNL     1      68.073 -12.823  32.723  1.00  0.00    -0.068 NA
HETATM   14  S1  UNL     1      69.841 -14.088  31.219  1.00  0.00    -0.043 SA
ENDBRANCH  10  12
ENDBRANCH   8  10
ENDBRANCH   4   7
BRANCH   1  15
HETATM   15  O1  UNL     1      68.329  -4.303  32.053  1.00  0.00    -0.346 OA
BRANCH  15  16
HETATM   16  C3  UNL     1      69.171  -3.274  32.538  1.00  0.00     0.228 C
BRANCH  16  17
HETATM   17  C2  UNL     1      69.705  -2.544  31.373  1.00  0.00     0.039 C
HETATM   18  C1  UNL     1      70.913  -2.811  30.941  1.00  0.00     0.037 C
HETATM   19  N1  UNL     1      68.928  -1.560  30.719  1.00  0.00    -0.106 NA
ENDBRANCH  16  17
ENDBRANCH  15  16
ENDBRANCH   1  15
TORSDOF 6
ENDMDL