MODEL 3
REMARK VINA RESULT: -7.085641829      2.350      4.215
REMARK  6 active torsions:
REMARK  status: ('A' for Active; 'I' for Inactive)
REMARK    1  A    between atoms: O1_2  and  C2_3
REMARK    2  A    between atoms: C6_7  and  C7_8
REMARK    3  A    between atoms: C7_8  and  C8_9
REMARK    4  A    between atoms: C8_9  and  N1_10
REMARK    5  A    between atoms: C8_9  and  C9_14
REMARK    6  A    between atoms: C9_14  and  N2_15
REMARK       I    between atoms: N2_15  and  C10_17
REMARK       I    between atoms: C10_17  and  N4_21
ROOT
HETATM    1  C8  UNL     1      70.237  -9.112  32.447  1.00  0.00     0.206 C
ENDROOT
BRANCH   1   2
HETATM    2  C7  UNL     1      69.909  -8.306  33.690  1.00  0.00     0.073 C
BRANCH   2   3
HETATM    3  C6  UNL     1      69.605  -6.893  33.410  1.00  0.00    -0.053 A
HETATM    4  C5  UNL     1      68.357  -6.381  33.691  1.00  0.00     0.007 A
HETATM    5  C4  UNL     1      68.025  -5.064  33.442  1.00  0.00     0.003 A
HETATM    6  C3  UNL     1      68.973  -4.227  32.891  1.00  0.00     0.037 A
HETATM    7  C2  UNL     1      70.238  -4.715  32.596  1.00  0.00     0.068 A
HETATM    8  C13 UNL     1      70.541  -6.048  32.860  1.00  0.00     0.044 A
BRANCH   7   9
HETATM    9  O1  UNL     1      71.168  -3.868  32.049  1.00  0.00    -0.356 OA
HETATM   10  C1  UNL     1      70.868  -2.812  31.179  1.00  0.00     0.210 C
ENDBRANCH   7   9
ENDBRANCH   2   3
ENDBRANCH   1   2
BRANCH   1  11
HETATM   11  N1  UNL     1      69.730  -8.475  31.248  1.00  0.00    -0.073 N
ATOM     12  H13 UNL     1      68.782  -8.786  31.033  1.00  0.00     0.274 HD
ATOM     13  H12 UNL     1      69.540  -7.485  31.404  1.00  0.00     0.274 HD
ATOM     14  H11 UNL     1      70.356  -8.613  30.456  1.00  0.00     0.274 HD
ENDBRANCH   1  11
BRANCH   1  15
HETATM   15  C9  UNL     1      69.540 -10.438  32.616  1.00  0.00     0.171 C
BRANCH  15  16
HETATM   16  N2  UNL     1      70.342 -11.594  32.512  1.00  0.00    -0.225 N
HETATM   17  C10 UNL     1      69.875 -12.884  32.194  1.00  0.00     0.668 C
HETATM   18  N3  UNL     1      68.651 -13.211  32.418  1.00  0.00    -0.235 N
HETATM   19  N4  UNL     1      70.712 -13.883  31.615  1.00  0.00    -0.227 N
ATOM     20  H32 UNL     1      68.052 -12.496  32.832  1.00  0.00     0.174 HD
ATOM     21  H31 UNL     1      68.314 -14.146  32.188  1.00  0.00     0.174 HD
HETATM   22  C11 UNL     1      71.207 -13.722  30.285  1.00  0.00     0.168 C
HETATM   23  C12 UNL     1      71.056 -15.056  32.377  1.00  0.00     0.168 C
ATOM     24  H2  UNL     1      71.342 -11.487  32.681  1.00  0.00     0.177 HD
ENDBRANCH  15  16
ENDBRANCH   1  15
TORSDOF 6
ENDMDL