MODEL 3
REMARK VINA RESULT: -6.715562508      2.136      3.409
REMARK  5 active torsions:
REMARK  status: ('A' for Active; 'I' for Inactive)
REMARK    1  A    between atoms: C4_4  and  C5_5
REMARK    2  A    between atoms: C5_5  and  O2_7
REMARK    3  A    between atoms: O2_7  and  C6_8
REMARK    4  A    between atoms: C7_9  and  C8_10
REMARK    5  A    between atoms: C12_16  and  O5_17
ROOT
HETATM    1  C6  UNL     1      -3.575   5.247  11.828  1.00  0.00     0.191 C
HETATM    2  C7  UNL     1      -3.362   4.536  13.108  1.00  0.00     0.114 C
HETATM    3  O3  UNL     1      -2.710   3.303  12.862  1.00  0.00    -0.303 OA
HETATM    4  C11 UNL     1      -1.649   3.259  11.980  1.00  0.00     0.296 C
HETATM    5  O4  UNL     1      -0.661   2.516  12.184  1.00  0.00    -0.262 OA
HETATM    6  C12 UNL     1      -1.689   4.099  10.788  1.00  0.00     0.164 C
HETATM    7  C13 UNL     1      -0.380   4.511  10.214  1.00  0.00     0.050 C
HETATM    8  C14 UNL     1      -0.739   5.800   9.461  1.00  0.00     0.005 C
HETATM    9  C15 UNL     1      -2.072   6.273  10.063  1.00  0.00     0.027 C
HETATM   10  C16 UNL     1      -2.198   5.459  11.265  1.00  0.00     0.079 C
HETATM   11  S1  UNL     1      -1.313   6.071  12.705  1.00  0.00    -0.145 SA
HETATM   12  C17 UNL     1      -2.430   5.353  13.975  1.00  0.00     0.082 C
HETATM   13  C18 UNL     1      -1.559   4.485  14.858  1.00  0.00     0.024 C
ENDROOT
BRANCH   1  14
HETATM   14  O2  UNL     1      -4.311   6.440  11.900  1.00  0.00    -0.308 OA
BRANCH  14  15
HETATM   15  C5  UNL     1      -5.461   6.679  11.160  1.00  0.00     0.283 C
HETATM   16  O1  UNL     1      -5.934   5.721  10.504  1.00  0.00    -0.260 OA
BRANCH  15  17
HETATM   17  C4  UNL     1      -6.124   7.951  11.109  1.00  0.00     0.084 C
HETATM   18  C2  UNL     1      -5.674   8.947  10.389  1.00  0.00    -0.082 C
HETATM   19  C1  UNL     1      -6.440  10.253  10.397  1.00  0.00     0.043 C
HETATM   20  C3  UNL     1      -4.468   8.937   9.548  1.00  0.00     0.043 C
ENDBRANCH  15  17
ENDBRANCH  14  15
ENDBRANCH   1  14
BRANCH   2  21
HETATM   21  C8  UNL     1      -4.669   4.341  13.817  1.00  0.00     0.016 C
HETATM   22  C9  UNL     1      -4.892   2.953  14.300  1.00  0.00     0.012 C
HETATM   23  C10 UNL     1      -4.867   5.289  14.975  1.00  0.00     0.012 C
ENDBRANCH   2  21
BRANCH   6  24
HETATM   24  O5  UNL     1      -2.591   3.647   9.826  1.00  0.00    -0.378 OA
ATOM     25  H5  UNL     1      -2.441   4.021   8.966  1.00  0.00     0.211 HD
ENDBRANCH   6  24
TORSDOF 5
ENDMDL