MODEL 5
REMARK VINA RESULT: -6.507620313      2.089      2.868
REMARK  5 active torsions:
REMARK  status: ('A' for Active; 'I' for Inactive)
REMARK    1  A    between atoms: O1_2  and  C2_3
REMARK    2  A    between atoms: C8_10  and  C9_11
REMARK    3  A    between atoms: C9_11  and  O3_13
REMARK    4  A    between atoms: O3_13  and  C10_14
REMARK    5  A    between atoms: C14_18  and  C15_19
ROOT
HETATM    1  C2  UNL     1      -4.521   1.013  15.769  1.00  0.00     0.120 C
HETATM    2  C3  UNL     1      -4.389   1.075  14.263  1.00  0.00     0.033 C
HETATM    3  C4  UNL     1      -5.205   2.244  13.698  1.00  0.00     0.013 C
HETATM    4  C5  UNL     1      -4.521   3.587  14.033  1.00  0.00    -0.028 C
HETATM    5  C6  UNL     1      -5.645   4.586  14.163  1.00  0.00     0.020 C
HETATM    6  C7  UNL     1      -5.279   6.015  13.915  1.00  0.00     0.075 C
HETATM    7  S1  UNL     1      -4.842   6.110  12.130  1.00  0.00    -0.153 SA
HETATM    8  C8  UNL     1      -4.450   4.378  11.739  1.00  0.00     0.159 C
HETATM    9  C14 UNL     1      -3.612   3.879  12.898  1.00  0.00     0.084 C
HETATM   10  C18 UNL     1      -3.895   3.354  15.371  1.00  0.00     0.013 C
HETATM   11  C19 UNL     1      -4.798   2.428  16.219  1.00  0.00     0.033 C
ENDROOT
BRANCH   9  12
HETATM   12  C15 UNL     1      -2.438   4.695  13.186  1.00  0.00     0.079 C
HETATM   13  N1  UNL     1      -1.437   4.886  12.414  1.00  0.00    -0.378 N
HETATM   14  C16 UNL     1      -0.432   5.728  12.954  1.00  0.00     0.140 C
ATOM     15  H1  UNL     1      -1.368   4.467  11.487  1.00  0.00     0.160 HD
HETATM   16  C17 UNL     1      -1.221   6.514  13.994  1.00  0.00     0.140 C
HETATM   17  N2  UNL     1      -2.176   5.453  14.373  1.00  0.00    -0.378 N
ATOM     18  H2  UNL     1      -2.572   5.292  15.299  1.00  0.00     0.160 HD
ENDBRANCH   9  12
BRANCH   8  19
HETATM   19  C9  UNL     1      -3.919   4.136  10.417  1.00  0.00     0.274 C
HETATM   20  O2  UNL     1      -3.018   3.335  10.068  1.00  0.00    -0.264 OA
BRANCH  19  21
HETATM   21  O3  UNL     1      -4.464   4.874   9.359  1.00  0.00    -0.310 OA
BRANCH  21  22
HETATM   22  C10 UNL     1      -3.738   5.821   8.658  1.00  0.00     0.060 C
HETATM   23  C11 UNL     1      -4.566   7.074   8.514  1.00  0.00     0.045 C
HETATM   24  C12 UNL     1      -3.434   5.266   7.276  1.00  0.00     0.045 C
HETATM   25  C13 UNL     1      -2.423   6.199   9.283  1.00  0.00     0.045 C
ENDBRANCH  21  22
ENDBRANCH  19  21
ENDBRANCH   8  19
BRANCH   1  26
HETATM   26  O1  UNL     1      -5.514   0.158  16.188  1.00  0.00    -0.391 OA
HETATM   27  C1  UNL     1      -6.179   0.623  17.298  1.00  0.00     0.202 C
ENDBRANCH   1  26
TORSDOF 5
ENDMDL