MODEL 3
REMARK VINA RESULT: -8.078986607      1.431      3.383
REMARK  3 active torsions:
REMARK  status: ('A' for Active; 'I' for Inactive)
REMARK    1  A    between atoms: C5_7  and  C6_8
REMARK    2  A    between atoms: C6_8  and  O3_9
REMARK    3  A    between atoms: C6_8  and  C7_11
ROOT
HETATM    1  C1  UNL     1      -1.411   3.075  12.184  1.00  0.00     0.082 C
HETATM    2  C2  UNL     1      -2.459   4.131  12.002  1.00  0.00     0.201 C
HETATM    3  O1  UNL     1      -1.798   5.240  12.343  1.00  0.00    -0.197 OA
HETATM    4  O2  UNL     1      -1.691   5.237  13.655  1.00  0.00    -0.190 OA
HETATM    5  C3  UNL     1      -2.740   5.747  14.398  1.00  0.00     0.247 A
HETATM    6  C4  UNL     1      -3.375   4.765  15.310  1.00  0.00     0.059 C
HETATM    7  C5  UNL     1      -4.349   3.722  14.958  1.00  0.00     0.006 C
HETATM    8  C11 UNL     1      -4.745   2.924  13.864  1.00  0.00     0.059 C
HETATM    9  C12 UNL     1      -3.982   2.034  12.928  1.00  0.00     0.066 C
HETATM   10  C13 UNL     1      -3.911   2.383  11.486  1.00  0.00     0.017 C
HETATM   11  C14 UNL     1      -3.294   3.686  10.931  1.00  0.00     0.063 C
HETATM   12  C15 UNL     1      -4.371   4.820  10.996  1.00  0.00     0.073 C
HETATM   13  C16 UNL     1      -3.782   6.204  11.154  1.00  0.00    -0.018 C
HETATM   14  C17 UNL     1      -3.592   6.990  12.318  1.00  0.00     0.007 C
HETATM   15  C18 UNL     1      -3.555   6.810  13.771  1.00  0.00     0.217 A
HETATM   16  O5  UNL     1      -2.540   7.067  14.635  1.00  0.00    -0.332 OA
HETATM   17  C19 UNL     1      -4.747   4.462  12.345  1.00  0.00     0.277 C
HETATM   18  O6  UNL     1      -5.562   3.532  12.820  1.00  0.00    -0.323 OA
HETATM   19  O7  UNL     1      -3.510   4.225  12.711  1.00  0.00    -0.321 OA
ENDROOT
BRANCH   7  20
HETATM   20  C6  UNL     1      -4.330   2.862  16.225  1.00  0.00     0.188 C
BRANCH  20  21
HETATM   21  O3  UNL     1      -3.193   2.015  16.193  1.00  0.00    -0.386 OA
ATOM     22  H3  UNL     1      -3.329   1.337  15.541  1.00  0.00     0.210 HD
ENDBRANCH  20  21
BRANCH  20  23
HETATM   23  C7  UNL     1      -5.471   1.996  16.458  1.00  0.00    -0.001 A
HETATM   24  C8  UNL     1      -6.736   2.490  16.799  1.00  0.00     0.036 A
HETATM   25  C9  UNL     1      -7.525   1.385  16.970  1.00  0.00     0.142 A
HETATM   26  O4  UNL     1      -6.813   0.306  16.753  1.00  0.00    -0.334 OA
HETATM   27  C10 UNL     1      -5.590   0.613  16.448  1.00  0.00     0.151 A
ENDBRANCH  20  23
ENDBRANCH   7  20
TORSDOF 3
ENDMDL