MODEL 2
REMARK VINA RESULT: -6.733972538      4.205      8.391
REMARK  4 active torsions:
REMARK  status: ('A' for Active; 'I' for Inactive)
REMARK    1  A    between atoms: N1_2  and  C2_5
REMARK    2  A    between atoms: C2_5  and  C3_6
REMARK    3  A    between atoms: C3_6  and  C4_7
REMARK    4  A    between atoms: N2_10  and  C7_11
ROOT
HETATM    1  C7  UNL     1      -3.258   5.985  13.377  1.00  0.00     0.103 C
HETATM    2  N3  UNL     1      -2.687   7.015  13.868  1.00  0.00    -0.323 N
ATOM      3  H3  UNL     1      -2.726   7.278  14.852  1.00  0.00     0.166 HD
HETATM    4  C8  UNL     1      -1.972   7.768  12.847  1.00  0.00     0.253 C
HETATM    5  C9  UNL     1      -0.577   7.985  13.447  1.00  0.00     0.134 C
HETATM    6  C10 UNL     1      -0.600   9.123  14.405  1.00  0.00     0.090 A
HETATM    7  C11 UNL     1      -1.208   8.894  15.760  1.00  0.00     0.049 C
HETATM    8  O1  UNL     1       0.723   9.802  14.515  1.00  0.00    -0.369 OA
HETATM    9  C12 UNL     1      -0.383  10.436  13.952  1.00  0.00     0.157 A
HETATM   10  C13 UNL     1      -0.281  10.691  12.485  1.00  0.00     0.038 C
HETATM   11  C14 UNL     1      -1.600  10.950  11.825  1.00  0.00     0.040 C
HETATM   12  C15 UNL     1      -2.386   9.660  11.543  1.00  0.00     0.059 C
HETATM   13  C16 UNL     1      -1.720   9.001  10.381  1.00  0.00     0.045 C
HETATM   14  C17 UNL     1      -3.742  10.169  11.015  1.00  0.00     0.045 C
HETATM   15  O2  UNL     1      -2.640   8.913  12.624  1.00  0.00    -0.328 OA
HETATM   16  O3  UNL     1      -1.928   6.860  11.812  1.00  0.00    -0.331 OA
HETATM   17  C18 UNL     1      -2.965   5.969  11.938  1.00  0.00     0.249 C
ENDROOT
BRANCH   1  18
HETATM   18  N2  UNL     1      -4.048   5.013  14.093  1.00  0.00    -0.369 N
HETATM   19  C6  UNL     1      -3.792   3.613  13.926  1.00  0.00     0.124 C
HETATM   20  C5  UNL     1      -5.084   2.864  13.882  1.00  0.00     0.024 C
HETATM   21  C4  UNL     1      -5.917   3.125  15.094  1.00  0.00    -0.010 C
HETATM   22  C20 UNL     1      -6.197   4.600  15.283  1.00  0.00     0.024 C
HETATM   23  C19 UNL     1      -5.058   5.485  14.959  1.00  0.00     0.124 C
BRANCH  21  24
HETATM   24  C3  UNL     1      -5.374   2.498  16.345  1.00  0.00     0.032 C
BRANCH  24  25
HETATM   25  C2  UNL     1      -5.208   1.009  16.176  1.00  0.00     0.232 C
BRANCH  25  26
HETATM   26  N1  UNL     1      -5.869   0.288  17.263  1.00  0.00    -0.079 N
HETATM   27  C1  UNL     1      -7.182   0.897  17.436  1.00  0.00     0.266 C
ATOM     28  H12 UNL     1      -5.320   0.265  18.122  1.00  0.00     0.276 HD
ATOM     29  H11 UNL     1      -5.909  -0.720  17.111  1.00  0.00     0.276 HD
ENDBRANCH  25  26
ENDBRANCH  24  25
ENDBRANCH  21  24
ENDBRANCH   1  18
TORSDOF 4
ENDMDL