MODEL 5
REMARK VINA RESULT: -7.321912507      2.459      3.500
REMARK  4 active torsions:
REMARK  status: ('A' for Active; 'I' for Inactive)
REMARK    1  A    between atoms: O1_2  and  C2_3
REMARK    2  A    between atoms: C4_5  and  C5_6
REMARK    3  A    between atoms: C8_9  and  C9_10
REMARK    4  A    between atoms: C9_10  and  O2_11
ROOT
HETATM    1  C5  UNL     1      -3.923   4.602  12.464  1.00  0.00     0.056 C
HETATM    2  C6  UNL     1      -4.235   6.014  12.889  1.00  0.00     0.015 C
HETATM    3  C7  UNL     1      -5.347   6.676  12.157  1.00  0.00     0.041 C
HETATM    4  C8  UNL     1      -5.407   6.273  10.677  1.00  0.00     0.085 C
HETATM    5  C10 UNL     1      -4.322   6.955   9.963  1.00  0.00     0.072 C
HETATM    6  C11 UNL     1      -3.635   6.226   8.876  1.00  0.00     0.125 C
HETATM    7  C12 UNL     1      -2.116   6.204   9.127  1.00  0.00     0.034 C
HETATM    8  C13 UNL     1      -2.097   5.144  10.243  1.00  0.00     0.037 C
HETATM    9  C14 UNL     1      -3.295   4.336  10.021  1.00  0.00     0.157 C
HETATM   10  O3  UNL     1      -3.870   4.859   8.833  1.00  0.00    -0.377 OA
HETATM   11  C15 UNL     1      -4.335   4.253  11.077  1.00  0.00     0.092 C
HETATM   12  C16 UNL     1      -4.785   2.775  11.112  1.00  0.00     0.049 C
HETATM   13  O4  UNL     1      -5.474   4.929  10.642  1.00  0.00    -0.364 OA
ENDROOT
BRANCH   1  14
HETATM   14  C4  UNL     1      -4.490   3.719  13.518  1.00  0.00    -0.045 A
HETATM   15  C3  UNL     1      -4.228   2.367  13.534  1.00  0.00     0.047 A
HETATM   16  C2  UNL     1      -4.756   1.564  14.504  1.00  0.00     0.104 A
HETATM   17  C19 UNL     1      -5.567   2.081  15.498  1.00  0.00     0.138 A
HETATM   18  C18 UNL     1      -5.844   3.431  15.502  1.00  0.00     0.108 A
HETATM   19  O5  UNL     1      -6.237   1.513  16.599  1.00  0.00    -0.320 OA
HETATM   20  C17 UNL     1      -5.298   4.208  14.515  1.00  0.00     0.047 A
HETATM   21  O6  UNL     1      -6.680   3.660  16.609  1.00  0.00    -0.323 OA
HETATM   22  C20 UNL     1      -7.293   2.413  16.968  1.00  0.00     0.352 C
BRANCH  16  23
HETATM   23  O1  UNL     1      -4.508   0.178  14.551  1.00  0.00    -0.353 OA
HETATM   24  C1  UNL     1      -4.242  -0.457  13.315  1.00  0.00     0.210 C
ENDBRANCH  16  23
ENDBRANCH   1  14
BRANCH   4  25
HETATM   25  C9  UNL     1      -6.768   6.799  10.193  1.00  0.00     0.202 C
BRANCH  25  26
HETATM   26  O2  UNL     1      -7.107   6.190   8.973  1.00  0.00    -0.398 OA
ATOM     27  H2  UNL     1      -7.513   6.827   8.398  1.00  0.00     0.209 HD
ENDBRANCH  25  26
ENDBRANCH   4  25
TORSDOF 4
ENDMDL