MODEL 3
REMARK VINA RESULT: -7.157503966      3.340      6.511
REMARK  6 active torsions:
REMARK  status: ('A' for Active; 'I' for Inactive)
REMARK    1  A    between atoms: C4_7  and  C5_8
REMARK    2  A    between atoms: C5_8  and  O2_18
REMARK    3  A    between atoms: N2_9  and  C6_11
REMARK    4  A    between atoms: C6_11  and  N3_13
REMARK    5  A    between atoms: N3_13  and  C7_15
REMARK    6  A    between atoms: O2_18  and  C10_19
ROOT
HETATM    1  C5  UNL     1      -4.484   2.551  14.140  1.00  0.00     0.183 C
HETATM    2  N2  UNL     1      -5.457   2.909  14.781  1.00  0.00    -0.311 N
ATOM      3  H2  UNL     1      -6.132   2.164  14.609  1.00  0.00     0.170 HD
ENDROOT
BRANCH   1   4
HETATM    4  C4  UNL     1      -4.499   1.275  13.356  1.00  0.00     0.149 A
HETATM    5  C2  UNL     1      -4.808   1.234  12.025  1.00  0.00     0.045 A
HETATM    6  C1  UNL     1      -5.162   2.350  11.153  1.00  0.00     0.071 C
HETATM    7  N1  UNL     1      -4.726  -0.072  11.632  1.00  0.00    -0.348 N
HETATM    8  C3  UNL     1      -4.370  -0.777  12.744  1.00  0.00     0.234 A
ATOM      9  H1  UNL     1      -4.897  -0.444  10.699  1.00  0.00     0.167 HD
HETATM   10  O1  UNL     1      -4.245   0.083  13.759  1.00  0.00    -0.300 OA
ENDBRANCH   1   4
BRANCH   1  11
HETATM   11  O2  UNL     1      -3.357   3.347  14.150  1.00  0.00    -0.299 OA
BRANCH  11  12
HETATM   12  C10 UNL     1      -2.624   3.860  13.126  1.00  0.00     0.295 C
HETATM   13  C11 UNL     1      -1.784   5.048  13.638  1.00  0.00     0.232 C
HETATM   14  O3  UNL     1      -0.810   5.169  12.652  1.00  0.00    -0.350 OA
HETATM   15  C12 UNL     1      -0.990   4.104  11.772  1.00  0.00     0.167 C
HETATM   16  C13 UNL     1      -1.916   4.567  10.671  1.00  0.00     0.068 C
HETATM   17  C16 UNL     1       0.270   3.668  11.120  1.00  0.00     0.068 C
HETATM   18  O4  UNL     1      -1.632   3.116  12.537  1.00  0.00    -0.323 OA
HETATM   19  C14 UNL     1      -1.087   4.738   9.428  1.00  0.00     0.006 C
HETATM   20  C15 UNL     1       0.306   4.316   9.751  1.00  0.00     0.006 C
ENDBRANCH  11  12
ENDBRANCH   1  11
BRANCH   2  21
HETATM   21  C6  UNL     1      -6.128   3.749  15.593  1.00  0.00     0.173 C
HETATM   22  S1  UNL     1      -6.151   5.363  15.207  1.00  0.00    -0.041 SA
BRANCH  21  23
HETATM   23  N3  UNL     1      -6.858   3.381  16.762  1.00  0.00    -0.363 N
ATOM     24  H3  UNL     1      -7.600   3.991  17.105  1.00  0.00     0.162 HD
BRANCH  23  25
HETATM   25  C7  UNL     1      -6.560   2.164  17.459  1.00  0.00     0.075 C
HETATM   26  C8  UNL     1      -6.442   2.329  18.962  1.00  0.00     0.032 C
HETATM   27  C9  UNL     1      -7.641   1.159  17.131  1.00  0.00     0.032 C
ENDBRANCH  23  25
ENDBRANCH  21  23
ENDBRANCH   2  21
TORSDOF 6
ENDMDL