MODEL 2
REMARK VINA RESULT: -7.006450610      2.105      6.548
REMARK  6 active torsions:
REMARK  status: ('A' for Active; 'I' for Inactive)
REMARK    1  A    between atoms: O1_2  and  C2_3
REMARK    2  A    between atoms: C2_3  and  C3_5
REMARK    3  A    between atoms: C10_12  and  O3_13
REMARK    4  A    between atoms: C18_21  and  O4_22
REMARK    5  A    between atoms: C18_21  and  O5_24
REMARK    6  A    between atoms: O5_24  and  C19_25
ROOT
HETATM    1  C3  UNL     1      -3.163   4.551  13.201  1.00  0.00     0.105 C
HETATM    2  C4  UNL     1      -2.178   5.400  13.940  1.00  0.00     0.032 C
HETATM    3  C5  UNL     1      -3.897   5.317  12.123  1.00  0.00     0.013 C
HETATM    4  C6  UNL     1      -3.037   5.974  11.104  1.00  0.00     0.007 C
HETATM    5  C7  UNL     1      -3.496   7.411  10.837  1.00  0.00     0.012 C
HETATM    6  C8  UNL     1      -4.959   7.519  10.579  1.00  0.00    -0.014 C
HETATM    7  C9  UNL     1      -5.271   7.045   9.171  1.00  0.00     0.018 C
HETATM    8  C10 UNL     1      -5.485   8.898  10.841  1.00  0.00     0.129 C
HETATM    9  C12 UNL     1      -6.973   8.658  10.963  1.00  0.00     0.033 C
HETATM   10  C13 UNL     1      -6.982   7.454  11.916  1.00  0.00     0.008 C
HETATM   11  C14 UNL     1      -5.793   6.675  11.521  1.00  0.00     0.001 C
HETATM   12  C15 UNL     1      -4.871   6.328  12.695  1.00  0.00    -0.004 C
HETATM   13  C16 UNL     1      -5.697   5.850  13.821  1.00  0.00     0.011 C
HETATM   14  C17 UNL     1      -4.980   4.989  14.836  1.00  0.00     0.070 C
HETATM   15  C18 UNL     1      -4.231   3.928  14.066  1.00  0.00     0.187 C
ENDROOT
BRANCH   1  16
HETATM   16  C2  UNL     1      -2.463   3.439  12.493  1.00  0.00     0.272 C
HETATM   17  O2  UNL     1      -3.072   2.673  11.704  1.00  0.00    -0.264 OA
BRANCH  16  18
HETATM   18  O1  UNL     1      -1.110   3.185  12.662  1.00  0.00    -0.326 OA
HETATM   19  C1  UNL     1      -0.198   3.437  11.613  1.00  0.00     0.213 C
ENDBRANCH  16  18
ENDBRANCH   1  16
BRANCH  15  20
HETATM   20  O4  UNL     1      -5.220   3.504  13.112  1.00  0.00    -0.364 OA
ATOM     21  H4  UNL     1      -5.703   4.303  12.931  1.00  0.00     0.213 HD
ENDBRANCH  15  20
BRANCH  15  22
HETATM   22  O5  UNL     1      -3.934   2.794  14.752  1.00  0.00    -0.289 OA
BRANCH  22  23
HETATM   23  C19 UNL     1      -4.260   2.271  15.941  1.00  0.00     0.401 C
HETATM   24  O6  UNL     1      -3.556   1.387  16.419  1.00  0.00    -0.276 OA
ENDBRANCH  22  23
ENDBRANCH  15  22
BRANCH   8  25
HETATM   25  O3  UNL     1      -5.239   9.793   9.818  1.00  0.00    -0.390 OA
HETATM   26  C11 UNL     1      -6.238  10.782   9.898  1.00  0.00     0.202 C
ENDBRANCH   8  25
TORSDOF 6
ENDMDL