MODEL 3
REMARK VINA RESULT: -7.982101036      1.907      3.038
REMARK  3 active torsions:
REMARK  status: ('A' for Active; 'I' for Inactive)
REMARK    1  A    between atoms: C2_5  and  C3_6
REMARK    2  A    between atoms: C3_6  and  N2_7
REMARK    3  A    between atoms: N2_7  and  C4_10
ROOT
HETATM    1  C4  UNL     1      -3.053   4.116  13.400  1.00  0.00     0.189 C
HETATM    2  C5  UNL     1      -2.718   3.211  12.262  1.00  0.00     0.036 C
HETATM    3  C6  UNL     1      -3.133   4.075  11.063  1.00  0.00     0.043 C
HETATM    4  C7  UNL     1      -4.205   5.022  11.588  1.00  0.00     0.098 C
HETATM    5  C8  UNL     1      -3.725   6.458  11.551  1.00  0.00     0.044 C
HETATM    6  C9  UNL     1      -4.933   7.336  11.259  1.00  0.00     0.047 C
HETATM    7  C10 UNL     1      -5.462   6.906   9.899  1.00  0.00     0.122 C
HETATM    8  C11 UNL     1      -4.870   7.821   8.872  1.00  0.00     0.044 C
HETATM    9  C12 UNL     1      -5.287   7.512   7.468  1.00  0.00     0.010 C
HETATM   10  C13 UNL     1      -6.648   7.967   7.101  1.00  0.00     0.015 C
HETATM   11  C14 UNL     1      -7.129   9.270   7.631  1.00  0.00     0.014 C
HETATM   12  C15 UNL     1      -8.072   8.534   8.543  1.00  0.00     0.018 C
HETATM   13  C16 UNL     1      -7.557   8.277   9.934  1.00  0.00     0.042 C
HETATM   14  C17 UNL     1      -6.959   6.913   9.857  1.00  0.00     0.160 C
HETATM   15  O2  UNL     1      -7.375   6.315   8.695  1.00  0.00    -0.377 OA
HETATM   16  C18 UNL     1      -7.765   7.264   7.800  1.00  0.00     0.130 C
HETATM   17  O3  UNL     1      -5.068   5.570   9.677  1.00  0.00    -0.226 OA
HETATM   18  O4  UNL     1      -5.354   4.940  10.822  1.00  0.00    -0.229 OA
HETATM   19  C19 UNL     1      -4.422   4.634  13.041  1.00  0.00     0.074 C
ENDROOT
BRANCH   1  20
HETATM   20  N2  UNL     1      -2.987   3.498  14.706  1.00  0.00    -0.068 N
ATOM     21  H22 UNL     1      -2.303   3.934  15.324  1.00  0.00     0.277 HD
ATOM     22  H21 UNL     1      -2.571   2.567  14.691  1.00  0.00     0.277 HD
BRANCH  20  23
HETATM   23  C3  UNL     1      -4.324   3.513  15.238  1.00  0.00     0.267 C
BRANCH  23  24
HETATM   24  C2  UNL     1      -5.157   2.323  14.888  1.00  0.00     0.182 C
HETATM   25  O1  UNL     1      -4.346   1.163  14.856  1.00  0.00    -0.274 OA
HETATM   26  N1  UNL     1      -4.179   0.765  16.164  1.00  0.00    -0.281 N
HETATM   27  C1  UNL     1      -5.115   1.222  16.917  1.00  0.00     0.089 C
ATOM     28  H1  UNL     1      -3.410   0.181  16.494  1.00  0.00     0.193 HD
HETATM   29  C20 UNL     1      -6.044   2.022  16.087  1.00  0.00     0.083 C
ENDBRANCH  23  24
ENDBRANCH  20  23
ENDBRANCH   1  20
TORSDOF 3
ENDMDL