MODEL 3
REMARK VINA RESULT: -6.422227081      2.551      3.859
REMARK  6 active torsions:
REMARK  status: ('A' for Active; 'I' for Inactive)
REMARK    1  A    between atoms: C2_2  and  C3_3
REMARK    2  A    between atoms: C3_3  and  O1_4
REMARK    3  A    between atoms: C11_15  and  O4_16
REMARK    4  A    between atoms: O4_16  and  C12_17
REMARK    5  A    between atoms: C12_17  and  O6_19
REMARK    6  A    between atoms: O6_19  and  C13_20
ROOT
HETATM    1  C3  UNL     1      -1.148   7.907  13.390  1.00  0.00     0.139 C
HETATM    2  C4  UNL     1      -0.774   6.869  12.423  1.00  0.00     0.170 C
HETATM    3  O2  UNL     1       0.123   7.157  11.615  1.00  0.00    -0.294 OA
HETATM    4  C5  UNL     1      -1.354   5.527  12.316  1.00  0.00     0.072 C
HETATM    5  C6  UNL     1      -2.159   5.490  11.041  1.00  0.00     0.092 C
HETATM    6  C7  UNL     1      -2.748   4.131  10.933  1.00  0.00     0.138 C
HETATM    7  O3  UNL     1      -2.519   3.400   9.977  1.00  0.00    -0.297 OA
HETATM    8  C8  UNL     1      -3.628   3.738  12.068  1.00  0.00     0.040 C
HETATM    9  C9  UNL     1      -4.909   4.560  11.916  1.00  0.00     0.026 C
HETATM   10  C10 UNL     1      -4.006   2.290  11.836  1.00  0.00     0.026 C
HETATM   11  C11 UNL     1      -2.991   3.949  13.405  1.00  0.00     0.154 C
HETATM   12  C16 UNL     1      -2.120   5.129  13.531  1.00  0.00     0.029 C
HETATM   13  C17 UNL     1      -2.894   6.347  14.051  1.00  0.00     0.016 C
HETATM   14  C18 UNL     1      -1.821   7.293  14.591  1.00  0.00     0.028 C
HETATM   15  C19 UNL     1      -2.375   8.301  15.537  1.00  0.00     0.014 C
ENDROOT
BRANCH  11  16
HETATM   16  O4  UNL     1      -4.060   4.111  14.351  1.00  0.00    -0.291 OA
BRANCH  16  17
HETATM   17  C12 UNL     1      -4.342   3.112  15.289  1.00  0.00     0.407 C
HETATM   18  O5  UNL     1      -3.371   2.731  15.987  1.00  0.00    -0.229 OA
BRANCH  17  19
HETATM   19  O6  UNL     1      -5.599   2.566  15.455  1.00  0.00    -0.293 OA
BRANCH  19  20
HETATM   20  C13 UNL     1      -6.188   2.564  16.728  1.00  0.00     0.126 C
HETATM   21  C14 UNL     1      -6.983   3.825  16.995  1.00  0.00     0.040 C
HETATM   22  C15 UNL     1      -7.148   1.402  16.906  1.00  0.00     0.040 C
ENDBRANCH  19  20
ENDBRANCH  17  19
ENDBRANCH  16  17
ENDBRANCH  11  16
BRANCH   1  23
HETATM   23  C2  UNL     1      -2.053   8.938  12.813  1.00  0.00     0.009 C
HETATM   24  C1  UNL     1      -1.585  10.114  12.410  1.00  0.00     0.010 C
ENDBRANCH   1  23
BRANCH   1  25
HETATM   25  O1  UNL     1       0.025   8.579  13.790  1.00  0.00    -0.378 OA
ATOM     26  H1  UNL     1       0.756   8.068  13.461  1.00  0.00     0.211 HD
ENDBRANCH   1  25
TORSDOF 6
ENDMDL