MODEL 5
REMARK VINA RESULT: -6.795730586      3.962      7.912
REMARK  4 active torsions:
REMARK  status: ('A' for Active; 'I' for Inactive)
REMARK    1  A    between atoms: O1_1  and  C1_3
REMARK    2  A    between atoms: C1_3  and  O2_4
REMARK    3  A    between atoms: O2_4  and  C2_5
REMARK    4  A    between atoms: N3_19  and  C11_20
ROOT
HETATM    1  C1  UNL     1      -0.877   3.852  10.277  1.00  0.00     0.280 C
HETATM    2  C6  UNL     1      -0.926   2.556  10.994  1.00  0.00     0.107 C
HETATM    3  C7  UNL     1      -2.271   2.008  11.348  1.00  0.00    -0.000 C
HETATM    4  C8  UNL     1      -2.464   0.605  10.751  1.00  0.00     0.011 C
HETATM    5  C9  UNL     1      -3.742   0.039  11.315  1.00  0.00     0.061 C
HETATM    6  C10 UNL     1      -4.124   0.551  12.629  1.00  0.00     0.051 A
HETATM    7  N1  UNL     1      -4.346  -0.224  13.698  1.00  0.00    -0.288 N
ATOM      8  H1  UNL     1      -4.277  -1.241  13.730  1.00  0.00     0.188 HD
HETATM    9  N2  UNL     1      -4.667   0.559  14.690  1.00  0.00    -0.240 N
ATOM     10  H2  UNL     1      -4.890   0.234  15.631  1.00  0.00     0.208 HD
HETATM   11  N3  UNL     1      -4.666   1.828  14.318  1.00  0.00    -0.275 N
HETATM   12  C14 UNL     1      -4.327   1.857  13.021  1.00  0.00     0.054 A
HETATM   13  C15 UNL     1      -4.226   3.137  12.279  1.00  0.00     0.068 C
HETATM   14  C16 UNL     1      -3.446   2.839  10.993  1.00  0.00     0.020 C
HETATM   15  C17 UNL     1      -3.084   4.136  10.304  1.00  0.00     0.179 C
HETATM   16  O4  UNL     1      -1.905   4.668  10.811  1.00  0.00    -0.332 OA
ENDROOT
BRANCH   1  17
HETATM   17  O1  UNL     1       0.358   4.479  10.606  1.00  0.00    -0.343 OA
ATOM     18  H1  UNL     1       0.404   5.343  10.214  1.00  0.00     0.215 HD
ENDBRANCH   1  17
BRANCH   1  19
HETATM   19  O2  UNL     1      -1.005   3.734   8.912  1.00  0.00    -0.325 OA
BRANCH  19  20
HETATM   20  C2  UNL     1      -0.242   4.583   8.159  1.00  0.00     0.153 C
HETATM   21  C3  UNL     1       0.509   3.793   7.120  1.00  0.00     0.060 C
HETATM   22  C4  UNL     1      -0.214   4.171   5.848  1.00  0.00     0.170 C
HETATM   23  O3  UNL     1      -0.477   5.521   6.053  1.00  0.00    -0.389 OA
HETATM   24  C5  UNL     1      -1.116   5.493   7.293  1.00  0.00     0.199 C
ENDBRANCH  19  20
ENDBRANCH   1  19
BRANCH  11  25
HETATM   25  C11 UNL     1      -4.986   2.908  15.217  1.00  0.00     0.109 A
HETATM   26  C12 UNL     1      -6.219   3.710  15.068  1.00  0.00     0.029 A
HETATM   27  C13 UNL     1      -6.205   2.628  16.092  1.00  0.00     0.029 A
ENDBRANCH  11  25
TORSDOF 4
ENDMDL