MODEL 5
REMARK VINA RESULT: -6.813980170      2.354      3.484
REMARK  4 active torsions:
REMARK  status: ('A' for Active; 'I' for Inactive)
REMARK    1  A    between atoms: C4_6  and  C6_8
REMARK    2  A    between atoms: C6_8  and  O3_9
REMARK    3  A    between atoms: C6_8  and  C7_11
REMARK    4  A    between atoms: C7_11  and  C8_13
ROOT
HETATM    1  C7  UNL     1      -3.820   2.288  13.172  1.00  0.00     0.170 C
HETATM    2  O4  UNL     1      -2.936   1.563  12.714  1.00  0.00    -0.294 OA
ENDROOT
BRANCH   1   3
HETATM    3  C6  UNL     1      -4.782   1.634  14.094  1.00  0.00     0.252 C
BRANCH   3   4
HETATM    4  C4  UNL     1      -4.631   2.116  15.515  1.00  0.00     0.229 C
HETATM    5  O2  UNL     1      -5.369   3.290  15.634  1.00  0.00    -0.195 OA
HETATM    6  O1  UNL     1      -6.598   2.787  15.780  1.00  0.00    -0.198 OA
HETATM    7  C2  UNL     1      -6.392   1.836  16.754  1.00  0.00     0.193 C
HETATM    8  C1  UNL     1      -7.574   0.907  16.920  1.00  0.00     0.081 C
HETATM    9  C3  UNL     1      -6.176   2.543  18.067  1.00  0.00     0.081 C
HETATM   10  O7  UNL     1      -5.259   1.179  16.334  1.00  0.00    -0.312 OA
HETATM   11  C5  UNL     1      -3.217   2.261  15.956  1.00  0.00     0.085 C
ENDBRANCH   3   4
BRANCH   3  12
HETATM   12  O3  UNL     1      -4.660   0.258  14.020  1.00  0.00    -0.382 OA
ATOM     13  H3  UNL     1      -5.004  -0.157  14.803  1.00  0.00     0.210 HD
ENDBRANCH   3  12
ENDBRANCH   1   3
BRANCH   1  14
HETATM   14  C8  UNL     1      -3.969   3.715  12.866  1.00  0.00     0.124 C
HETATM   15  C9  UNL     1      -2.671   4.498  12.953  1.00  0.00     0.025 C
HETATM   16  C10 UNL     1      -2.544   5.081  11.535  1.00  0.00     0.023 C
HETATM   17  C11 UNL     1      -2.606   3.818  10.657  1.00  0.00     0.045 C
HETATM   18  C14 UNL     1      -3.732   5.966  11.331  1.00  0.00     0.061 C
HETATM   19  C12 UNL     1      -4.012   3.644  10.326  1.00  0.00     0.189 A
HETATM   20  O5  UNL     1      -5.001   2.957  10.862  1.00  0.00    -0.341 OA
HETATM   21  C13 UNL     1      -4.758   4.002  11.627  1.00  0.00     0.202 A
HETATM   22  O6  UNL     1      -4.964   5.316  11.513  1.00  0.00    -0.341 OA
HETATM   23  C15 UNL     1      -3.675   7.018  12.451  1.00  0.00     0.046 C
HETATM   24  C16 UNL     1      -3.682   6.735  10.036  1.00  0.00     0.046 C
ENDBRANCH   1  14
TORSDOF 4
ENDMDL