MODEL 4
REMARK VINA RESULT: -7.808006523      1.520      1.744
REMARK  4 active torsions:
REMARK  status: ('A' for Active; 'I' for Inactive)
REMARK    1  A    between atoms: C11_11  and  O1_12
REMARK    2  A    between atoms: C12_14  and  O2_15
REMARK    3  A    between atoms: O2_15  and  C13_16
REMARK    4  A    between atoms: C13_16  and  C14_18
ROOT
HETATM    1  C1  UNL     1      -3.990   0.167  11.938  1.00  0.00     0.019 C
HETATM    2  C2  UNL     1      -3.614   1.361  12.361  1.00  0.00    -0.029 C
HETATM    3  C3  UNL     1      -2.476   2.064  11.758  1.00  0.00     0.156 C
HETATM    4  C4  UNL     1      -1.744   1.523  10.630  1.00  0.00     0.040 C
HETATM    5  C5  UNL     1      -1.225   2.641   9.759  1.00  0.00     0.044 C
HETATM    6  C6  UNL     1      -0.847   3.910  10.331  1.00  0.00     0.101 C
HETATM    7  C7  UNL     1       0.642   4.168  10.023  1.00  0.00     0.049 C
HETATM    8  C8  UNL     1      -0.976   4.162  11.814  1.00  0.00     0.112 C
HETATM    9  C9  UNL     1      -2.425   4.263  12.085  1.00  0.00     0.206 C
HETATM   10  C10 UNL     1      -2.925   4.055  13.445  1.00  0.00     0.106 C
HETATM   11  C11 UNL     1      -4.353   3.494  13.458  1.00  0.00     0.157 C
HETATM   12  C12 UNL     1      -4.389   1.980  13.481  1.00  0.00     0.191 C
HETATM   13  O4  UNL     1      -2.847   5.465  11.466  1.00  0.00    -0.170 OA
HETATM   14  O5  UNL     1      -2.699   5.226  10.165  1.00  0.00    -0.063 OA
HETATM   15  O6  UNL     1      -1.501   5.031   9.760  1.00  0.00    -0.200 OA
HETATM   16  O7  UNL     1      -3.054   3.272  11.293  1.00  0.00    -0.342 OA
ENDROOT
BRANCH  12  17
HETATM   17  O2  UNL     1      -3.947   1.549  14.741  1.00  0.00    -0.308 OA
BRANCH  17  18
HETATM   18  C13 UNL     1      -4.723   0.844  15.646  1.00  0.00     0.263 C
HETATM   19  O3  UNL     1      -4.874  -0.379  15.446  1.00  0.00    -0.265 OA
BRANCH  18  20
HETATM   20  C14 UNL     1      -5.371   1.463  16.819  1.00  0.00     0.077 C
HETATM   21  C15 UNL     1      -5.945   0.362  17.680  1.00  0.00     0.020 C
HETATM   22  C16 UNL     1      -6.474   2.409  16.401  1.00  0.00     0.020 C
ENDBRANCH  18  20
ENDBRANCH  17  18
ENDBRANCH  12  17
BRANCH  11  23
HETATM   23  O1  UNL     1      -5.050   4.019  12.368  1.00  0.00    -0.392 OA
ATOM     24  H1  UNL     1      -4.431   4.452  11.791  1.00  0.00     0.210 HD
ENDBRANCH  11  23
TORSDOF 4
ENDMDL