MODEL 5
REMARK VINA RESULT: -6.343248839      2.299      3.505
REMARK  5 active torsions:
REMARK  status: ('A' for Active; 'I' for Inactive)
REMARK    1  A    between atoms: C2_2  and  O1_3
REMARK    2  A    between atoms: O1_3  and  C3_4
REMARK    3  A    between atoms: C3_4  and  C4_6
REMARK    4  A    between atoms: C7_10  and  C8_11
REMARK    5  A    between atoms: C8_11  and  O5_13
ROOT
HETATM    1  C4  UNL     1      -3.535   3.174  14.457  1.00  0.00     0.055 C
HETATM    2  C5  UNL     1      -3.655   2.778  13.210  1.00  0.00     0.057 C
HETATM    3  C6  UNL     1      -4.466   1.566  13.062  1.00  0.00     0.077 C
HETATM    4  O3  UNL     1      -3.164   3.289  12.027  1.00  0.00    -0.330 OA
HETATM    5  C7  UNL     1      -3.029   4.436  11.243  1.00  0.00     0.200 C
HETATM    6  C10 UNL     1      -1.686   4.504  10.553  1.00  0.00     0.082 C
HETATM    7  C11 UNL     1      -0.781   4.785  11.713  1.00  0.00    -0.018 C
HETATM    8  C12 UNL     1      -1.511   5.541  12.535  1.00  0.00     0.013 C
HETATM    9  C13 UNL     1      -2.876   5.753  11.946  1.00  0.00     0.193 C
HETATM   10  C14 UNL     1      -3.931   6.107  12.875  1.00  0.00     0.121 C
HETATM   11  S1  UNL     1      -3.356   5.941  14.568  1.00  0.00    -0.161 SA
HETATM   12  C15 UNL     1      -2.730   4.343  14.966  1.00  0.00     0.121 C
HETATM   13  N1  UNL     1      -2.664   6.633  10.804  1.00  0.00    -0.058 N
ATOM     14  H11 UNL     1      -2.289   7.548  11.055  1.00  0.00     0.278 HD
ATOM     15  H12 UNL     1      -3.528   6.971  10.379  1.00  0.00     0.278 HD
HETATM   16  C16 UNL     1      -1.818   5.885   9.891  1.00  0.00     0.246 C
ENDROOT
BRANCH   1  17
HETATM   17  C3  UNL     1      -4.186   2.417  15.493  1.00  0.00     0.292 C
HETATM   18  O2  UNL     1      -3.405   1.618  16.141  1.00  0.00    -0.259 OA
BRANCH  17  19
HETATM   19  O1  UNL     1      -5.477   2.384  15.924  1.00  0.00    -0.318 OA
BRANCH  19  20
HETATM   20  C2  UNL     1      -5.977   1.930  17.139  1.00  0.00     0.174 C
HETATM   21  C1  UNL     1      -7.240   1.113  17.044  1.00  0.00     0.034 C
ENDBRANCH  19  20
ENDBRANCH  17  19
ENDBRANCH   1  17
BRANCH   5  22
HETATM   22  C8  UNL     1      -4.100   4.558  10.238  1.00  0.00     0.297 C
HETATM   23  O4  UNL     1      -4.084   4.175   9.072  1.00  0.00    -0.262 OA
BRANCH  22  24
HETATM   24  O5  UNL     1      -5.289   5.186  10.660  1.00  0.00    -0.324 OA
HETATM   25  C9  UNL     1      -5.900   6.151   9.855  1.00  0.00     0.213 C
ENDBRANCH  22  24
ENDBRANCH   5  22
TORSDOF 5
ENDMDL