MODEL 4
REMARK VINA RESULT: -7.232984185      0.959      5.085
REMARK  4 active torsions:
REMARK  status: ('A' for Active; 'I' for Inactive)
REMARK    1  A    between atoms: O1_1  and  C1_3
REMARK    2  A    between atoms: N1_6  and  C4_7
REMARK    3  A    between atoms: C5_10  and  N3_11
REMARK    4  A    between atoms: C11_19  and  N5_20
ROOT
HETATM    1  C4  UNL     1      -4.193   3.522  13.207  1.00  0.00     0.709 A
HETATM    2  N2  UNL     1      -4.993   4.439  12.603  1.00  0.00    -0.021 N
ATOM      3  H2  UNL     1      -5.988   4.474  12.823  1.00  0.00     0.203 HD
HETATM    4  C5  UNL     1      -4.472   5.301  11.714  1.00  0.00     0.709 A
HETATM    5  N4  UNL     1      -3.148   5.261  11.414  1.00  0.00    -0.021 N
ATOM      6  H4  UNL     1      -2.760   5.918  10.738  1.00  0.00     0.203 HD
HETATM    7  C11 UNL     1      -2.340   4.351  12.011  1.00  0.00     0.709 A
HETATM    8  N6  UNL     1      -2.900   3.509  12.893  1.00  0.00    -0.021 N
ATOM      9  H6  UNL     1      -2.300   2.821  13.348  1.00  0.00     0.203 HD
ENDROOT
BRANCH   1  10
HETATM   10  N1  UNL     1      -4.730   2.600  14.153  1.00  0.00    -0.216 N
HETATM   11  C3  UNL     1      -5.694   3.088  15.087  1.00  0.00     0.143 C
HETATM   12  C2  UNL     1      -5.907   2.224  16.283  1.00  0.00     0.052 C
HETATM   13  C1  UNL     1      -4.802   1.259  16.566  1.00  0.00     0.121 C
HETATM   14  C17 UNL     1      -4.326   0.492  15.378  1.00  0.00     0.052 C
HETATM   15  C16 UNL     1      -4.269   1.247  14.101  1.00  0.00     0.143 C
BRANCH  13  16
HETATM   16  O1  UNL     1      -5.263   0.346  17.516  1.00  0.00    -0.395 OA
ATOM     17  H1  UNL     1      -4.688   0.395  18.270  1.00  0.00     0.210 HD
ENDBRANCH  13  16
ENDBRANCH   1  10
BRANCH   4  18
HETATM   18  N3  UNL     1      -5.337   6.256  11.092  1.00  0.00    -0.217 N
HETATM   19  C6  UNL     1      -5.659   6.120   9.707  1.00  0.00     0.141 C
HETATM   20  C7  UNL     1      -6.879   6.838   9.251  1.00  0.00     0.020 C
HETATM   21  C8  UNL     1      -7.266   8.013  10.078  1.00  0.00     0.003 C
HETATM   22  C9  UNL     1      -7.299   7.554  11.541  1.00  0.00     0.020 C
HETATM   23  C10 UNL     1      -5.846   7.332  11.924  1.00  0.00     0.141 C
ENDBRANCH   4  18
BRANCH   7  24
HETATM   24  N5  UNL     1      -0.947   4.290  11.712  1.00  0.00    -0.217 N
HETATM   25  C12 UNL     1      -0.333   3.191  11.007  1.00  0.00     0.141 C
HETATM   26  C13 UNL     1       1.072   3.633  10.669  1.00  0.00     0.022 C
HETATM   27  C14 UNL     1       1.306   4.938  11.398  1.00  0.00     0.022 C
HETATM   28  C15 UNL     1       0.006   5.296  12.069  1.00  0.00     0.141 C
ENDBRANCH   7  24
TORSDOF 4
ENDMDL