MODEL 1
REMARK VINA RESULT: -7.566870590      0.000      0.000
REMARK  3 active torsions:
REMARK  status: ('A' for Active; 'I' for Inactive)
REMARK    1  A    between atoms: C2_2  and  C3_3
REMARK    2  A    between atoms: C14_19  and  O4_20
REMARK    3  A    between atoms: C15_23  and  O6_24
ROOT
HETATM    1  C3  UNL     1      -4.164   1.939  14.875  1.00  0.00     0.019 C
HETATM    2  C4  UNL     1      -4.524   0.635  14.248  1.00  0.00     0.010 C
HETATM    3  C5  UNL     1      -3.719   0.220  13.051  1.00  0.00     0.043 C
HETATM    4  C6  UNL     1      -3.774   1.206  11.903  1.00  0.00     0.112 C
HETATM    5  C7  UNL     1      -5.188   1.490  11.644  1.00  0.00     0.211 C
HETATM    6  O1  UNL     1      -5.873   2.222  12.544  1.00  0.00    -0.355 OA
HETATM    7  C8  UNL     1      -5.556   3.290  13.220  1.00  0.00     0.297 C
HETATM    8  O2  UNL     1      -4.792   4.353  12.462  1.00  0.00    -0.299 OA
HETATM    9  C9  UNL     1      -3.959   4.023  11.348  1.00  0.00     0.207 A
HETATM   10  N1  UNL     1      -3.911   4.254  10.156  1.00  0.00    -0.240 N
ATOM     11  H1  UNL     1      -4.461   4.813   9.503  1.00  0.00     0.196 HD
HETATM   12  O3  UNL     1      -2.842   3.473  10.059  1.00  0.00    -0.229 OA
HETATM   13  C10 UNL     1      -2.799   3.244  11.380  1.00  0.00     0.258 A
HETATM   14  C11 UNL     1      -1.321   3.489  11.655  1.00  0.00     0.080 C
HETATM   15  C12 UNL     1      -0.818   2.272  10.799  1.00  0.00     0.008 C
HETATM   16  C13 UNL     1      -1.427   0.981  11.105  1.00  0.00     0.035 C
HETATM   17  C14 UNL     1      -2.906   0.717  10.762  1.00  0.00     0.155 C
HETATM   18  O5  UNL     1      -3.030   2.267  12.292  1.00  0.00    -0.331 OA
HETATM   19  C15 UNL     1      -4.951   3.131  14.590  1.00  0.00     0.180 C
ENDROOT
BRANCH   1  20
HETATM   20  C2  UNL     1      -4.227   1.709  16.406  1.00  0.00     0.003 C
HETATM   21  C1  UNL     1      -5.621   1.759  16.921  1.00  0.00     0.005 C
ENDBRANCH   1  20
BRANCH  19  22
HETATM   22  O6  UNL     1      -4.165   4.262  14.773  1.00  0.00    -0.385 OA
HETATM   23  C16 UNL     1      -2.851   4.037  15.054  1.00  0.00     0.202 C
ENDBRANCH  19  22
BRANCH  17  24
HETATM   24  O4  UNL     1      -3.038  -0.692  10.636  1.00  0.00    -0.392 OA
ATOM     25  H4  UNL     1      -2.471  -1.121  11.266  1.00  0.00     0.210 HD
ENDBRANCH  17  24
TORSDOF 3
ENDMDL