MODEL 3
REMARK VINA RESULT: -7.653262181      2.382      5.648
REMARK  5 active torsions:
REMARK  status: ('A' for Active; 'I' for Inactive)
REMARK    1  A    between atoms: C3_3  and  C4_4
REMARK    2  A    between atoms: C4_4  and  O2_6
REMARK    3  A    between atoms: O2_6  and  C5_7
REMARK    4  A    between atoms: C12_15  and  O4_16
REMARK    5  A    between atoms: O4_16  and  C13_17
ROOT
HETATM    1  C5  UNL     1      -3.950   2.942  14.297  1.00  0.00     0.142 C
HETATM    2  C6  UNL     1      -5.319   3.341  13.869  1.00  0.00     0.076 C
HETATM    3  C7  UNL     1      -5.595   4.783  14.140  1.00  0.00     0.110 A
HETATM    4  C8  UNL     1      -6.281   5.299  15.192  1.00  0.00     0.209 A
HETATM    5  O3  UNL     1      -6.895   5.221  13.853  1.00  0.00    -0.372 OA
HETATM    6  C9  UNL     1      -4.513   5.581  13.407  1.00  0.00     0.160 C
HETATM    7  C10 UNL     1      -3.348   5.714  14.313  1.00  0.00     0.043 C
HETATM    8  C11 UNL     1      -2.247   4.760  13.937  1.00  0.00     0.030 C
HETATM    9  C12 UNL     1      -1.957   5.013  12.447  1.00  0.00     0.171 C
HETATM   10  C15 UNL     1      -3.181   4.115  12.201  1.00  0.00     0.091 C
HETATM   11  C16 UNL     1      -3.089   3.288  10.960  1.00  0.00     0.049 C
HETATM   12  O6  UNL     1      -4.276   4.916  12.227  1.00  0.00    -0.369 OA
HETATM   13  C17 UNL     1      -2.832   3.441  13.487  1.00  0.00     0.059 C
ENDROOT
BRANCH   1  14
HETATM   14  O2  UNL     1      -3.905   1.506  14.282  1.00  0.00    -0.312 OA
BRANCH  14  15
HETATM   15  C4  UNL     1      -4.442   0.730  15.274  1.00  0.00     0.282 C
HETATM   16  O1  UNL     1      -4.630  -0.478  15.052  1.00  0.00    -0.260 OA
BRANCH  15  17
HETATM   17  C3  UNL     1      -4.773   1.365  16.557  1.00  0.00     0.077 C
HETATM   18  C2  UNL     1      -5.980   1.317  17.072  1.00  0.00    -0.025 C
HETATM   19  C1  UNL     1      -6.253   1.972  18.363  1.00  0.00     0.036 C
ENDBRANCH  15  17
ENDBRANCH  14  15
ENDBRANCH   1  14
BRANCH   9  20
HETATM   20  O4  UNL     1      -0.815   4.352  11.978  1.00  0.00    -0.313 OA
BRANCH  20  21
HETATM   21  C13 UNL     1       0.381   4.997  11.740  1.00  0.00     0.255 C
HETATM   22  C14 UNL     1       1.534   4.351  11.045  1.00  0.00     0.126 C
HETATM   23  O5  UNL     1       0.507   6.184  12.124  1.00  0.00    -0.266 OA
ENDBRANCH  20  21
ENDBRANCH   9  20
TORSDOF 5
ENDMDL