MODEL 5
REMARK VINA RESULT: -7.274809792      1.767      5.024
REMARK  6 active torsions:
REMARK  status: ('A' for Active; 'I' for Inactive)
REMARK    1  A    between atoms: C2_2  and  O2_4
REMARK    2  A    between atoms: O2_4  and  C3_5
REMARK    3  A    between atoms: C8_12  and  C9_13
REMARK    4  A    between atoms: C12_16  and  O5_17
REMARK    5  A    between atoms: O5_17  and  C13_18
REMARK    6  A    between atoms: C15_21  and  O7_22
ROOT
HETATM    1  C3  UNL     1      -4.427   3.252  14.917  1.00  0.00     0.134 C
HETATM    2  C4  UNL     1      -5.600   4.177  15.149  1.00  0.00     0.033 C
HETATM    3  C5  UNL     1      -6.103   4.865  13.931  1.00  0.00     0.012 C
HETATM    4  C6  UNL     1      -5.100   5.867  13.390  1.00  0.00     0.111 C
HETATM    5  C7  UNL     1      -5.144   5.735  11.901  1.00  0.00     0.259 C
HETATM    6  O3  UNL     1      -5.398   6.853  11.321  1.00  0.00    -0.265 OA
HETATM    7  O4  UNL     1      -4.933   4.560  11.352  1.00  0.00    -0.313 OA
HETATM    8  C8  UNL     1      -4.067   3.733  10.733  1.00  0.00     0.167 C
HETATM    9  C12 UNL     1      -3.784   2.416  11.377  1.00  0.00     0.190 C
HETATM   10  C15 UNL     1      -3.496   2.340  12.828  1.00  0.00     0.152 C
HETATM   11  C16 UNL     1      -4.611   2.320  13.776  1.00  0.00     0.067 C
ENDROOT
BRANCH   1  12
HETATM   12  O2  UNL     1      -4.165   2.593  16.143  1.00  0.00    -0.316 OA
BRANCH  12  13
HETATM   13  C2  UNL     1      -4.527   1.313  16.411  1.00  0.00     0.255 C
HETATM   14  C1  UNL     1      -5.906   0.924  16.859  1.00  0.00     0.126 C
HETATM   15  O1  UNL     1      -3.708   0.398  16.290  1.00  0.00    -0.266 OA
ENDBRANCH  12  13
ENDBRANCH   1  12
BRANCH  10  16
HETATM   16  O7  UNL     1      -2.548   3.279  13.205  1.00  0.00    -0.393 OA
ATOM     17  H7  UNL     1      -2.256   3.136  14.098  1.00  0.00     0.210 HD
ENDBRANCH  10  16
BRANCH   9  18
HETATM   18  O5  UNL     1      -4.834   1.496  11.119  1.00  0.00    -0.311 OA
BRANCH  18  19
HETATM   19  C13 UNL     1      -4.596   0.212  10.701  1.00  0.00     0.255 C
HETATM   20  C14 UNL     1      -4.437  -0.876  11.687  1.00  0.00     0.126 C
HETATM   21  O6  UNL     1      -4.512  -0.046   9.490  1.00  0.00    -0.266 OA
ENDBRANCH  18  19
ENDBRANCH   9  18
BRANCH   8  22
HETATM   22  C9  UNL     1      -2.896   4.392  10.065  1.00  0.00     0.010 C
HETATM   23  C10 UNL     1      -3.311   5.084   8.759  1.00  0.00     0.012 C
HETATM   24  C11 UNL     1      -1.724   3.563   9.734  1.00  0.00     0.012 C
ENDBRANCH   8  22
TORSDOF 6
ENDMDL