MODEL 3
REMARK VINA RESULT: -6.575537042      3.417      7.372
REMARK  4 active torsions:
REMARK  status: ('A' for Active; 'I' for Inactive)
REMARK    1  A    between atoms: C3_3  and  O1_4
REMARK    2  A    between atoms: N1_6  and  C4_7
REMARK    3  A    between atoms: C4_7  and  C5_8
REMARK    4  A    between atoms: C8_11  and  N2_12
ROOT
HETATM    1  C5  UNL     1      -3.053   1.887  11.925  1.00  0.00     0.004 C
HETATM    2  C6  UNL     1      -4.335   2.736  11.909  1.00  0.00     0.008 C
HETATM    3  C7  UNL     1      -4.601   3.049  13.375  1.00  0.00     0.036 C
HETATM    4  C8  UNL     1      -4.341   1.806  14.176  1.00  0.00     0.223 C
HETATM    5  C13 UNL     1      -4.527   0.523  13.411  1.00  0.00     0.036 C
HETATM    6  C14 UNL     1      -3.473   0.489  12.302  1.00  0.00     0.008 C
ENDROOT
BRANCH   1   7
HETATM    7  C4  UNL     1      -2.416   2.024  10.590  1.00  0.00     0.140 C
BRANCH   7   8
HETATM    8  N1  UNL     1      -1.694   3.250  10.370  1.00  0.00    -0.278 N
HETATM    9  C3  UNL     1      -0.615   3.686  11.058  1.00  0.00     0.169 A
HETATM   10  C2  UNL     1      -0.206   4.907  10.568  1.00  0.00     0.063 A
HETATM   11  C1  UNL     1       0.932   5.753  11.018  1.00  0.00     0.073 C
HETATM   12  N3  UNL     1      -1.068   5.181   9.573  1.00  0.00    -0.304 N
HETATM   13  C15 UNL     1      -1.968   4.183   9.451  1.00  0.00     0.330 A
HETATM   14  C16 UNL     1      -1.041   6.383   8.741  1.00  0.00     0.161 C
HETATM   15  O2  UNL     1      -2.888   4.201   8.587  1.00  0.00    -0.246 OA
BRANCH   9  16
HETATM   16  O1  UNL     1       0.008   3.022  12.109  1.00  0.00    -0.344 OA
ATOM     17  H1  UNL     1      -0.294   2.197  12.470  1.00  0.00     0.219 HD
ENDBRANCH   9  16
ENDBRANCH   7   8
ENDBRANCH   1   7
BRANCH   4  18
HETATM   18  N2  UNL     1      -5.101   1.861  15.390  1.00  0.00     0.094 N
HETATM   19  C9  UNL     1      -4.465   1.388  16.565  1.00  0.00     0.283 C
HETATM   20  C10 UNL     1      -5.538   0.631  17.364  1.00  0.00     0.104 C
HETATM   21  S1  UNL     1      -7.193   1.280  16.906  1.00  0.00    -0.166 SA
HETATM   22  C11 UNL     1      -6.941   3.040  16.529  1.00  0.00     0.104 C
HETATM   23  C12 UNL     1      -5.737   3.133  15.617  1.00  0.00     0.283 C
ENDBRANCH   4  18
TORSDOF 4
ENDMDL