MODEL 5
REMARK VINA RESULT: -6.000476517      1.747      2.284
REMARK  4 active torsions:
REMARK  status: ('A' for Active; 'I' for Inactive)
REMARK    1  A    between atoms: C2_2  and  S1_3
REMARK    2  A    between atoms: S1_3  and  C3_4
REMARK    3  A    between atoms: C5_10  and  N3_11
REMARK       I    between atoms: N4_14  and  C8_15
REMARK    4  A    between atoms: C8_15  and  C9_17
ROOT
HETATM    1  C3  UNL     1       0.381  10.145  15.178  1.00  0.00     0.176 A
HETATM    2  N1  UNL     1      -0.740   9.553  15.627  1.00  0.00    -0.165 N
ATOM      3  H1  UNL     1      -1.242   9.826  16.471  1.00  0.00     0.186 HD
HETATM    4  C4  UNL     1      -1.109   8.552  14.807  1.00  0.00     0.736 A
HETATM    5  N2  UNL     1      -1.963   7.560  14.501  1.00  0.00    -0.018 N
ATOM      6  H2  UNL     1      -2.784   7.315  15.056  1.00  0.00     0.203 HD
HETATM    7  C5  UNL     1      -1.599   6.931  13.373  1.00  0.00     0.711 A
HETATM    8  N5  UNL     1      -0.482   7.549  12.961  1.00  0.00    -0.095 N
ATOM      9  H5  UNL     1       0.053   7.313  12.125  1.00  0.00     0.208 HD
HETATM   10  N6  UNL     1      -0.187   8.527  13.827  1.00  0.00    -0.003 N
HETATM   11  N7  UNL     1       0.705   9.486  14.055  1.00  0.00    -0.242 N
ATOM     12  H7  UNL     1       1.513   9.691  13.466  1.00  0.00     0.192 HD
ENDROOT
BRANCH   7  13
HETATM   13  N3  UNL     1      -2.262   5.824  12.729  1.00  0.00    -0.213 N
HETATM   14  C6  UNL     1      -3.008   6.072  11.521  1.00  0.00     0.161 C
HETATM   15  C7  UNL     1      -3.961   4.965  11.180  1.00  0.00     0.146 C
HETATM   16  N4  UNL     1      -3.440   3.648  11.502  1.00  0.00    -0.348 N
HETATM   17  C8  UNL     1      -4.209   2.507  11.229  1.00  0.00     0.227 C
HETATM   18  C13 UNL     1      -2.136   3.545  12.096  1.00  0.00     0.146 C
HETATM   19  O1  UNL     1      -5.366   2.693  10.690  1.00  0.00    -0.273 OA
HETATM   20  C14 UNL     1      -2.165   4.501  13.308  1.00  0.00     0.161 C
BRANCH  17  21
HETATM   21  C9  UNL     1      -3.846   1.114  11.485  1.00  0.00     0.030 C
HETATM   22  C10 UNL     1      -4.814   0.158  10.776  1.00  0.00     0.025 C
HETATM   23  C11 UNL     1      -3.988   0.828  12.963  1.00  0.00     0.025 C
HETATM   24  C12 UNL     1      -2.453   0.791  11.000  1.00  0.00     0.025 C
ENDBRANCH  17  21
ENDBRANCH   7  13
BRANCH   1  25
HETATM   25  S1  UNL     1       1.264  11.534  15.926  1.00  0.00    -0.092 SA
BRANCH  25  26
HETATM   26  C2  UNL     1       0.416  13.075  15.498  1.00  0.00     0.078 C
HETATM   27  C1  UNL     1       0.600  14.070  16.614  1.00  0.00     0.016 C
ENDBRANCH  25  26
ENDBRANCH   1  25
TORSDOF 4
ENDMDL