MODEL 1
REMARK VINA RESULT: -8.882441937      0.000      0.000
REMARK  13 active torsions:
REMARK  status: ('A' for Active; 'I' for Inactive)
REMARK    1  A    between atoms: C2_2  and  C3_3
REMARK    2  A    between atoms: C3_3  and  C4_4
REMARK       I    between atoms: C4_4  and  N1_6
REMARK       I    between atoms: N1_6  and  C5_7
REMARK    3  A    between atoms: N1_6  and  C14_21
REMARK    4  A    between atoms: C5_7  and  C6_9
REMARK    5  A    between atoms: C6_9  and  O3_10
REMARK    6  A    between atoms: O3_10  and  C7_11
REMARK    7  A    between atoms: C10_14  and  C11_15
REMARK    8  A    between atoms: C16_26  and  C17_27
REMARK    9  A    between atoms: C17_27  and  C18_28
REMARK   10  A    between atoms: C18_28  and  C19_29
REMARK   11  A    between atoms: C19_29  and  C20_30
REMARK   12  A    between atoms: C20_30  and  C21_32
REMARK   13  A    between atoms: C20_30  and  C24_35
ROOT
HETATM    1  C4  UNL     1     -67.037 -12.318  21.936  1.00  0.00     0.232 C
HETATM    2  O1  UNL     1     -66.645 -13.371  22.540  1.00  0.00    -0.273 OA
HETATM    3  N1  UNL     1     -66.268 -11.734  20.890  1.00  0.00    -0.237 N
HETATM    4  C5  UNL     1     -65.061 -12.333  20.514  1.00  0.00     0.256 C
HETATM    5  O2  UNL     1     -64.358 -11.863  19.597  1.00  0.00    -0.270 OA
ENDROOT
BRANCH   3   6
HETATM    6  C14 UNL     1     -66.732 -10.539  20.217  1.00  0.00     0.114 C
HETATM    7  N2  UNL     1     -66.132  -9.433  20.439  1.00  0.00    -0.254 N
HETATM    8  O6  UNL     1     -66.471  -8.265  19.873  1.00  0.00    -0.279 OA
ATOM      9  H2  UNL     1     -65.344  -9.439  21.086  1.00  0.00     0.195 HD
HETATM   10  C15 UNL     1     -67.841  -8.079  19.492  1.00  0.00     0.206 C
HETATM   11  C16 UNL     1     -68.170  -9.266  18.644  1.00  0.00     0.019 C
HETATM   12  C25 UNL     1     -67.870 -10.593  19.293  1.00  0.00     0.085 C
BRANCH  11  13
HETATM   13  C17 UNL     1     -69.542  -9.226  18.017  1.00  0.00     0.007 C
BRANCH  13  14
HETATM   14  C18 UNL     1     -70.557  -8.539  18.859  1.00  0.00     0.004 C
BRANCH  14  15
HETATM   15  C19 UNL     1     -71.409  -9.383  19.732  1.00  0.00     0.053 C
BRANCH  15  16
HETATM   16  C20 UNL     1     -72.837  -9.536  19.413  1.00  0.00     0.203 C
HETATM   17  F1  UNL     1     -73.076  -9.236  18.082  1.00  0.00    -0.233 F
BRANCH  16  18
HETATM   18  C21 UNL     1     -73.662  -8.541  20.215  1.00  0.00     0.034 A
HETATM   19  C22 UNL     1     -75.099  -8.352  19.888  1.00  0.00     0.008 A
HETATM   20  C23 UNL     1     -74.127  -7.255  19.589  1.00  0.00     0.008 A
ENDBRANCH  16  18
BRANCH  16  21
HETATM   21  C24 UNL     1     -73.398 -10.905  19.730  1.00  0.00     0.423 C
HETATM   22  F2  UNL     1     -74.351 -11.305  18.845  1.00  0.00    -0.167 F
HETATM   23  F3  UNL     1     -73.769 -11.007  21.049  1.00  0.00    -0.167 F
HETATM   24  F4  UNL     1     -72.322 -11.793  19.575  1.00  0.00    -0.167 F
ENDBRANCH  16  21
ENDBRANCH  15  16
ENDBRANCH  14  15
ENDBRANCH  13  14
ENDBRANCH  11  13
ENDBRANCH   3   6
BRANCH   1  25
HETATM   25  C3  UNL     1     -68.331 -11.795  22.431  1.00  0.00     0.103 C
BRANCH  25  26
HETATM   26  C2  UNL     1     -69.505 -12.475  21.685  1.00  0.00     0.005 C
HETATM   27  C1  UNL     1     -70.774 -12.257  22.453  1.00  0.00     0.005 C
ENDBRANCH  25  26
ENDBRANCH   1  25
BRANCH   4  28
HETATM   28  C6  UNL     1     -64.536 -13.552  21.167  1.00  0.00     0.279 C
BRANCH  28  29
HETATM   29  O3  UNL     1     -64.224 -14.542  20.178  1.00  0.00    -0.340 OA
BRANCH  29  30
HETATM   30  C7  UNL     1     -65.175 -15.358  19.630  1.00  0.00     0.091 A
HETATM   31  C8  UNL     1     -66.483 -14.982  19.404  1.00  0.00     0.039 A
HETATM   32  C9  UNL     1     -67.404 -15.846  18.850  1.00  0.00     0.021 A
HETATM   33  C10 UNL     1     -67.016 -17.125  18.507  1.00  0.00     0.042 A
HETATM   34  C12 UNL     1     -65.718 -17.536  18.718  1.00  0.00     0.045 A
HETATM   35  C13 UNL     1     -64.821 -16.636  19.279  1.00  0.00     0.068 A
HETATM   36 CL1  UNL     1     -63.158 -17.172  19.548  1.00  0.00    -0.081 Cl
BRANCH  33  37
HETATM   37  C11 UNL     1     -67.944 -18.083  17.916  1.00  0.00     0.209 C
HETATM   38  O4  UNL     1     -67.888 -18.246  16.663  1.00  0.00    -0.644 OA
HETATM   39  O5  UNL     1     -68.849 -18.785  18.690  1.00  0.00    -0.644 OA
ENDBRANCH  33  37
ENDBRANCH  29  30
ENDBRANCH  28  29
ENDBRANCH   4  28
TORSDOF 13
ENDMDL