MODEL 5
REMARK VINA RESULT: -7.736412044      3.571      8.569
REMARK  10 active torsions:
REMARK  status: ('A' for Active; 'I' for Inactive)
REMARK    1  A    between atoms: C2_2  and  C3_3
REMARK    2  A    between atoms: C2_2  and  C19_26
REMARK    3  A    between atoms: C2_2  and  N1_29
REMARK    4  A    between atoms: C3_3  and  C4_4
REMARK    5  A    between atoms: C7_7  and  O1_8
REMARK    6  A    between atoms: O1_8  and  C8_9
REMARK    7  A    between atoms: C8_9  and  C9_10
REMARK    8  A    between atoms: C9_10  and  C10_11
REMARK    9  A    between atoms: C10_11  and  O2_12
REMARK   10  A    between atoms: O2_12  and  C11_13
ROOT
HETATM    1  C4  UNL     1     -66.503 -15.034  19.852  1.00  0.00    -0.032 A
HETATM    2  C5  UNL     1     -67.721 -14.628  19.267  1.00  0.00     0.012 A
HETATM    3  C6  UNL     1     -67.978 -13.339  18.890  1.00  0.00     0.039 A
HETATM    4  C7  UNL     1     -67.042 -12.346  19.067  1.00  0.00     0.092 A
HETATM    5  C17 UNL     1     -65.845 -12.704  19.632  1.00  0.00     0.089 A
HETATM    6 CL4  UNL     1     -64.594 -11.507  19.895  1.00  0.00    -0.080 Cl
HETATM    7  C18 UNL     1     -65.589 -14.023  20.013  1.00  0.00     0.065 A
HETATM    8 CL5  UNL     1     -63.984 -14.426  20.644  1.00  0.00    -0.082 Cl
ENDROOT
BRANCH   4   9
HETATM    9  O1  UNL     1     -67.288 -11.029  18.690  1.00  0.00    -0.349 OA
BRANCH   9  10
HETATM   10  C8  UNL     1     -68.068 -10.219  19.546  1.00  0.00     0.178 C
BRANCH  10  11
HETATM   11  C9  UNL     1     -68.116  -8.803  19.068  1.00  0.00     0.053 C
BRANCH  11  12
HETATM   12  C10 UNL     1     -69.555  -8.436  18.776  1.00  0.00     0.178 C
BRANCH  12  13
HETATM   13  O2  UNL     1     -70.202  -7.925  19.937  1.00  0.00    -0.348 OA
BRANCH  13  14
HETATM   14  C11 UNL     1     -71.589  -7.963  19.945  1.00  0.00     0.112 A
HETATM   15  C12 UNL     1     -72.269  -9.092  20.352  1.00  0.00     0.070 A
HETATM   16 CL1  UNL     1     -71.347 -10.479  20.859  1.00  0.00    -0.081 Cl
HETATM   17  C13 UNL     1     -73.637  -9.175  20.376  1.00  0.00     0.050 A
HETATM   18  C14 UNL     1     -74.368  -8.081  19.975  1.00  0.00     0.037 A
HETATM   19 CL2  UNL     1     -76.116  -8.059  19.959  1.00  0.00    -0.084 Cl
HETATM   20  C15 UNL     1     -73.706  -6.920  19.556  1.00  0.00     0.050 A
HETATM   21  C16 UNL     1     -72.331  -6.854  19.538  1.00  0.00     0.070 A
HETATM   22 CL3  UNL     1     -71.490  -5.400  19.014  1.00  0.00    -0.081 Cl
ENDBRANCH  13  14
ENDBRANCH  12  13
ENDBRANCH  11  12
ENDBRANCH  10  11
ENDBRANCH   9  10
ENDBRANCH   4   9
BRANCH   1  23
HETATM   23  C3  UNL     1     -66.368 -16.426  20.256  1.00  0.00     0.093 C
BRANCH  23  24
HETATM   24  C2  UNL     1     -65.825 -17.375  19.254  1.00  0.00     0.246 C
HETATM   25  C1  UNL     1     -65.598 -16.800  17.892  1.00  0.00     0.062 C
BRANCH  24  26
HETATM   26  C19 UNL     1     -64.497 -17.901  19.739  1.00  0.00     0.213 C
HETATM   27  O3  UNL     1     -64.402 -18.890  20.503  1.00  0.00    -0.646 OA
HETATM   28  O4  UNL     1     -63.342 -17.272  19.326  1.00  0.00    -0.646 OA
ENDBRANCH  24  26
BRANCH  24  29
HETATM   29  N1  UNL     1     -66.707 -18.551  19.195  1.00  0.00     0.113 N
HETATM   30  C20 UNL     1     -67.963 -18.321  19.904  1.00  0.00     0.300 C
HETATM   31  C21 UNL     1     -68.748 -19.635  19.718  1.00  0.00     0.198 C
HETATM   32  O5  UNL     1     -69.006 -19.918  18.401  1.00  0.00    -0.388 OA
HETATM   33  C22 UNL     1     -67.785 -20.060  17.705  1.00  0.00     0.198 C
HETATM   34  C23 UNL     1     -67.116 -18.706  17.798  1.00  0.00     0.300 C
ENDBRANCH  24  29
ENDBRANCH  23  24
ENDBRANCH   1  23
TORSDOF 10
ENDMDL