MODEL 4
REMARK VINA RESULT: -8.424541312      3.085      8.621
REMARK  13 active torsions:
REMARK  status: ('A' for Active; 'I' for Inactive)
REMARK    1  A    between atoms: C2_2  and  C3_3
REMARK    2  A    between atoms: C3_3  and  C4_4
REMARK    3  A    between atoms: C4_4  and  O1_5
REMARK    4  A    between atoms: C4_4  and  N1_7
REMARK    5  A    between atoms: N1_7  and  C5_9
REMARK    6  A    between atoms: C7_13  and  N3_14
REMARK    7  A    between atoms: C11_18  and  C12_19
REMARK    8  A    between atoms: C12_19  and  C13_20
REMARK    9  A    between atoms: C13_20  and  C14_21
REMARK   10  A    between atoms: C18_27  and  C19_28
REMARK   11  A    between atoms: C19_28  and  S1_31
REMARK   12  A    between atoms: S1_31  and  C20_34
REMARK   13  A    between atoms: C20_34  and  C21_35
ROOT
HETATM    1  C5  UNL     1     -69.452 -16.384  18.734  1.00  0.00     0.151 A
HETATM    2  N2  UNL     1     -68.953 -15.239  19.099  1.00  0.00    -0.334 N
ATOM      3  H2  UNL     1     -67.999 -15.202  19.459  1.00  0.00     0.168 HD
HETATM    4  C6  UNL     1     -69.649 -14.133  19.015  1.00  0.00     0.078 A
HETATM    5  C7  UNL     1     -69.269 -12.850  19.429  1.00  0.00     0.059 A
HETATM    6  C17 UNL     1     -70.162 -11.810  19.334  1.00  0.00     0.046 A
HETATM    7  C18 UNL     1     -71.437 -11.885  18.861  1.00  0.00     0.032 A
HETATM    8  C23 UNL     1     -71.805 -13.182  18.438  1.00  0.00     0.035 A
HETATM    9  C24 UNL     1     -70.925 -14.240  18.526  1.00  0.00     0.038 A
HETATM   10  S2  UNL     1     -71.042 -15.921  18.215  1.00  0.00    -0.052 SA
ENDROOT
BRANCH   5  11
HETATM   11  N3  UNL     1     -67.992 -12.594  19.966  1.00  0.00    -0.379 N
HETATM   12  C8  UNL     1     -67.823 -12.244  21.382  1.00  0.00     0.123 C
HETATM   13  C9  UNL     1     -67.371 -10.814  21.410  1.00  0.00     0.020 C
HETATM   14  C10 UNL     1     -66.677 -10.306  20.206  1.00  0.00     0.008 C
HETATM   15  C11 UNL     1     -65.996 -11.332  19.358  1.00  0.00     0.004 C
HETATM   16  C16 UNL     1     -66.746 -12.640  19.228  1.00  0.00     0.127 C
BRANCH  15  17
HETATM   17  C12 UNL     1     -64.544 -11.535  19.633  1.00  0.00     0.012 C
BRANCH  17  18
HETATM   18  C13 UNL     1     -64.166 -12.852  20.225  1.00  0.00     0.079 C
BRANCH  18  19
HETATM   19  C14 UNL     1     -63.987 -12.734  21.722  1.00  0.00     0.240 C
HETATM   20  C15 UNL     1     -64.910 -13.611  22.518  1.00  0.00     0.090 C
HETATM   21  F1  UNL     1     -64.105 -11.391  22.095  1.00  0.00    -0.207 F
HETATM   22  F2  UNL     1     -62.662 -13.104  21.980  1.00  0.00    -0.207 F
ENDBRANCH  18  19
ENDBRANCH  17  18
ENDBRANCH  15  17
ENDBRANCH   5  11
BRANCH   7  23
HETATM   23  C19 UNL     1     -72.470 -10.874  18.920  1.00  0.00     0.370 C
HETATM   24  F3  UNL     1     -73.351 -11.071  17.805  1.00  0.00    -0.183 F
HETATM   25  F4  UNL     1     -73.355 -11.202  19.994  1.00  0.00    -0.183 F
BRANCH  23  26
HETATM   26  S1  UNL     1     -72.099  -9.183  19.009  1.00  0.00     0.217 S
HETATM   27  O2  UNL     1     -71.812  -8.790  20.440  1.00  0.00    -0.221 OA
HETATM   28  O3  UNL     1     -70.980  -8.754  18.139  1.00  0.00    -0.221 OA
BRANCH  26  29
HETATM   29  C20 UNL     1     -73.657  -8.381  18.575  1.00  0.00     0.147 C
BRANCH  29  30
HETATM   30  C21 UNL     1     -74.199  -7.463  19.585  1.00  0.00     0.011 C
HETATM   31  C22 UNL     1     -75.549  -8.038  20.022  1.00  0.00     0.006 C
ENDBRANCH  29  30
ENDBRANCH  26  29
ENDBRANCH  23  26
ENDBRANCH   7  23
BRANCH   1  32
HETATM   32  N1  UNL     1     -68.979 -17.760  18.802  1.00  0.00    -0.321 N
ATOM     33  H1  UNL     1     -69.456 -18.462  19.367  1.00  0.00     0.169 HD
BRANCH  32  34
HETATM   34  C4  UNL     1     -67.840 -18.071  18.056  1.00  0.00     0.117 C
BRANCH  34  35
HETATM   35  C3  UNL     1     -66.463 -18.129  18.518  1.00  0.00     0.083 C
BRANCH  35  36
HETATM   36  C2  UNL     1     -65.733 -16.844  18.159  1.00  0.00     0.003 C
HETATM   37  C1  UNL     1     -64.747 -16.382  19.176  1.00  0.00     0.005 C
ENDBRANCH  35  36
ENDBRANCH  34  35
BRANCH  34  38
HETATM   38  O1  UNL     1     -67.996 -18.359  16.784  1.00  0.00    -0.349 OA
ATOM     39  H1  UNL     1     -67.343 -18.953  16.435  1.00  0.00     0.219 HD
ENDBRANCH  34  38
ENDBRANCH  32  34
ENDBRANCH   1  32
TORSDOF 13
ENDMDL