MODEL 4
REMARK VINA RESULT: -8.790044799      1.611      3.313
REMARK  14 active torsions:
REMARK  status: ('A' for Active; 'I' for Inactive)
REMARK    1  A    between atoms: C3_3  and  C4_4
REMARK    2  A    between atoms: C4_4  and  O1_5
REMARK    3  A    between atoms: C6_8  and  C7_9
REMARK    4  A    between atoms: C11_13  and  O2_14
REMARK    5  A    between atoms: O2_14  and  C12_15
REMARK    6  A    between atoms: N1_18  and  C15_19
REMARK    7  A    between atoms: C15_19  and  C16_20
REMARK    8  A    between atoms: C16_20  and  C17_21
REMARK    9  A    between atoms: C17_21  and  C18_22
REMARK   10  A    between atoms: C18_22  and  C19_25
REMARK   11  A    between atoms: C21_30  and  C23_32
REMARK   12  A    between atoms: C23_32  and  O4_34
REMARK   13  A    between atoms: O4_34  and  C24_35
REMARK   14  A    between atoms: C24_35  and  C25_36
ROOT
HETATM    1  C12 UNL     1     -68.847 -12.690  19.657  1.00  0.00     0.150 C
HETATM    2  C13 UNL     1     -69.747 -12.273  18.523  1.00  0.00     0.053 C
HETATM    3  C14 UNL     1     -69.496 -10.817  18.210  1.00  0.00     0.119 C
HETATM    4  N1  UNL     1     -70.061 -10.033  19.252  1.00  0.00    -0.411 N
HETATM    5  C20 UNL     1     -70.239 -10.750  20.479  1.00  0.00     0.138 C
HETATM    6  C21 UNL     1     -69.041 -11.685  20.750  1.00  0.00     0.086 C
HETATM    7  C22 UNL     1     -67.877 -10.736  20.934  1.00  0.00     0.030 C
ENDROOT
BRANCH   1   8
HETATM    8  O2  UNL     1     -68.820 -13.999  20.048  1.00  0.00    -0.343 OA
BRANCH   8   9
HETATM    9  C11 UNL     1     -68.480 -15.115  19.375  1.00  0.00     0.083 A
HETATM   10  C6  UNL     1     -69.407 -15.997  18.857  1.00  0.00    -0.016 A
HETATM   11  C5  UNL     1     -68.881 -17.110  18.167  1.00  0.00     0.020 A
HETATM   12  C3  UNL     1     -67.534 -17.335  18.004  1.00  0.00    -0.028 A
HETATM   13  C2  UNL     1     -66.629 -16.452  18.528  1.00  0.00    -0.045 A
HETATM   14  C1  UNL     1     -65.157 -16.634  18.391  1.00  0.00     0.049 C
HETATM   15  C28 UNL     1     -67.101 -15.359  19.203  1.00  0.00    -0.021 A
HETATM   16  C29 UNL     1     -66.124 -14.421  19.790  1.00  0.00     0.052 C
BRANCH  10  17
HETATM   17  C7  UNL     1     -70.831 -15.853  19.037  1.00  0.00    -0.021 C
HETATM   18  C8  UNL     1     -71.190 -15.520  20.513  1.00  0.00     0.019 C
HETATM   19  C9  UNL     1     -71.723 -15.219  18.090  1.00  0.00     0.019 C
HETATM   20  C10 UNL     1     -71.358 -17.369  19.035  1.00  0.00     0.019 C
ENDBRANCH  10  17
BRANCH  12  21
HETATM   21  C4  UNL     1     -67.022 -18.519  17.273  1.00  0.00     0.203 C
BRANCH  21  22
HETATM   22  O1  UNL     1     -67.964 -18.998  16.364  1.00  0.00    -0.396 OA
ATOM     23  H1  UNL     1     -67.675 -19.810  15.964  1.00  0.00     0.209 HD
ENDBRANCH  21  22
ENDBRANCH  12  21
ENDBRANCH   8   9
ENDBRANCH   1   8
BRANCH   6  24
HETATM   24  C23 UNL     1     -69.281 -12.287  22.106  1.00  0.00     0.271 C
HETATM   25  O3  UNL     1     -68.352 -12.263  22.925  1.00  0.00    -0.264 OA
BRANCH  24  26
HETATM   26  O4  UNL     1     -70.444 -12.845  22.472  1.00  0.00    -0.320 OA
BRANCH  26  27
HETATM   27  C24 UNL     1     -71.561 -12.527  23.148  1.00  0.00     0.182 C
BRANCH  27  28
HETATM   28  C25 UNL     1     -72.769 -11.994  22.470  1.00  0.00     0.002 C
HETATM   29  C26 UNL     1     -74.008 -12.412  23.323  1.00  0.00     0.011 C
HETATM   30  C27 UNL     1     -73.062 -12.594  21.120  1.00  0.00     0.011 C
ENDBRANCH  27  28
ENDBRANCH  26  27
ENDBRANCH  24  26
ENDBRANCH   6  24
BRANCH   4  31
HETATM   31  C15 UNL     1     -69.588  -8.698  19.362  1.00  0.00     0.117 C
BRANCH  31  32
HETATM   32  C16 UNL     1     -70.683  -7.761  18.880  1.00  0.00     0.026 C
BRANCH  32  33
HETATM   33  C17 UNL     1     -71.757  -7.576  19.926  1.00  0.00     0.090 C
BRANCH  33  34
HETATM   34  C18 UNL     1     -73.089  -7.837  19.255  1.00  0.00     0.339 C
HETATM   35  F1  UNL     1     -72.953  -8.089  17.914  1.00  0.00    -0.196 F
HETATM   36  F2  UNL     1     -73.923  -6.720  19.370  1.00  0.00    -0.196 F
BRANCH  34  37
HETATM   37  C19 UNL     1     -73.840  -8.970  19.950  1.00  0.00     0.454 C
HETATM   38  F3  UNL     1     -73.993 -10.029  19.104  1.00  0.00    -0.165 F
HETATM   39  F4  UNL     1     -75.068  -8.514  20.335  1.00  0.00    -0.165 F
HETATM   40  F5  UNL     1     -73.130  -9.363  21.061  1.00  0.00    -0.165 F
ENDBRANCH  34  37
ENDBRANCH  33  34
ENDBRANCH  32  33
ENDBRANCH  31  32
ENDBRANCH   4  31
TORSDOF 14
ENDMDL