MODEL 4
REMARK VINA RESULT: -7.827216820      5.603      8.605
REMARK  13 active torsions:
REMARK  status: ('A' for Active; 'I' for Inactive)
REMARK    1  A    between atoms: O1_2  and  C2_3
REMARK    2  A    between atoms: C2_3  and  C3_5
REMARK    3  A    between atoms: C3_5  and  C4_6
REMARK    4  A    between atoms: C4_6  and  C5_7
REMARK    5  A    between atoms: C5_7  and  C6_8
REMARK    6  A    between atoms: C7_9  and  C8_10
REMARK    7  A    between atoms: C8_10  and  C9_11
REMARK    8  A    between atoms: C10_12  and  O3_13
REMARK    9  A    between atoms: O3_13  and  C11_14
REMARK   10  A    between atoms: C11_14  and  C14_17
REMARK   11  A    between atoms: C14_17  and  C15_18
REMARK   12  A    between atoms: C15_18  and  C16_19
REMARK   13  A    between atoms: C20_31  and  C21_32
ROOT
HETATM    1  C9  UNL     1     -70.959  -5.402  19.153  1.00  0.00     0.065 C
HETATM    2  C10 UNL     1     -70.180  -6.220  20.150  1.00  0.00     0.230 C
HETATM    3  N1  UNL     1     -70.051  -5.500  21.377  1.00  0.00    -0.335 N
ATOM      4  H1  UNL     1     -69.798  -6.056  22.194  1.00  0.00     0.165 HD
HETATM    5  C17 UNL     1     -70.211  -4.259  21.580  1.00  0.00     0.176 C
HETATM    6  N2  UNL     1     -70.100  -3.454  22.787  1.00  0.00    -0.361 N
ATOM      7  H2  UNL     1     -69.987  -3.803  23.739  1.00  0.00     0.162 HD
HETATM    8  C18 UNL     1     -70.180  -2.056  22.383  1.00  0.00     0.142 C
HETATM    9  C19 UNL     1     -70.950  -2.128  21.073  1.00  0.00     0.146 C
HETATM   10  N3  UNL     1     -70.566  -3.408  20.501  1.00  0.00    -0.343 N
HETATM   11  C20 UNL     1     -70.472  -3.958  19.178  1.00  0.00     0.129 C
ENDROOT
BRANCH   1  12
HETATM   12  C8  UNL     1     -72.445  -5.490  19.383  1.00  0.00     0.038 C
BRANCH  12  13
HETATM   13  C7  UNL     1     -72.920  -6.862  19.695  1.00  0.00    -0.030 C
HETATM   14  C6  UNL     1     -74.193  -7.208  19.636  1.00  0.00    -0.031 C
BRANCH  14  15
HETATM   15  C5  UNL     1     -74.605  -8.582  19.957  1.00  0.00     0.027 C
BRANCH  15  16
HETATM   16  C4  UNL     1     -73.431  -9.477  20.302  1.00  0.00     0.013 C
BRANCH  16  17
HETATM   17  C3  UNL     1     -73.505 -10.799  19.593  1.00  0.00     0.111 C
BRANCH  17  18
HETATM   18  C2  UNL     1     -73.119 -11.852  20.564  1.00  0.00     0.258 C
HETATM   19  O2  UNL     1     -72.772 -12.974  20.122  1.00  0.00    -0.265 OA
BRANCH  18  20
HETATM   20  O1  UNL     1     -73.144 -11.596  21.909  1.00  0.00    -0.326 OA
HETATM   21  C1  UNL     1     -72.086 -12.011  22.769  1.00  0.00     0.213 C
ENDBRANCH  18  20
ENDBRANCH  17  18
ENDBRANCH  16  17
ENDBRANCH  15  16
ENDBRANCH  14  15
ENDBRANCH  12  13
ENDBRANCH   1  12
BRANCH   2  22
HETATM   22  O3  UNL     1     -68.894  -6.434  19.667  1.00  0.00    -0.356 OA
BRANCH  22  23
HETATM   23  C11 UNL     1     -68.640  -7.658  19.130  1.00  0.00     0.056 C
HETATM   24  C12 UNL     1     -67.415  -8.238  19.809  1.00  0.00     0.045 C
HETATM   25  C13 UNL     1     -68.354  -7.655  17.655  1.00  0.00     0.045 C
BRANCH  23  26
HETATM   26  C14 UNL     1     -69.760  -8.611  19.494  1.00  0.00     0.046 C
BRANCH  26  27
HETATM   27  C15 UNL     1     -70.210  -9.469  18.371  1.00  0.00     0.120 C
BRANCH  27  28
HETATM   28  C16 UNL     1     -69.873 -10.930  18.575  1.00  0.00     0.388 C
HETATM   29  F1  UNL     1     -69.938 -11.275  19.924  1.00  0.00    -0.171 F
HETATM   30  F2  UNL     1     -70.750 -11.765  17.921  1.00  0.00    -0.171 F
HETATM   31  F3  UNL     1     -68.599 -11.233  18.145  1.00  0.00    -0.171 F
ENDBRANCH  27  28
ENDBRANCH  26  27
ENDBRANCH  23  26
ENDBRANCH  22  23
ENDBRANCH   2  22
BRANCH  11  32
HETATM   32  C21 UNL     1     -70.983  -3.115  18.107  1.00  0.00    -0.033 A
HETATM   33  C22 UNL     1     -70.252  -2.809  16.974  1.00  0.00     0.011 A
HETATM   34  C23 UNL     1     -70.723  -2.014  15.951  1.00  0.00     0.026 A
HETATM   35  C24 UNL     1     -71.999  -1.505  16.085  1.00  0.00     0.055 A
HETATM   36 CL1  UNL     1     -72.667  -0.495  14.843  1.00  0.00    -0.083 Cl
HETATM   37  C25 UNL     1     -72.776  -1.776  17.192  1.00  0.00     0.056 A
HETATM   38 CL2  UNL     1     -74.396  -1.103  17.313  1.00  0.00    -0.083 Cl
HETATM   39  C26 UNL     1     -72.277  -2.571  18.195  1.00  0.00     0.034 A
ENDBRANCH  11  32
TORSDOF 13
ENDMDL