MODEL 1
REMARK VINA RESULT: -8.576621483      0.000      0.000
REMARK  10 active torsions:
REMARK  status: ('A' for Active; 'I' for Inactive)
REMARK    1  A    between atoms: O1_2  and  C2_3
REMARK    2  A    between atoms: C2_3  and  C3_4
REMARK    3  A    between atoms: C3_4  and  C4_5
REMARK    4  A    between atoms: C4_5  and  C5_6
REMARK       I    between atoms: C5_6  and  N1_8
REMARK    5  A    between atoms: N1_8  and  S1_10
REMARK    6  A    between atoms: S1_10  and  C6_13
REMARK    7  A    between atoms: C13_23  and  C14_24
REMARK    8  A    between atoms: C17_27  and  O5_28
REMARK    9  A    between atoms: O5_28  and  C18_29
REMARK   10  A    between atoms: C18_29  and  C19_32
ROOT
HETATM    1  C4  UNL     1     -66.342 -11.235  20.977  1.00  0.00     0.052 A
HETATM    2  C12 UNL     1     -67.109 -10.952  22.304  1.00  0.00     0.031 A
HETATM    3  C13 UNL     1     -67.203 -12.213  21.573  1.00  0.00     0.045 A
ENDROOT
BRANCH   1   4
HETATM    4  C3  UNL     1     -64.840 -11.292  21.162  1.00  0.00     0.046 C
BRANCH   4   5
HETATM    5  C2  UNL     1     -64.114 -12.408  20.535  1.00  0.00     0.168 C
BRANCH   5   6
HETATM    6  O1  UNL     1     -64.153 -13.629  21.151  1.00  0.00    -0.396 OA
HETATM    7  C1  UNL     1     -64.696 -14.629  20.357  1.00  0.00     0.201 C
ENDBRANCH   5   6
ENDBRANCH   4   5
ENDBRANCH   1   4
BRANCH   1   8
HETATM    8  C5  UNL     1     -66.731 -10.220  19.959  1.00  0.00     0.240 C
HETATM    9  O2  UNL     1     -66.164 -10.233  18.842  1.00  0.00    -0.272 OA
HETATM   10  N1  UNL     1     -67.700  -9.267  20.216  1.00  0.00    -0.249 N
ATOM     11  H1  UNL     1     -68.125  -9.325  21.142  1.00  0.00     0.182 HD
BRANCH  10  12
HETATM   12  S1  UNL     1     -68.296  -8.014  19.232  1.00  0.00     0.268 S
HETATM   13  O3  UNL     1     -67.712  -6.665  19.602  1.00  0.00    -0.200 OA
HETATM   14  O4  UNL     1     -67.991  -8.255  17.761  1.00  0.00    -0.200 OA
BRANCH  12  15
HETATM   15  C6  UNL     1     -70.033  -7.851  19.335  1.00  0.00     0.123 A
HETATM   16  C7  UNL     1     -70.637  -6.712  19.818  1.00  0.00     0.060 A
HETATM   17 CL1  UNL     1     -69.660  -5.403  20.476  1.00  0.00    -0.083 Cl
HETATM   18  C8  UNL     1     -72.013  -6.576  19.856  1.00  0.00     0.049 A
HETATM   19  C9  UNL     1     -72.804  -7.614  19.397  1.00  0.00     0.037 A
HETATM   20 CL2  UNL     1     -74.532  -7.395  19.462  1.00  0.00    -0.084 Cl
HETATM   21  C10 UNL     1     -72.217  -8.755  18.916  1.00  0.00     0.049 A
HETATM   22  C11 UNL     1     -70.866  -8.867  18.887  1.00  0.00     0.060 A
HETATM   23 CL3  UNL     1     -70.073 -10.318  18.280  1.00  0.00    -0.083 Cl
ENDBRANCH  12  15
ENDBRANCH  10  12
ENDBRANCH   1   8
BRANCH   3  24
HETATM   24  C14 UNL     1     -68.578 -12.598  21.111  1.00  0.00    -0.009 A
HETATM   25  C15 UNL     1     -69.769 -12.043  21.510  1.00  0.00     0.018 A
HETATM   26  C16 UNL     1     -70.887 -12.500  20.943  1.00  0.00     0.046 A
HETATM   27  C17 UNL     1     -70.775 -13.482  20.008  1.00  0.00     0.116 A
HETATM   28  S2  UNL     1     -69.069 -13.745  19.950  1.00  0.00    -0.070 SA
BRANCH  27  29
HETATM   29  O5  UNL     1     -71.768 -14.141  19.255  1.00  0.00    -0.276 OA
BRANCH  29  30
HETATM   30  C18 UNL     1     -72.000 -13.761  17.925  1.00  0.00     0.363 C
HETATM   31  F1  UNL     1     -70.770 -13.684  17.299  1.00  0.00    -0.175 F
HETATM   32  F2  UNL     1     -72.689 -14.770  17.245  1.00  0.00    -0.175 F
BRANCH  30  33
HETATM   33  C19 UNL     1     -72.760 -12.503  17.727  1.00  0.00     0.089 A
HETATM   34  C20 UNL     1     -73.843 -12.081  18.648  1.00  0.00     0.014 A
HETATM   35  C21 UNL     1     -74.225 -12.634  17.320  1.00  0.00     0.014 A
ENDBRANCH  30  33
ENDBRANCH  29  30
ENDBRANCH  27  29
ENDBRANCH   3  24
TORSDOF 10
ENDMDL