MODEL 3
REMARK VINA RESULT: -7.153616620      2.073      3.418
REMARK  11 active torsions:
REMARK  status: ('A' for Active; 'I' for Inactive)
REMARK    1  A    between atoms: C2_2  and  O1_3
REMARK    2  A    between atoms: O1_3  and  C3_4
REMARK    3  A    between atoms: C3_4  and  C4_6
REMARK    4  A    between atoms: C5_7  and  C6_8
REMARK    5  A    between atoms: C9_11  and  O3_12
REMARK    6  A    between atoms: O3_12  and  C10_13
REMARK    7  A    between atoms: C10_13  and  C11_14
REMARK    8  A    between atoms: C10_13  and  C12_16
REMARK    9  A    between atoms: C13_18  and  O4_19
REMARK   10  A    between atoms: C16_22  and  C17_23
REMARK   11  A    between atoms: C18_26  and  C19_27
ROOT
HETATM    1  C4  UNL     1     -70.234 -11.665  20.053  1.00  0.00     0.104 C
HETATM    2  C5  UNL     1     -70.941 -10.603  20.912  1.00  0.00     0.048 C
HETATM    3  C16 UNL     1     -72.230 -11.422  20.537  1.00  0.00     0.105 C
HETATM    4  C18 UNL     1     -71.492 -11.755  19.338  1.00  0.00     0.052 C
ENDROOT
BRANCH   2   5
HETATM    5  C6  UNL     1     -70.978  -9.237  20.415  1.00  0.00    -0.049 A
HETATM    6  C7  UNL     1     -72.115  -8.496  20.193  1.00  0.00     0.010 A
HETATM    7  C8  UNL     1     -71.998  -7.206  19.720  1.00  0.00     0.040 A
HETATM    8  C9  UNL     1     -70.767  -6.632  19.460  1.00  0.00     0.102 A
HETATM    9  C13 UNL     1     -69.590  -7.369  19.678  1.00  0.00     0.102 A
HETATM   10  C15 UNL     1     -69.737  -8.645  20.148  1.00  0.00     0.047 A
BRANCH   8  11
HETATM   11  O3  UNL     1     -70.610  -5.365  18.992  1.00  0.00    -0.338 OA
BRANCH  11  12
HETATM   12  C10 UNL     1     -70.929  -4.199  19.686  1.00  0.00     0.186 C
BRANCH  12  13
HETATM   13  C11 UNL     1     -69.858  -3.846  20.722  1.00  0.00     0.257 C
HETATM   14  F1  UNL     1     -70.065  -4.652  21.821  1.00  0.00    -0.253 F
ENDBRANCH  12  13
BRANCH  12  15
HETATM   15  C12 UNL     1     -70.888  -3.054  18.669  1.00  0.00     0.257 C
HETATM   16  F2  UNL     1     -70.581  -3.639  17.434  1.00  0.00    -0.253 F
ENDBRANCH  12  15
ENDBRANCH  11  12
ENDBRANCH   8  11
BRANCH   9  17
HETATM   17  O4  UNL     1     -68.358  -6.786  19.414  1.00  0.00    -0.353 OA
HETATM   18  C14 UNL     1     -67.255  -7.585  19.041  1.00  0.00     0.210 C
ENDBRANCH   9  17
ENDBRANCH   2   5
BRANCH   1  19
HETATM   19  C3  UNL     1     -69.733 -12.682  20.975  1.00  0.00     0.264 C
HETATM   20  O2  UNL     1     -69.759 -13.909  20.945  1.00  0.00    -0.265 OA
BRANCH  19  21
HETATM   21  O1  UNL     1     -69.094 -12.157  22.133  1.00  0.00    -0.322 OA
BRANCH  21  22
HETATM   22  C2  UNL     1     -67.692 -12.241  22.292  1.00  0.00     0.174 C
HETATM   23  C1  UNL     1     -67.012 -11.112  21.577  1.00  0.00     0.034 C
ENDBRANCH  21  22
ENDBRANCH  19  21
ENDBRANCH   1  19
BRANCH   3  24
HETATM   24  C17 UNL     1     -72.565 -12.303  21.625  1.00  0.00     0.178 C
HETATM   25  O5  UNL     1     -72.712 -11.775  22.800  1.00  0.00    -0.648 OA
HETATM   26  O6  UNL     1     -72.773 -13.667  21.637  1.00  0.00    -0.648 OA
ENDBRANCH   3  24
BRANCH   4  27
HETATM   27  C19 UNL     1     -71.863 -12.798  18.380  1.00  0.00     0.001 A
HETATM   28  C20 UNL     1     -73.187 -12.947  18.019  1.00  0.00     0.084 A
HETATM   29 CL1  UNL     1     -74.593 -11.985  18.546  1.00  0.00    -0.076 Cl
HETATM   30  S1  UNL     1     -73.164 -14.231  16.900  1.00  0.00    -0.063 SA
HETATM   31  C21 UNL     1     -71.505 -14.553  16.903  1.00  0.00     0.098 A
HETATM   32 CL2  UNL     1     -70.675 -15.802  15.954  1.00  0.00    -0.074 Cl
HETATM   33  C22 UNL     1     -70.985 -13.642  17.787  1.00  0.00     0.071 A
HETATM   34 CL3  UNL     1     -69.189 -13.614  17.956  1.00  0.00    -0.081 Cl
ENDBRANCH   4  27
TORSDOF 11
ENDMDL