MODEL 3
REMARK VINA RESULT: -8.395519096      2.468      6.144
REMARK  10 active torsions:
REMARK  status: ('A' for Active; 'I' for Inactive)
REMARK    1  A    between atoms: C1_2  and  C2_3
REMARK    2  A    between atoms: C2_3  and  O1_5
REMARK    3  A    between atoms: O1_5  and  C3_6
REMARK    4  A    between atoms: C3_6  and  C4_7
REMARK    5  A    between atoms: C6_9  and  N1_10
REMARK    6  A    between atoms: N1_10  and  C7_12
REMARK    7  A    between atoms: C12_18  and  O3_19
REMARK    8  A    between atoms: O3_19  and  C13_20
REMARK    9  A    between atoms: C18_28  and  O4_29
REMARK   10  A    between atoms: O4_29  and  C19_30
ROOT
HETATM    1  C4  UNL     1     -65.775 -12.930  19.813  1.00  0.00     0.017 C
HETATM    2  C5  UNL     1     -65.776 -11.567  20.361  1.00  0.00     0.061 C
HETATM    3  C6  UNL     1     -67.045 -10.962  20.788  1.00  0.00     0.015 C
HETATM    4  C12 UNL     1     -68.288 -11.790  20.750  1.00  0.00     0.205 C
HETATM    5  C18 UNL     1     -68.266 -12.789  19.596  1.00  0.00     0.164 C
HETATM    6  C25 UNL     1     -67.061 -13.696  19.998  1.00  0.00     0.042 C
ENDROOT
BRANCH   4   7
HETATM    7  O3  UNL     1     -69.468 -11.063  20.801  1.00  0.00    -0.322 OA
BRANCH   7   8
HETATM    8  C13 UNL     1     -70.653 -11.400  21.410  1.00  0.00     0.142 A
HETATM    9  C14 UNL     1     -71.823 -10.669  21.131  1.00  0.00     0.058 A
HETATM   10  C15 UNL     1     -72.982 -11.020  21.746  1.00  0.00     0.029 A
HETATM   11  C16 UNL     1     -73.041 -12.067  22.631  1.00  0.00     0.049 A
HETATM   12 CL1  UNL     1     -74.543 -12.529  23.436  1.00  0.00    -0.083 Cl
HETATM   13  C17 UNL     1     -71.880 -12.775  22.894  1.00  0.00     0.114 A
HETATM   14  N2  UNL     1     -70.750 -12.403  22.271  1.00  0.00    -0.345 N
ATOM     15  H2  UNL     1     -69.903 -12.933  22.475  1.00  0.00     0.167 HD
ENDBRANCH   7   8
ENDBRANCH   4   7
BRANCH   3  16
HETATM   16  N1  UNL     1     -67.310  -9.640  20.384  1.00  0.00    -0.389 N
ATOM     17  H1  UNL     1     -67.443  -8.943  21.118  1.00  0.00     0.159 HD
BRANCH  16  18
HETATM   18  C7  UNL     1     -67.405  -9.207  19.077  1.00  0.00     0.085 C
HETATM   19  C8  UNL     1     -68.751  -8.536  18.844  1.00  0.00     0.051 C
HETATM   20  C9  UNL     1     -68.586  -7.006  18.917  1.00  0.00     0.169 C
HETATM   21  O2  UNL     1     -67.695  -6.630  19.890  1.00  0.00    -0.391 OA
HETATM   22  C10 UNL     1     -66.406  -7.046  19.666  1.00  0.00     0.169 C
HETATM   23  C11 UNL     1     -66.391  -8.141  18.649  1.00  0.00     0.051 C
ENDBRANCH  16  18
ENDBRANCH   3  16
BRANCH   5  24
HETATM   24  O4  UNL     1     -69.368 -13.582  19.574  1.00  0.00    -0.341 OA
BRANCH  24  25
HETATM   25  C19 UNL     1     -70.341 -13.896  18.726  1.00  0.00     0.091 A
HETATM   26  C20 UNL     1     -71.332 -12.914  18.489  1.00  0.00     0.040 A
HETATM   27  C21 UNL     1     -72.385 -13.110  17.644  1.00  0.00     0.026 A
HETATM   28  C22 UNL     1     -72.552 -14.279  16.965  1.00  0.00     0.035 A
HETATM   29 CL2  UNL     1     -73.888 -14.552  15.877  1.00  0.00    -0.084 Cl
HETATM   30  C23 UNL     1     -71.616 -15.269  17.159  1.00  0.00     0.050 A
HETATM   31  C24 UNL     1     -70.542 -15.063  18.024  1.00  0.00     0.069 A
HETATM   32 CL3  UNL     1     -69.449 -16.421  18.175  1.00  0.00    -0.081 Cl
ENDBRANCH  24  25
ENDBRANCH   5  24
BRANCH   1  33
HETATM   33  C3  UNL     1     -64.683 -13.845  20.386  1.00  0.00     0.176 C
BRANCH  33  34
HETATM   34  O1  UNL     1     -65.085 -15.162  20.363  1.00  0.00    -0.354 OA
BRANCH  34  35
HETATM   35  C2  UNL     1     -64.587 -15.914  19.332  1.00  0.00     0.335 C
HETATM   36  F2  UNL     1     -63.421 -16.550  19.795  1.00  0.00    -0.217 F
BRANCH  35  37
HETATM   37  C1  UNL     1     -65.517 -17.054  18.955  1.00  0.00     0.287 C
HETATM   38  F1  UNL     1     -66.027 -16.717  17.704  1.00  0.00    -0.250 F
ENDBRANCH  35  37
ENDBRANCH  34  35
ENDBRANCH  33  34
ENDBRANCH   1  33
TORSDOF 10
ENDMDL