MODEL 4
REMARK VINA RESULT: -8.695233001      2.354      4.081
REMARK  12 active torsions:
REMARK  status: ('A' for Active; 'I' for Inactive)
REMARK    1  A    between atoms: C2_2  and  C3_3
REMARK    2  A    between atoms: C3_3  and  C4_4
REMARK    3  A    between atoms: C7_11  and  N3_12
REMARK    4  A    between atoms: N3_12  and  C8_13
REMARK    5  A    between atoms: N3_12  and  C10_15
REMARK    6  A    between atoms: C10_15  and  C11_16
REMARK    7  A    between atoms: C11_16  and  C12_17
REMARK    8  A    between atoms: C12_17  and  C13_18
REMARK    9  A    between atoms: C13_18  and  N4_19
REMARK   10  A    between atoms: C20_30  and  C21_31
REMARK   11  A    between atoms: C24_37  and  N7_38
REMARK   12  A    between atoms: C25_41  and  C26_42
ROOT
HETATM    1  N4  UNL     1     -66.340 -12.442  20.198  1.00  0.00     0.102 N
HETATM    2  C14 UNL     1     -65.811 -11.253  19.588  1.00  0.00     0.293 C
HETATM    3  C15 UNL     1     -66.811 -10.147  19.464  1.00  0.00     0.162 C
HETATM    4  N5  UNL     1     -68.108 -10.364  20.008  1.00  0.00    -0.319 N
HETATM    5  C16 UNL     1     -68.348 -11.318  20.892  1.00  0.00     0.119 A
HETATM    6  N6  UNL     1     -69.568 -11.493  21.386  1.00  0.00    -0.342 N
ATOM      7  H6  UNL     1     -69.732 -12.234  22.068  1.00  0.00     0.167 HD
HETATM    8  C17 UNL     1     -70.599 -10.702  20.996  1.00  0.00     0.069 A
HETATM    9  C18 UNL     1     -71.875 -10.874  21.489  1.00  0.00     0.062 A
HETATM   10 CL1  UNL     1     -72.192 -12.139  22.656  1.00  0.00    -0.082 Cl
HETATM   11  C19 UNL     1     -72.919 -10.073  21.083  1.00  0.00     0.042 A
HETATM   12  C20 UNL     1     -72.705  -9.060  20.153  1.00  0.00     0.050 A
HETATM   13  C22 UNL     1     -71.414  -8.893  19.662  1.00  0.00     0.034 A
HETATM   14  C23 UNL     1     -70.360  -9.706  20.075  1.00  0.00     0.037 A
HETATM   15  C24 UNL     1     -69.090  -9.527  19.565  1.00  0.00     0.115 A
HETATM   16  C25 UNL     1     -67.219 -12.196  21.288  1.00  0.00     0.289 C
ENDROOT
BRANCH   1  17
HETATM   17  C13 UNL     1     -66.830 -13.307  19.172  1.00  0.00     0.273 C
BRANCH  17  18
HETATM   18  C12 UNL     1     -66.563 -14.775  19.419  1.00  0.00     0.032 C
BRANCH  18  19
HETATM   19  C11 UNL     1     -67.807 -15.591  19.165  1.00  0.00     0.022 C
BRANCH  19  20
HETATM   20  C10 UNL     1     -69.071 -14.807  19.287  1.00  0.00     0.124 C
BRANCH  20  21
HETATM   21  N3  UNL     1     -70.302 -15.510  19.087  1.00  0.00    -0.367 N
BRANCH  21  22
HETATM   22  C7  UNL     1     -71.018 -15.238  17.882  1.00  0.00     0.111 A
HETATM   23  C4  UNL     1     -72.048 -14.374  17.778  1.00  0.00     0.001 A
HETATM   24  C5  UNL     1     -72.701 -14.334  16.516  1.00  0.00     0.099 A
HETATM   25  N1  UNL     1     -72.288 -15.116  15.524  1.00  0.00    -0.361 N
HETATM   26  C6  UNL     1     -71.265 -15.967  15.639  1.00  0.00     0.181 A
ATOM     27  H1  UNL     1     -72.777 -15.063  14.630  1.00  0.00     0.166 HD
HETATM   28  N2  UNL     1     -70.649 -16.007  16.825  1.00  0.00    -0.338 N
ATOM     29  H2  UNL     1     -69.863 -16.646  16.943  1.00  0.00     0.168 HD
BRANCH  23  30
HETATM   30  C3  UNL     1     -72.535 -13.410  18.744  1.00  0.00     0.043 C
BRANCH  30  31
HETATM   31  C2  UNL     1     -72.994 -12.105  18.180  1.00  0.00     0.000 C
HETATM   32  C1  UNL     1     -74.425 -11.803  18.442  1.00  0.00     0.005 C
ENDBRANCH  30  31
ENDBRANCH  23  30
ENDBRANCH  21  22
BRANCH  21  33
HETATM   33  C8  UNL     1     -70.807 -16.449  20.049  1.00  0.00     0.120 C
HETATM   34  C9  UNL     1     -71.735 -15.874  21.055  1.00  0.00     0.026 C
ENDBRANCH  21  33
ENDBRANCH  20  21
ENDBRANCH  19  20
ENDBRANCH  18  19
ENDBRANCH  17  18
ENDBRANCH   1  17
BRANCH  16  35
HETATM   35  C26 UNL     1     -66.402 -11.516  22.373  1.00  0.00     0.039 C
HETATM   36  C27 UNL     1     -65.380 -12.502  22.930  1.00  0.00     0.007 C
ENDBRANCH  16  35
BRANCH  15  37
HETATM   37  N7  UNL     1     -68.918  -8.589  18.718  1.00  0.00    -0.385 N
ATOM     38  H72 UNL     1     -68.015  -8.115  18.713  1.00  0.00     0.157 HD
ATOM     39  H71 UNL     1     -69.617  -8.282  18.042  1.00  0.00     0.157 HD
ENDBRANCH  15  37
BRANCH  12  40
HETATM   40  C21 UNL     1     -73.827  -8.199  19.705  1.00  0.00     0.417 C
HETATM   41  F1  UNL     1     -74.972  -8.628  20.359  1.00  0.00    -0.166 F
HETATM   42  F2  UNL     1     -74.016  -8.378  18.341  1.00  0.00    -0.166 F
HETATM   43  F3  UNL     1     -73.618  -6.877  19.976  1.00  0.00    -0.166 F
ENDBRANCH  12  40
TORSDOF 12
ENDMDL