MODEL 4
REMARK VINA RESULT: -7.461066697      2.243      6.873
REMARK  13 active torsions:
REMARK  status: ('A' for Active; 'I' for Inactive)
REMARK    1  A    between atoms: C2_2  and  C3_3
REMARK    2  A    between atoms: C3_3  and  C4_4
REMARK    3  A    between atoms: C4_4  and  O1_5
REMARK    4  A    between atoms: O1_5  and  C5_6
REMARK    5  A    between atoms: C5_6  and  C6_8
REMARK    6  A    between atoms: C11_15  and  C12_16
REMARK    7  A    between atoms: C12_16  and  O3_17
REMARK    8  A    between atoms: C12_16  and  C13_19
REMARK    9  A    between atoms: C12_16  and  C20_30
REMARK   10  A    between atoms: C13_19  and  O4_20
REMARK   11  A    between atoms: O4_20  and  C14_21
REMARK   12  A    between atoms: C20_30  and  O6_32
REMARK   13  A    between atoms: O6_32  and  C21_33
ROOT
HETATM    1  C12 UNL     1     -68.780 -11.948  18.817  1.00  0.00     0.192 C
ENDROOT
BRANCH   1   2
HETATM    2  C11 UNL     1     -68.102 -11.222  19.922  1.00  0.00    -0.018 C
HETATM    3  C6  UNL     1     -67.940 -11.790  21.234  1.00  0.00     0.044 C
HETATM    4  C7  UNL     1     -66.689 -12.108  21.667  1.00  0.00     0.033 C
HETATM    5  C8  UNL     1     -65.437 -11.914  20.941  1.00  0.00     0.132 C
HETATM    6 CL1  UNL     1     -64.757 -13.309  20.139  1.00  0.00    -0.097 Cl
HETATM    7 CL2  UNL     1     -64.245 -11.432  22.263  1.00  0.00    -0.097 Cl
HETATM    8  C9  UNL     1     -65.598 -10.689  20.102  1.00  0.00     0.051 C
HETATM    9  C10 UNL     1     -66.869 -10.546  19.371  1.00  0.00     0.042 C
BRANCH   3  10
HETATM   10  C5  UNL     1     -69.037 -12.083  22.177  1.00  0.00     0.293 C
HETATM   11  O2  UNL     1     -68.858 -12.517  23.303  1.00  0.00    -0.259 OA
BRANCH  10  12
HETATM   12  O1  UNL     1     -70.370 -11.870  21.815  1.00  0.00    -0.318 OA
BRANCH  12  13
HETATM   13  C4  UNL     1     -71.389 -12.804  21.830  1.00  0.00     0.179 C
BRANCH  13  14
HETATM   14  C3  UNL     1     -72.582 -12.509  20.989  1.00  0.00     0.026 C
BRANCH  14  15
HETATM   15  C2  UNL     1     -73.598 -11.650  21.753  1.00  0.00    -0.002 C
HETATM   16  C1  UNL     1     -73.910 -12.217  23.102  1.00  0.00     0.005 C
ENDBRANCH  14  15
ENDBRANCH  13  14
ENDBRANCH  12  13
ENDBRANCH  10  12
ENDBRANCH   3  10
ENDBRANCH   1   2
BRANCH   1  17
HETATM   17  O3  UNL     1     -67.880 -11.746  17.694  1.00  0.00    -0.373 OA
ATOM     18  H3  UNL     1     -67.226 -11.154  18.048  1.00  0.00     0.211 HD
ENDBRANCH   1  17
BRANCH   1  19
HETATM   19  C13 UNL     1     -70.140 -11.563  18.357  1.00  0.00     0.229 C
BRANCH  19  20
HETATM   20  O4  UNL     1     -70.510 -10.318  18.089  1.00  0.00    -0.346 OA
BRANCH  20  21
HETATM   21  C14 UNL     1     -70.756  -9.117  18.565  1.00  0.00     0.092 A
HETATM   22  C15 UNL     1     -69.855  -8.118  18.856  1.00  0.00     0.040 A
HETATM   23  C16 UNL     1     -70.239  -6.870  19.360  1.00  0.00     0.028 A
HETATM   24  C17 UNL     1     -71.562  -6.605  19.583  1.00  0.00     0.057 A
HETATM   25 CL3  UNL     1     -72.113  -5.074  20.210  1.00  0.00    -0.082 Cl
HETATM   26  C18 UNL     1     -72.498  -7.570  19.306  1.00  0.00     0.080 A
HETATM   27 CL4  UNL     1     -74.220  -7.256  19.583  1.00  0.00    -0.081 Cl
HETATM   28  C19 UNL     1     -72.105  -8.785  18.814  1.00  0.00     0.090 A
HETATM   29 CL5  UNL     1     -73.351  -9.970  18.463  1.00  0.00    -0.079 Cl
ENDBRANCH  20  21
ENDBRANCH  19  20
ENDBRANCH   1  19
BRANCH   1  30
HETATM   30  C20 UNL     1     -68.831 -13.438  18.999  1.00  0.00     0.300 C
HETATM   31  O5  UNL     1     -69.974 -13.964  19.072  1.00  0.00    -0.261 OA
BRANCH  30  32
HETATM   32  O6  UNL     1     -67.703 -14.197  19.082  1.00  0.00    -0.319 OA
BRANCH  32  33
HETATM   33  C21 UNL     1     -67.730 -15.611  19.255  1.00  0.00     0.174 C
HETATM   34  C22 UNL     1     -66.427 -16.131  18.667  1.00  0.00     0.034 C
ENDBRANCH  32  33
ENDBRANCH  30  32
ENDBRANCH   1  30
TORSDOF 13
ENDMDL