MODEL 5
REMARK VINA RESULT: -4.802393961      1.752      5.422
REMARK  3 active torsions:
REMARK  status: ('A' for Active; 'I' for Inactive)
REMARK    1  A    between atoms: N1_1  and  C1_4
REMARK    2  A    between atoms: C2_7  and  C3_8
REMARK    3  A    between atoms: C4_9  and  N3_10
ROOT
HETATM    1  C1  UNL     1      -2.872 -19.878 -35.518  1.00  0.00     0.692 A
HETATM    2  N2  UNL     1      -1.856 -20.498 -36.089  1.00  0.00    -0.174 N
ATOM      3  H2  UNL     1      -0.870 -20.349 -35.877  1.00  0.00     0.186 HD
HETATM    4  C2  UNL     1      -2.361 -21.394 -37.033  1.00  0.00     0.137 A
HETATM    5  N7  UNL     1      -3.681 -21.277 -36.992  1.00  0.00    -0.271 N
ATOM      6  H7  UNL     1      -4.353 -21.794 -37.560  1.00  0.00     0.189 HD
HETATM    7  N8  UNL     1      -3.969 -20.349 -36.063  1.00  0.00    -0.131 N
ATOM      8  H8  UNL     1      -4.913 -20.052 -35.816  1.00  0.00     0.205 HD
ENDROOT
BRANCH   4   9
HETATM    9  C3  UNL     1      -1.445 -22.187 -37.788  1.00  0.00     0.071 C
HETATM   10  C4  UNL     1      -0.399 -22.875 -37.583  1.00  0.00     0.143 C
BRANCH  10  11
HETATM   11  N3  UNL     1       0.349 -23.164 -36.432  1.00  0.00    -0.177 N
HETATM   12  N4  UNL     1       0.974 -24.373 -36.134  1.00  0.00    -0.205 N
HETATM   13  N5  UNL     1       1.394 -23.846 -35.016  1.00  0.00    -0.210 N
ATOM     14  H4  UNL     1       1.063 -25.280 -36.593  1.00  0.00     0.212 HD
HETATM   15  N6  UNL     1       0.806 -22.705 -35.294  1.00  0.00    -0.205 N
ATOM     16  H5  UNL     1       1.956 -24.187 -34.236  1.00  0.00     0.211 HD
ATOM     17  H6  UNL     1       0.734 -21.810 -34.812  1.00  0.00     0.212 HD
ENDBRANCH  10  11
ENDBRANCH   4   9
BRANCH   1  18
HETATM   18  N1  UNL     1      -2.715 -18.972 -34.583  1.00  0.00    -0.233 N
ATOM     19  H12 UNL     1      -2.586 -17.963 -34.662  1.00  0.00     0.174 HD
ATOM     20  H11 UNL     1      -2.708 -19.200 -33.589  1.00  0.00     0.174 HD
ENDBRANCH   1  18
TORSDOF 3
ENDMDL