MODEL 1
REMARK VINA RESULT: -4.848225908      0.000      0.000
REMARK  6 active torsions:
REMARK  status: ('A' for Active; 'I' for Inactive)
REMARK    1  A    between atoms: N1_1  and  C1_4
REMARK    2  A    between atoms: C1_4  and  C2_5
REMARK    3  A    between atoms: C2_5  and  C3_6
REMARK    4  A    between atoms: C3_6  and  N2_7
REMARK    5  A    between atoms: N2_7  and  N3_9
REMARK    6  A    between atoms: N3_9  and  C4_11
ROOT
HETATM    1  N3  UNL     1      -2.842 -18.838 -34.145  1.00  0.00    -0.134 N
ATOM      2  H3  UNL     1      -2.692 -18.684 -33.148  1.00  0.00     0.205 HD
ENDROOT
BRANCH   1   3
HETATM    3  N2  UNL     1      -2.296 -19.951 -34.769  1.00  0.00    -0.321 N
ATOM      4  H2  UNL     1      -2.752 -20.861 -34.697  1.00  0.00     0.180 HD
BRANCH   3   5
HETATM    5  C3  UNL     1      -1.076 -19.798 -35.518  1.00  0.00     0.152 C
BRANCH   5   6
HETATM    6  C2  UNL     1      -0.485 -21.069 -35.937  1.00  0.00     0.125 C
BRANCH   6   7
HETATM    7  C1  UNL     1      -1.024 -21.782 -36.916  1.00  0.00    -0.076 C
BRANCH   7   8
HETATM    8  N1  UNL     1      -1.787 -22.246 -37.842  1.00  0.00    -0.370 N
ATOM      9  H12 UNL     1      -2.510 -22.528 -37.180  1.00  0.00     0.165 HD
ATOM     10  H11 UNL     1      -2.195 -22.536 -38.730  1.00  0.00     0.165 HD
ENDBRANCH   7   8
ENDBRANCH   6   7
ENDBRANCH   5   6
ENDBRANCH   3   5
ENDBRANCH   1   3
BRANCH   1  11
HETATM   11  C4  UNL     1      -3.553 -17.982 -34.844  1.00  0.00     0.728 A
HETATM   12  N4  UNL     1      -4.414 -18.300 -35.825  1.00  0.00    -0.114 N
HETATM   13  N5  UNL     1      -4.913 -17.162 -36.262  1.00  0.00    -0.213 N
ATOM     14  H4  UNL     1      -4.637 -19.235 -36.165  1.00  0.00     0.207 HD
HETATM   15  N6  UNL     1      -4.397 -16.145 -35.594  1.00  0.00    -0.213 N
ATOM     16  H5  UNL     1      -5.601 -17.077 -37.010  1.00  0.00     0.210 HD
HETATM   17  N7  UNL     1      -3.565 -16.649 -34.726  1.00  0.00    -0.114 N
ATOM     18  H6  UNL     1      -4.610 -15.157 -35.732  1.00  0.00     0.210 HD
ATOM     19  H7  UNL     1      -3.010 -16.110 -34.061  1.00  0.00     0.207 HD
ENDBRANCH   1  11
TORSDOF 6
ENDMDL