MODEL 5
REMARK VINA RESULT: -4.831635030      2.299      2.918
REMARK  4 active torsions:
REMARK  status: ('A' for Active; 'I' for Inactive)
REMARK    1  A    between atoms: C2_2  and  O1_3
REMARK    2  A    between atoms: C2_2  and  N1_5
REMARK    3  A    between atoms: N1_5  and  N2_6
REMARK    4  A    between atoms: N2_6  and  C4_8
ROOT
HETATM    1  C4  UNL     1       0.518 -23.321 -36.249  1.00  0.00     0.206 C
HETATM    2  N3  UNL     1       1.005 -24.306 -35.569  1.00  0.00    -0.345 N
ATOM      3  H3  UNL     1       1.450 -24.212 -34.657  1.00  0.00     0.164 HD
HETATM    4  C5  UNL     1       0.836 -25.553 -36.266  1.00  0.00     0.259 C
HETATM    5  N4  UNL     1      -0.195 -25.263 -37.234  1.00  0.00    -0.119 NA
HETATM    6  N5  UNL     1      -0.003 -23.917 -37.450  1.00  0.00    -0.273 N
ATOM      7  H5  UNL     1      -0.199 -23.423 -38.321  1.00  0.00     0.185 HD
ENDROOT
BRANCH   1   8
HETATM    8  N2  UNL     1       0.495 -21.944 -35.897  1.00  0.00    -0.267 N
HETATM    9  C3  UNL     1       1.588 -21.103 -36.308  1.00  0.00     0.176 C
BRANCH   8  10
HETATM   10  N1  UNL     1      -0.548 -21.386 -35.172  1.00  0.00    -0.105 NA
BRANCH  10  11
HETATM   11  C2  UNL     1      -1.283 -20.384 -35.884  1.00  0.00     0.227 C
HETATM   12  C1  UNL     1      -1.934 -19.362 -34.978  1.00  0.00     0.060 C
BRANCH  11  13
HETATM   13  O1  UNL     1      -2.314 -21.030 -36.574  1.00  0.00    -0.378 OA
ATOM     14  H1  UNL     1      -1.974 -21.250 -37.433  1.00  0.00     0.211 HD
ENDBRANCH  11  13
ENDBRANCH  10  11
ENDBRANCH   8  10
ENDBRANCH   1   8
TORSDOF 4
ENDMDL