MODEL 2
REMARK VINA RESULT: -4.158642463      1.475      1.710
REMARK  4 active torsions:
REMARK  status: ('A' for Active; 'I' for Inactive)
REMARK    1  A    between atoms: N1_1  and  C1_4
REMARK    2  A    between atoms: C2_7  and  C3_8
REMARK    3  A    between atoms: C3_8  and  C4_9
REMARK    4  A    between atoms: C4_9  and  N3_10
ROOT
HETATM    1  C1  UNL     1      -1.211 -21.404 -36.727  1.00  0.00     0.698 A
HETATM    2  N2  UNL     1       0.012 -21.938 -36.599  1.00  0.00    -0.168 N
ATOM      3  H2  UNL     1       0.709 -21.685 -35.899  1.00  0.00     0.186 HD
HETATM    4  C2  UNL     1       0.152 -22.859 -37.552  1.00  0.00     0.202 A
HETATM    5  O1  UNL     1      -0.987 -22.860 -38.236  1.00  0.00    -0.206 OA
HETATM    6  N5  UNL     1      -1.809 -21.996 -37.751  1.00  0.00    -0.090 N
ATOM      7  H5  UNL     1      -2.750 -21.802 -38.094  1.00  0.00     0.213 HD
ENDROOT
BRANCH   4   8
HETATM    8  C3  UNL     1       1.260 -23.750 -37.891  1.00  0.00     0.239 A
HETATM    9  C5  UNL     1       2.204 -23.255 -38.967  1.00  0.00     0.283 A
HETATM   10  N4  UNL     1       2.618 -23.397 -37.538  1.00  0.00    -0.052 N
ATOM     11  H42 UNL     1       3.028 -22.761 -36.854  1.00  0.00     0.278 HD
ATOM     12  H41 UNL     1       3.376 -23.889 -37.068  1.00  0.00     0.278 HD
BRANCH   8  13
HETATM   13  C4  UNL     1       0.915 -25.236 -37.841  1.00  0.00     0.279 C
BRANCH  13  14
HETATM   14  N3  UNL     1      -0.082 -25.409 -36.795  1.00  0.00    -0.076 N
ATOM     15  H33 UNL     1       0.203 -25.011 -35.900  1.00  0.00     0.274 HD
ATOM     16  H32 UNL     1      -0.913 -24.834 -36.935  1.00  0.00     0.274 HD
ATOM     17  H31 UNL     1      -0.290 -26.406 -36.740  1.00  0.00     0.274 HD
ENDBRANCH  13  14
ENDBRANCH   8  13
ENDBRANCH   4   8
BRANCH   1  18
HETATM   18  N1  UNL     1      -1.739 -20.456 -35.992  1.00  0.00    -0.233 N
ATOM     19  H12 UNL     1      -1.471 -20.242 -35.032  1.00  0.00     0.174 HD
ATOM     20  H11 UNL     1      -2.485 -19.814 -36.260  1.00  0.00     0.174 HD
ENDBRANCH   1  18
TORSDOF 4
ENDMDL