MODEL 1
REMARK VINA RESULT: -4.250940402      0.000      0.000
REMARK  5 active torsions:
REMARK  status: ('A' for Active; 'I' for Inactive)
REMARK    1  A    between atoms: C2_2  and  C3_3
REMARK    2  A    between atoms: C2_2  and  C5_13
REMARK    3  A    between atoms: C4_9  and  N3_10
REMARK    4  A    between atoms: C5_13  and  N4_14
REMARK    5  A    between atoms: C5_13  and  N5_18
ROOT
HETATM    1  C1  UNL     1       1.430 -23.326 -35.161  1.00  0.00     0.020 C
HETATM    2  C2  UNL     1       1.391 -22.931 -36.642  1.00  0.00     0.095 C
ENDROOT
BRANCH   2   3
HETATM    3  C3  UNL     1       0.056 -22.324 -36.856  1.00  0.00     0.087 A
HETATM    4  N1  UNL     1      -0.363 -21.173 -36.318  1.00  0.00    -0.242 N
HETATM    5  O1  UNL     1      -1.533 -20.933 -36.759  1.00  0.00    -0.155 OA
ATOM      6  H1  UNL     1       0.163 -20.589 -35.668  1.00  0.00     0.196 HD
HETATM    7  N2  UNL     1      -1.960 -21.864 -37.580  1.00  0.00    -0.224 N
HETATM    8  C4  UNL     1      -0.974 -22.759 -37.661  1.00  0.00     0.146 A
ATOM      9  H2  UNL     1      -2.861 -21.896 -38.058  1.00  0.00     0.198 HD
BRANCH   8  10
HETATM   10  N3  UNL     1      -1.002 -23.841 -38.344  1.00  0.00    -0.382 N
ATOM     11  H32 UNL     1      -0.378 -24.073 -39.117  1.00  0.00     0.157 HD
ATOM     12  H31 UNL     1      -1.661 -24.612 -38.233  1.00  0.00     0.157 HD
ENDBRANCH   8  10
ENDBRANCH   2   3
BRANCH   2  13
HETATM   13  C5  UNL     1       2.444 -21.874 -36.884  1.00  0.00     0.387 C
BRANCH  13  14
HETATM   14  N4  UNL     1       3.353 -21.729 -35.744  1.00  0.00    -0.050 N
ATOM     15  H43 UNL     1       2.871 -21.337 -34.936  1.00  0.00     0.276 HD
ATOM     16  H42 UNL     1       3.608 -22.638 -35.357  1.00  0.00     0.276 HD
ATOM     17  H41 UNL     1       4.181 -21.183 -35.981  1.00  0.00     0.276 HD
ENDBRANCH  13  14
BRANCH  13  18
HETATM   18  N5  UNL     1       3.185 -22.153 -38.085  1.00  0.00    -0.050 N
ATOM     19  H53 UNL     1       2.566 -22.334 -38.876  1.00  0.00     0.276 HD
ATOM     20  H52 UNL     1       3.651 -21.319 -38.442  1.00  0.00     0.276 HD
ATOM     21  H51 UNL     1       3.842 -22.918 -37.939  1.00  0.00     0.276 HD
ENDBRANCH  13  18
ENDBRANCH   2  13
TORSDOF 5
ENDMDL