MODEL 1
REMARK VINA RESULT: -4.465236013      0.000      0.000
REMARK  5 active torsions:
REMARK  status: ('A' for Active; 'I' for Inactive)
REMARK    1  A    between atoms: N1_1  and  C1_4
REMARK    2  A    between atoms: C2_9  and  S1_10
REMARK    3  A    between atoms: S1_10  and  C3_11
REMARK    4  A    between atoms: C3_11  and  C4_12
REMARK    5  A    between atoms: C4_12  and  N4_13
ROOT
HETATM    1  C1  UNL     1      -3.274 -18.152 -34.686  1.00  0.00     0.692 A
HETATM    2  N2  UNL     1      -4.145 -18.961 -35.317  1.00  0.00    -0.130 N
ATOM      3  H2  UNL     1      -5.151 -18.809 -35.388  1.00  0.00     0.205 HD
HETATM    4  N3  UNL     1      -3.480 -19.993 -35.835  1.00  0.00    -0.265 N
ATOM      5  H3  UNL     1      -3.898 -20.757 -36.367  1.00  0.00     0.189 HD
HETATM    6  C2  UNL     1      -2.174 -19.871 -35.549  1.00  0.00     0.174 A
HETATM    7  N5  UNL     1      -2.071 -18.727 -34.839  1.00  0.00    -0.168 N
ATOM      8  H5  UNL     1      -1.198 -18.350 -34.469  1.00  0.00     0.186 HD
ENDROOT
BRANCH   6   9
HETATM    9  S1  UNL     1      -0.877 -21.002 -36.026  1.00  0.00    -0.090 SA
BRANCH   9  10
HETATM   10  C3  UNL     1      -1.374 -22.030 -37.421  1.00  0.00     0.109 C
BRANCH  10  11
HETATM   11  C4  UNL     1      -0.352 -23.088 -37.756  1.00  0.00     0.240 C
BRANCH  11  12
HETATM   12  N4  UNL     1      -0.950 -24.400 -37.833  1.00  0.00    -0.079 N
ATOM     13  H43 UNL     1      -1.242 -24.730 -36.913  1.00  0.00     0.274 HD
ATOM     14  H42 UNL     1      -1.863 -24.367 -38.287  1.00  0.00     0.274 HD
ATOM     15  H41 UNL     1      -0.331 -25.069 -38.289  1.00  0.00     0.274 HD
ENDBRANCH  11  12
ENDBRANCH  10  11
ENDBRANCH   9  10
ENDBRANCH   6   9
BRANCH   1  16
HETATM   16  N1  UNL     1      -3.591 -17.067 -34.079  1.00  0.00    -0.233 N
ATOM     17  H12 UNL     1      -4.323 -16.391 -34.296  1.00  0.00     0.174 HD
ATOM     18  H11 UNL     1      -3.125 -16.709 -33.245  1.00  0.00     0.174 HD
ENDBRANCH   1  16
TORSDOF 5
ENDMDL