MODEL 3
REMARK VINA RESULT: -4.608435453      2.039      5.577
REMARK  4 active torsions:
REMARK  status: ('A' for Active; 'I' for Inactive)
REMARK    1  A    between atoms: N1_1  and  C1_5
REMARK    2  A    between atoms: C1_5  and  C2_6
REMARK    3  A    between atoms: C2_6  and  N2_7
REMARK    4  A    between atoms: N2_7  and  C3_9
ROOT
HETATM    1  C3  UNL     1      -0.932 -21.086 -36.181  1.00  0.00     0.677 A
HETATM    2  N3  UNL     1      -1.302 -21.704 -37.249  1.00  0.00    -0.210 N
ATOM      3  H3  UNL     1      -2.016 -21.260 -37.826  1.00  0.00     0.179 HD
HETATM    4  C4  UNL     1      -0.785 -22.972 -37.690  1.00  0.00     0.264 A
HETATM    5  N4  UNL     1       0.215 -23.533 -36.830  1.00  0.00    -0.347 N
ATOM      6  H4  UNL     1       0.617 -24.432 -37.094  1.00  0.00     0.163 HD
HETATM    7  C5  UNL     1       0.643 -22.980 -35.742  1.00  0.00     0.204 A
HETATM    8  N5  UNL     1       1.637 -23.620 -34.960  1.00  0.00    -0.063 NA
HETATM    9  N6  UNL     1       0.064 -21.728 -35.398  1.00  0.00    -0.164 N
ATOM     10  H6  UNL     1       0.381 -21.266 -34.545  1.00  0.00     0.187 HD
ENDROOT
BRANCH   1  11
HETATM   11  N2  UNL     1      -1.505 -19.834 -35.830  1.00  0.00    -0.225 N
ATOM     12  H2  UNL     1      -1.396 -19.053 -36.477  1.00  0.00     0.177 HD
BRANCH  11  13
HETATM   13  C2  UNL     1      -2.230 -19.612 -34.609  1.00  0.00     0.165 C
BRANCH  13  14
HETATM   14  C1  UNL     1      -3.134 -18.397 -34.717  1.00  0.00     0.249 C
BRANCH  14  15
HETATM   15  N1  UNL     1      -4.341 -18.724 -35.452  1.00  0.00    -0.078 N
ATOM     16  H13 UNL     1      -4.525 -18.049 -36.195  1.00  0.00     0.274 HD
ATOM     17  H12 UNL     1      -4.220 -19.556 -36.028  1.00  0.00     0.274 HD
ATOM     18  H11 UNL     1      -5.134 -18.814 -34.817  1.00  0.00     0.274 HD
ENDBRANCH  14  15
ENDBRANCH  13  14
ENDBRANCH  11  13
ENDBRANCH   1  11
TORSDOF 4
ENDMDL