MODEL 2
REMARK VINA RESULT: -5.383692971      1.563      5.239
REMARK  5 active torsions:
REMARK  status: ('A' for Active; 'I' for Inactive)
REMARK    1  A    between atoms: C1_4  and  C2_5
REMARK    2  A    between atoms: C2_5  and  C3_6
REMARK    3  A    between atoms: C4_9  and  N3_10
REMARK    4  A    between atoms: N3_10  and  N4_12
REMARK    5  A    between atoms: N4_12  and  N5_14
ROOT
HETATM    1  C3  UNL     1      -1.896 -20.229 -35.740  1.00  0.00     0.167 A
HETATM    2  N2  UNL     1      -1.955 -19.063 -35.080  1.00  0.00    -0.169 N
ATOM      3  H2  UNL     1      -1.148 -18.554 -34.720  1.00  0.00     0.186 HD
HETATM    4  C4  UNL     1      -3.232 -18.664 -34.961  1.00  0.00     0.720 A
HETATM    5  N6  UNL     1      -3.958 -19.620 -35.570  1.00  0.00    -0.088 N
ATOM      6  H6  UNL     1      -4.974 -19.628 -35.661  1.00  0.00     0.214 HD
HETATM    7  O1  UNL     1      -3.136 -20.545 -36.027  1.00  0.00    -0.209 OA
ENDROOT
BRANCH   4   8
HETATM    8  N3  UNL     1      -3.693 -17.589 -34.388  1.00  0.00    -0.116 N
ATOM      9  H3  UNL     1      -3.942 -17.635 -33.400  1.00  0.00     0.207 HD
BRANCH   8  10
HETATM   10  N4  UNL     1      -3.861 -16.393 -35.054  1.00  0.00    -0.235 N
ATOM     11  H4  UNL     1      -3.445 -15.528 -34.706  1.00  0.00     0.208 HD
BRANCH  10  12
HETATM   12  N5  UNL     1      -4.632 -16.414 -36.236  1.00  0.00    -0.330 N
ATOM     13  H52 UNL     1      -4.479 -17.137 -36.939  1.00  0.00     0.178 HD
ATOM     14  H51 UNL     1      -5.334 -15.684 -36.347  1.00  0.00     0.178 HD
ENDBRANCH  10  12
ENDBRANCH   8  10
ENDBRANCH   4   8
BRANCH   1  15
HETATM   15  C2  UNL     1      -0.684 -21.039 -36.099  1.00  0.00     0.131 C
BRANCH  15  16
HETATM   16  C1  UNL     1      -1.057 -22.194 -36.962  1.00  0.00     0.060 C
HETATM   17  N1  UNL     1      -1.803 -22.046 -37.974  1.00  0.00    -0.411 N
ATOM     18  H12 UNL     1      -2.146 -21.110 -38.190  1.00  0.00     0.155 HD
ATOM     19  H11 UNL     1      -2.058 -22.837 -38.565  1.00  0.00     0.155 HD
ENDBRANCH  15  16
ENDBRANCH   1  15
TORSDOF 5
ENDMDL