MODEL 1
REMARK VINA RESULT: -4.617268179      0.000      0.000
REMARK  5 active torsions:
REMARK  status: ('A' for Active; 'I' for Inactive)
REMARK    1  A    between atoms: C3_3  and  N1_4
REMARK    2  A    between atoms: C3_3  and  C4_8
REMARK    3  A    between atoms: C4_8  and  N2_9
REMARK    4  A    between atoms: C4_8  and  C5_13
REMARK    5  A    between atoms: N2_9  and  N3_10
ROOT
HETATM    1  C1  UNL     1      -1.362 -19.550 -35.219  1.00  0.00     0.014 C
HETATM    2  C2  UNL     1      -0.741 -20.481 -35.674  1.00  0.00    -0.082 C
HETATM    3  C3  UNL     1       0.025 -21.613 -36.240  1.00  0.00     0.289 C
ENDROOT
BRANCH   3   4
HETATM    4  N1  UNL     1       0.567 -22.449 -35.196  1.00  0.00    -0.062 N
ATOM      5  H13 UNL     1       0.257 -22.144 -34.273  1.00  0.00     0.275 HD
ATOM      6  H12 UNL     1       0.145 -23.378 -35.202  1.00  0.00     0.275 HD
ATOM      7  H11 UNL     1       1.584 -22.497 -35.255  1.00  0.00     0.275 HD
ENDBRANCH   3   4
BRANCH   3   8
HETATM    8  C4  UNL     1      -0.876 -22.446 -37.091  1.00  0.00     0.209 C
BRANCH   8   9
HETATM    9  N2  UNL     1      -1.606 -21.648 -38.070  1.00  0.00    -0.132 NA
BRANCH   9  10
HETATM   10  N3  UNL     1      -2.958 -21.609 -37.742  1.00  0.00    -0.348 N
ATOM     11  H32 UNL     1      -3.366 -22.082 -36.936  1.00  0.00     0.172 HD
ATOM     12  H31 UNL     1      -3.468 -21.044 -38.422  1.00  0.00     0.172 HD
ENDBRANCH   9  10
ENDBRANCH   8   9
BRANCH   8  13
HETATM   13  C5  UNL     1      -0.027 -23.445 -37.812  1.00  0.00     0.121 A
HETATM   14  N4  UNL     1       1.060 -23.203 -38.575  1.00  0.00    -0.338 N
HETATM   15  C6  UNL     1       1.525 -24.377 -39.037  1.00  0.00     0.198 A
ATOM     16  H4  UNL     1       1.461 -22.284 -38.769  1.00  0.00     0.168 HD
HETATM   17  N5  UNL     1       0.746 -25.349 -38.574  1.00  0.00    -0.295 N
HETATM   18  N6  UNL     1      -0.191 -24.780 -37.833  1.00  0.00    -0.286 N
ATOM     19  H5  UNL     1       0.850 -26.347 -38.756  1.00  0.00     0.187 HD
ATOM     20  H6  UNL     1      -0.933 -25.284 -37.346  1.00  0.00     0.188 HD
ENDBRANCH   8  13
ENDBRANCH   3   8
TORSDOF 5
ENDMDL