MODEL 3
REMARK VINA RESULT: -4.619828872      1.661      5.013
REMARK  3 active torsions:
REMARK  status: ('A' for Active; 'I' for Inactive)
REMARK    1  A    between atoms: C3_6  and  N3_7
REMARK    2  A    between atoms: N3_7  and  C4_9
REMARK    3  A    between atoms: C5_15  and  N6_16
ROOT
HETATM    1  N1  UNL     1       3.377 -18.817 -24.401  1.00  0.00    -0.188 NA
HETATM    2  C1  UNL     1       2.322 -19.181 -24.084  1.00  0.00     0.138 C
HETATM    3  C2  UNL     1       1.018 -19.654 -23.693  1.00  0.00     0.217 A
HETATM    4  N2  UNL     1       0.796 -20.921 -23.315  1.00  0.00    -0.165 N
ATOM      5  H2  UNL     1       1.576 -21.578 -23.300  1.00  0.00     0.186 HD
HETATM    6  C3  UNL     1      -0.430 -21.351 -22.952  1.00  0.00     0.699 A
HETATM    7  N5  UNL     1      -1.487 -20.519 -22.955  1.00  0.00    -0.022 N
ATOM      8  H5  UNL     1      -2.415 -20.843 -22.681  1.00  0.00     0.203 HD
HETATM    9  C5  UNL     1      -1.278 -19.252 -23.331  1.00  0.00     0.692 A
HETATM   10  N7  UNL     1      -0.054 -18.827 -23.693  1.00  0.00    -0.166 N
ATOM     11  H7  UNL     1       0.070 -17.855 -23.974  1.00  0.00     0.186 HD
ENDROOT
BRANCH   6  12
HETATM   12  N3  UNL     1      -0.639 -22.718 -22.549  1.00  0.00    -0.188 N
ATOM     13  H3  UNL     1      -1.086 -23.383 -23.180  1.00  0.00     0.185 HD
BRANCH  12  14
HETATM   14  C4  UNL     1      -0.213 -23.123 -21.259  1.00  0.00     0.191 C
HETATM   15  N4  UNL     1       0.975 -23.617 -21.042  1.00  0.00    -0.395 N
ATOM     16  H42 UNL     1       1.606 -23.708 -21.838  1.00  0.00     0.156 HD
ATOM     17  H41 UNL     1       1.282 -23.907 -20.114  1.00  0.00     0.156 HD
ENDBRANCH  12  14
ENDBRANCH   6  12
BRANCH   9  18
HETATM   18  N6  UNL     1      -2.249 -18.415 -23.354  1.00  0.00    -0.234 N
ATOM     19  H62 UNL     1      -2.947 -18.457 -22.611  1.00  0.00     0.174 HD
ATOM     20  H61 UNL     1      -2.317 -17.724 -24.102  1.00  0.00     0.174 HD
ENDBRANCH   9  18
TORSDOF 3
ENDMDL