MODEL 4
REMARK VINA RESULT: -4.010970600      2.100      2.876
REMARK  5 active torsions:
REMARK  status: ('A' for Active; 'I' for Inactive)
REMARK    1  A    between atoms: C2_2  and  N1_3
REMARK    2  A    between atoms: C2_2  and  O1_7
REMARK    3  A    between atoms: C2_2  and  C3_9
REMARK    4  A    between atoms: C3_9  and  N2_10
REMARK    5  A    between atoms: C3_9  and  C4_14
ROOT
HETATM    1  C3  UNL     1      -0.279 -22.739 -22.879  1.00  0.00     0.297 C
ENDROOT
BRANCH   1   2
HETATM    2  C2  UNL     1       0.122 -23.042 -21.453  1.00  0.00     0.252 C
HETATM    3  C1  UNL     1      -1.157 -23.193 -20.655  1.00  0.00     0.081 C
BRANCH   2   4
HETATM    4  N1  UNL     1       0.863 -24.286 -21.409  1.00  0.00    -0.045 N
ATOM      5  H13 UNL     1       1.269 -24.462 -20.489  1.00  0.00     0.278 HD
ATOM      6  H12 UNL     1       0.253 -25.102 -21.456  1.00  0.00     0.278 HD
ATOM      7  H11 UNL     1       1.566 -24.285 -22.148  1.00  0.00     0.278 HD
ENDBRANCH   2   4
BRANCH   2   8
HETATM    8  O1  UNL     1       0.881 -22.053 -20.885  1.00  0.00    -0.363 OA
ATOM      9  H1  UNL     1       0.360 -21.608 -20.227  1.00  0.00     0.212 HD
ENDBRANCH   2   8
ENDBRANCH   1   2
BRANCH   1  10
HETATM   10  N2  UNL     1      -1.593 -23.198 -23.183  1.00  0.00    -0.065 N
ATOM     11  H23 UNL     1      -1.702 -23.365 -24.183  1.00  0.00     0.275 HD
ATOM     12  H22 UNL     1      -1.739 -24.147 -22.841  1.00  0.00     0.275 HD
ATOM     13  H21 UNL     1      -2.316 -22.566 -22.836  1.00  0.00     0.275 HD
ENDBRANCH   1  10
BRANCH   1  14
HETATM   14  C4  UNL     1      -0.241 -21.265 -23.148  1.00  0.00     0.079 A
HETATM   15  C5  UNL     1      -1.306 -20.392 -23.097  1.00  0.00     0.137 A
HETATM   16  N3  UNL     1      -0.813 -19.189 -23.407  1.00  0.00    -0.296 N
HETATM   17  N4  UNL     1       0.479 -19.262 -23.644  1.00  0.00    -0.243 N
ATOM     18  H3  UNL     1      -1.364 -18.330 -23.452  1.00  0.00     0.187 HD
HETATM   19  N5  UNL     1       0.832 -20.527 -23.487  1.00  0.00    -0.287 N
ATOM     20  H4  UNL     1       1.093 -18.490 -23.901  1.00  0.00     0.208 HD
ATOM     21  H5  UNL     1       1.778 -20.889 -23.606  1.00  0.00     0.188 HD
ENDBRANCH   1  14
TORSDOF 5
ENDMDL