MODEL 3
REMARK VINA RESULT: -4.007809907      1.436      1.862
REMARK  5 active torsions:
REMARK  status: ('A' for Active; 'I' for Inactive)
REMARK    1  A    between atoms: N1_1  and  N2_4
REMARK    2  A    between atoms: N2_4  and  C1_6
REMARK    3  A    between atoms: C3_12  and  C4_13
REMARK    4  A    between atoms: C4_13  and  N5_14
REMARK    5  A    between atoms: C4_13  and  C5_18
ROOT
HETATM    1  C1  UNL     1      -0.183 -23.775 -21.083  1.00  0.00     0.146 A
HETATM    2  N3  UNL     1       1.064 -23.265 -20.942  1.00  0.00    -0.336 N
ATOM      3  H3  UNL     1       1.794 -23.678 -20.363  1.00  0.00     0.168 HD
HETATM    4  C2  UNL     1       1.213 -22.132 -21.672  1.00  0.00     0.182 A
HETATM    5  N4  UNL     1       0.039 -21.939 -22.270  1.00  0.00    -0.351 N
ATOM      6  H4  UNL     1      -0.176 -21.161 -22.894  1.00  0.00     0.166 HD
HETATM    7  C3  UNL     1      -0.837 -22.930 -21.932  1.00  0.00     0.093 A
ENDROOT
BRANCH   7   8
HETATM    8  C4  UNL     1      -2.240 -23.038 -22.415  1.00  0.00     0.297 C
BRANCH   8   9
HETATM    9  N5  UNL     1      -2.920 -21.813 -22.158  1.00  0.00    -0.063 N
ATOM     10  H53 UNL     1      -2.411 -21.218 -21.505  1.00  0.00     0.275 HD
ATOM     11  H52 UNL     1      -2.908 -21.186 -22.964  1.00  0.00     0.275 HD
ATOM     12  H51 UNL     1      -3.868 -22.015 -21.840  1.00  0.00     0.275 HD
ENDBRANCH   8   9
BRANCH   8  13
HETATM   13  C5  UNL     1      -2.351 -23.438 -23.821  1.00  0.00     0.270 C
HETATM   14  O1  UNL     1      -1.360 -23.395 -24.529  1.00  0.00    -0.304 OA
ENDBRANCH   8  13
ENDBRANCH   7   8
BRANCH   1  15
HETATM   15  N2  UNL     1      -0.708 -24.961 -20.472  1.00  0.00    -0.290 N
ATOM     16  H2  UNL     1      -0.934 -25.774 -21.046  1.00  0.00     0.188 HD
BRANCH  15  17
HETATM   17  N1  UNL     1      -0.910 -25.005 -19.082  1.00  0.00    -0.344 N
ATOM     18  H12 UNL     1      -0.798 -24.149 -18.538  1.00  0.00     0.176 HD
ATOM     19  H11 UNL     1      -1.165 -25.883 -18.631  1.00  0.00     0.176 HD
ENDBRANCH  15  17
ENDBRANCH   1  15
TORSDOF 5
ENDMDL