MODEL 5
REMARK VINA RESULT: -4.172130750      1.156      1.358
REMARK  5 active torsions:
REMARK  status: ('A' for Active; 'I' for Inactive)
REMARK    1  A    between atoms: N1_2  and  C2_5
REMARK    2  A    between atoms: C2_5  and  O1_6
REMARK    3  A    between atoms: C2_5  and  C3_8
REMARK    4  A    between atoms: C3_8  and  N2_9
REMARK    5  A    between atoms: C3_8  and  C4_13
ROOT
HETATM    1  C3  UNL     1       1.494 -20.903 -23.242  1.00  0.00     0.308 C
ENDROOT
BRANCH   1   2
HETATM    2  C2  UNL     1       0.072 -20.520 -23.485  1.00  0.00     0.356 C
BRANCH   2   3
HETATM    3  N1  UNL     1      -0.903 -21.337 -22.818  1.00  0.00    -0.050 N
HETATM    4  C1  UNL     1      -1.097 -22.560 -23.620  1.00  0.00     0.270 C
ATOM      5  H12 UNL     1      -1.776 -20.841 -22.636  1.00  0.00     0.279 HD
ATOM      6  H11 UNL     1      -0.655 -21.535 -21.848  1.00  0.00     0.279 HD
ENDBRANCH   2   3
BRANCH   2   7
HETATM    7  O1  UNL     1      -0.120 -19.201 -23.008  1.00  0.00    -0.368 OA
ATOM      8  H1  UNL     1      -0.969 -18.922 -23.328  1.00  0.00     0.212 HD
ENDBRANCH   2   7
ENDBRANCH   1   2
BRANCH   1   9
HETATM    9  N2  UNL     1       1.771 -21.384 -21.940  1.00  0.00    -0.064 N
ATOM     10  H23 UNL     1       2.645 -21.910 -21.937  1.00  0.00     0.275 HD
ATOM     11  H22 UNL     1       2.027 -20.611 -21.326  1.00  0.00     0.275 HD
ATOM     12  H21 UNL     1       1.025 -21.937 -21.517  1.00  0.00     0.275 HD
ENDBRANCH   1   9
BRANCH   1  13
HETATM   13  C4  UNL     1       2.455 -19.815 -23.653  1.00  0.00     0.148 A
HETATM   14  N3  UNL     1       2.260 -18.812 -24.500  1.00  0.00    -0.270 N
HETATM   15  N4  UNL     1       3.376 -18.111 -24.572  1.00  0.00    -0.227 N
ATOM     16  H3  UNL     1       1.397 -18.617 -25.009  1.00  0.00     0.190 HD
HETATM   17  N5  UNL     1       4.299 -18.656 -23.768  1.00  0.00    -0.227 N
ATOM     18  H4  UNL     1       3.513 -17.282 -25.149  1.00  0.00     0.210 HD
HETATM   19  N6  UNL     1       3.721 -19.698 -23.213  1.00  0.00    -0.270 N
ATOM     20  H5  UNL     1       5.254 -18.330 -23.618  1.00  0.00     0.210 HD
ATOM     21  H6  UNL     1       4.167 -20.327 -22.546  1.00  0.00     0.190 HD
ENDBRANCH   1  13
TORSDOF 5
ENDMDL