MODEL 2
REMARK VINA RESULT: -4.546968855      2.996      3.841
REMARK  4 active torsions:
REMARK  status: ('A' for Active; 'I' for Inactive)
REMARK    1  A    between atoms: N1_1  and  O1_4
REMARK    2  A    between atoms: O1_4  and  C1_5
REMARK    3  A    between atoms: C3_11  and  N4_12
REMARK    4  A    between atoms: N4_12  and  C4_14
ROOT
HETATM    1  C1  UNL     1      -0.121 -22.653 -22.257  1.00  0.00     0.159 A
HETATM    2  C2  UNL     1      -0.456 -22.031 -23.436  1.00  0.00     0.150 A
HETATM    3  N2  UNL     1      -1.114 -22.926 -24.186  1.00  0.00    -0.307 N
ATOM      4  H2  UNL     1      -1.491 -22.760 -25.119  1.00  0.00     0.186 HD
HETATM    5  N3  UNL     1      -1.193 -24.065 -23.512  1.00  0.00    -0.284 N
ATOM      6  H3  UNL     1      -1.647 -24.909 -23.860  1.00  0.00     0.188 HD
HETATM    7  C3  UNL     1      -0.603 -23.964 -22.322  1.00  0.00     0.155 A
ENDROOT
BRANCH   7   8
HETATM    8  N4  UNL     1      -0.442 -24.909 -21.273  1.00  0.00    -0.344 N
ATOM      9  H4  UNL     1       0.430 -25.430 -21.191  1.00  0.00     0.163 HD
BRANCH   8  10
HETATM   10  C4  UNL     1      -1.500 -25.136 -20.329  1.00  0.00     0.311 A
HETATM   11  C5  UNL     1      -1.478 -26.250 -19.428  1.00  0.00     0.289 A
HETATM   12  N5  UNL     1      -1.031 -24.969 -18.905  1.00  0.00    -0.049 N
ATOM     13  H52 UNL     1      -0.196 -24.613 -18.441  1.00  0.00     0.279 HD
ATOM     14  H51 UNL     1      -1.272 -24.370 -18.115  1.00  0.00     0.279 HD
ENDBRANCH   8  10
ENDBRANCH   7   8
BRANCH   1  15
HETATM   15  O1  UNL     1       0.565 -22.119 -21.180  1.00  0.00    -0.240 OA
BRANCH  15  16
HETATM   16  N1  UNL     1       1.911 -21.958 -21.134  1.00  0.00    -0.305 N
ATOM     17  H12 UNL     1       2.476 -22.805 -21.186  1.00  0.00     0.184 HD
ATOM     18  H11 UNL     1       2.380 -21.056 -21.051  1.00  0.00     0.184 HD
ENDBRANCH  15  16
ENDBRANCH   1  15
TORSDOF 4
ENDMDL