MODEL 5
REMARK VINA RESULT: -4.690215273      1.437      2.257
REMARK  2 active torsions:
REMARK  status: ('A' for Active; 'I' for Inactive)
REMARK    1  A    between atoms: C2_3  and  N2_4
REMARK    2  A    between atoms: N2_4  and  C3_7
ROOT
HETATM    1  N1  UNL     1       3.538 -16.490 -24.074  1.00  0.00    -0.196 NA
HETATM    2  C1  UNL     1       3.269 -17.630 -24.108  1.00  0.00     0.086 C
HETATM    3  C2  UNL     1       2.977 -19.037 -24.142  1.00  0.00     0.360 C
ENDROOT
BRANCH   3   4
HETATM    4  N2  UNL     1       1.630 -19.397 -24.452  1.00  0.00    -0.025 N
ATOM      5  H22 UNL     1       1.088 -18.577 -24.724  1.00  0.00     0.282 HD
ATOM      6  H21 UNL     1       1.586 -19.924 -25.325  1.00  0.00     0.282 HD
BRANCH   4   7
HETATM    7  C3  UNL     1       0.988 -20.102 -23.406  1.00  0.00     0.393 C
HETATM    8  N3  UNL     1       0.013 -21.080 -23.742  1.00  0.00    -0.330 N
HETATM    9  C4  UNL     1      -0.075 -21.947 -22.608  1.00  0.00     0.142 C
ATOM     10  H3  UNL     1      -0.516 -21.150 -24.611  1.00  0.00     0.165 HD
HETATM   11  N4  UNL     1      -1.032 -22.716 -22.220  1.00  0.00    -0.383 N
HETATM   12  C5  UNL     1       1.207 -21.817 -21.896  1.00  0.00     0.142 C
ATOM     13  H42 UNL     1      -1.919 -22.806 -22.713  1.00  0.00     0.157 HD
ATOM     14  H41 UNL     1      -1.094 -23.335 -21.411  1.00  0.00     0.157 HD
HETATM   15  N5  UNL     1       1.568 -22.419 -20.813  1.00  0.00    -0.383 N
HETATM   16  N6  UNL     1       1.968 -20.881 -22.651  1.00  0.00    -0.330 N
ATOM     17  H52 UNL     1       1.023 -23.089 -20.272  1.00  0.00     0.157 HD
ATOM     18  H51 UNL     1       2.456 -22.329 -20.320  1.00  0.00     0.157 HD
ATOM     19  H6  UNL     1       2.982 -20.776 -22.664  1.00  0.00     0.165 HD
ENDBRANCH   4   7
ENDBRANCH   3   4
TORSDOF 2
ENDMDL