MODEL 1
REMARK VINA RESULT: -5.486070279      0.000      0.000
REMARK  6 active torsions:
REMARK  status: ('A' for Active; 'I' for Inactive)
REMARK    1  A    between atoms: C3_8  and  C4_9
REMARK    2  A    between atoms: C4_9  and  N4_10
REMARK    3  A    between atoms: C4_9  and  N5_14
REMARK    4  A    between atoms: N5_14  and  C5_16
REMARK    5  A    between atoms: C5_16  and  N6_17
REMARK    6  A    between atoms: N6_17  and  N7_19
ROOT
HETATM    1  C4  UNL     1       1.274 -19.931 -23.981  1.00  0.00     0.343 C
ENDROOT
BRANCH   1   2
HETATM    2  C3  UNL     1       1.036 -20.975 -22.942  1.00  0.00     0.102 A
HETATM    3  C1  UNL     1       1.952 -21.569 -22.087  1.00  0.00     0.143 A
HETATM    4  N1  UNL     1       3.344 -21.288 -22.032  1.00  0.00    -0.080 NA
HETATM    5  N2  UNL     1       1.286 -22.443 -21.333  1.00  0.00    -0.339 N
HETATM    6  C2  UNL     1       0.000 -22.406 -21.696  1.00  0.00     0.182 A
ATOM      7  H2  UNL     1       1.687 -23.036 -20.607  1.00  0.00     0.167 HD
HETATM    8  N3  UNL     1      -0.169 -21.508 -22.685  1.00  0.00    -0.350 N
ATOM      9  H3  UNL     1      -1.047 -21.276 -23.150  1.00  0.00     0.166 HD
ENDBRANCH   1   2
BRANCH   1  10
HETATM   10  N4  UNL     1       0.435 -18.765 -23.667  1.00  0.00    -0.052 N
ATOM     11  H43 UNL     1      -0.202 -18.937 -22.889  1.00  0.00     0.277 HD
ATOM     12  H42 UNL     1       0.965 -18.002 -23.245  1.00  0.00     0.277 HD
ATOM     13  H41 UNL     1      -0.052 -18.481 -24.517  1.00  0.00     0.277 HD
ENDBRANCH   1  10
BRANCH   1  14
HETATM   14  N5  UNL     1       2.636 -19.503 -23.995  1.00  0.00    -0.308 N
ATOM     15  H5  UNL     1       3.375 -20.113 -23.645  1.00  0.00     0.173 HD
BRANCH  14  16
HETATM   16  C5  UNL     1       2.913 -18.354 -24.447  1.00  0.00     0.065 C
BRANCH  16  17
HETATM   17  N6  UNL     1       3.456 -17.226 -24.742  1.00  0.00    -0.257 N
ATOM     18  H6  UNL     1       3.480 -16.886 -25.702  1.00  0.00     0.197 HD
BRANCH  17  19
HETATM   19  N7  UNL     1       4.006 -16.493 -23.705  1.00  0.00    -0.337 N
ATOM     20  H72 UNL     1       3.557 -16.478 -22.790  1.00  0.00     0.177 HD
ATOM     21  H71 UNL     1       4.865 -15.978 -23.898  1.00  0.00     0.177 HD
ENDBRANCH  17  19
ENDBRANCH  16  17
ENDBRANCH  14  16
ENDBRANCH   1  14
TORSDOF 6
ENDMDL