MODEL 1
REMARK VINA RESULT: -4.605098861      0.000      0.000
REMARK  4 active torsions:
REMARK  status: ('A' for Active; 'I' for Inactive)
REMARK    1  A    between atoms: C2_2  and  C3_3
REMARK    2  A    between atoms: C3_3  and  N1_4
REMARK    3  A    between atoms: N1_4  and  N2_5
REMARK    4  A    between atoms: N2_5  and  C4_7
ROOT
HETATM    1  C4  UNL     1       2.603 -20.922 -22.502  1.00  0.00     0.204 C
HETATM    2  N3  UNL     1       1.834 -20.210 -23.264  1.00  0.00    -0.345 N
ATOM      3  H3  UNL     1       0.814 -20.237 -23.256  1.00  0.00     0.163 HD
HETATM    4  C5  UNL     1       2.630 -19.377 -24.122  1.00  0.00     0.259 C
HETATM    5  N4  UNL     1       3.900 -19.318 -23.421  1.00  0.00    -0.119 NA
HETATM    6  N5  UNL     1       3.959 -20.584 -22.829  1.00  0.00    -0.273 N
ATOM      7  H5  UNL     1       4.791 -21.148 -22.663  1.00  0.00     0.185 HD
ENDROOT
BRANCH   1   8
HETATM    8  N2  UNL     1       2.227 -21.874 -21.511  1.00  0.00    -0.274 N
ATOM      9  H2  UNL     1       2.939 -22.510 -21.153  1.00  0.00     0.185 HD
BRANCH   8  10
HETATM   10  N1  UNL     1       0.927 -21.976 -21.006  1.00  0.00    -0.139 NA
BRANCH  10  11
HETATM   11  C3  UNL     1       0.205 -22.932 -21.827  1.00  0.00     0.135 C
BRANCH  11  12
HETATM   12  C2  UNL     1       0.388 -24.316 -21.242  1.00  0.00     0.013 C
HETATM   13  C1  UNL     1      -0.565 -24.433 -20.075  1.00  0.00     0.006 C
ENDBRANCH  11  12
ENDBRANCH  10  11
ENDBRANCH   8  10
ENDBRANCH   1   8
TORSDOF 4
ENDMDL