MODEL 2
REMARK VINA RESULT: -4.961913043      0.919      1.010
REMARK  6 active torsions:
REMARK  status: ('A' for Active; 'I' for Inactive)
REMARK    1  A    between atoms: N1_1  and  C1_5
REMARK    2  A    between atoms: C1_5  and  C2_6
REMARK    3  A    between atoms: C2_6  and  N2_7
REMARK    4  A    between atoms: C2_6  and  C3_11
REMARK    5  A    between atoms: C3_11  and  C4_12
REMARK    6  A    between atoms: C4_12  and  C5_13
ROOT
HETATM    1  C2  UNL     1      -1.087 -23.738 -22.273  1.00  0.00     0.208 C
ENDROOT
BRANCH   1   2
HETATM    2  C1  UNL     1      -0.002 -24.568 -21.632  1.00  0.00     0.262 C
BRANCH   2   3
HETATM    3  N1  UNL     1       0.986 -23.727 -20.980  1.00  0.00    -0.077 N
ATOM      4  H13 UNL     1       0.549 -23.054 -20.350  1.00  0.00     0.274 HD
ATOM      5  H12 UNL     1       1.532 -24.251 -20.295  1.00  0.00     0.274 HD
ATOM      6  H11 UNL     1       1.586 -23.265 -21.663  1.00  0.00     0.274 HD
ENDBRANCH   2   3
ENDBRANCH   1   2
BRANCH   1   7
HETATM    7  N2  UNL     1      -1.175 -24.053 -23.699  1.00  0.00    -0.073 N
ATOM      8  H23 UNL     1      -1.936 -23.550 -24.156  1.00  0.00     0.274 HD
ATOM      9  H22 UNL     1      -0.398 -23.656 -24.228  1.00  0.00     0.274 HD
ATOM     10  H21 UNL     1      -1.251 -25.062 -23.828  1.00  0.00     0.274 HD
ENDBRANCH   1   7
BRANCH   1  11
HETATM   11  C3  UNL     1      -0.839 -22.264 -22.165  1.00  0.00     0.037 C
BRANCH  11  12
HETATM   12  C4  UNL     1      -0.376 -21.692 -23.459  1.00  0.00     0.044 C
BRANCH  12  13
HETATM   13  C5  UNL     1       0.520 -20.491 -23.232  1.00  0.00     0.220 C
HETATM   14  N3  UNL     1       1.743 -20.890 -22.565  1.00  0.00    -0.094 NA
HETATM   15  N4  UNL     1       2.729 -20.130 -23.247  1.00  0.00     0.035 NA
HETATM   16  O1  UNL     1       2.328 -20.116 -24.518  1.00  0.00    -0.152 OA
HETATM   17  N5  UNL     1       0.998 -19.904 -24.445  1.00  0.00    -0.053 NA
ENDBRANCH  12  13
ENDBRANCH  11  12
ENDBRANCH   1  11
TORSDOF 6
ENDMDL