MODEL 2
REMARK VINA RESULT: -4.079259233      1.691      1.701
REMARK  4 active torsions:
REMARK  status: ('A' for Active; 'I' for Inactive)
REMARK    1  A    between atoms: N1_1  and  C1_5
REMARK    2  A    between atoms: C1_5  and  C2_6
REMARK    3  A    between atoms: C1_5  and  C4_9
REMARK    4  A    between atoms: C2_6  and  C3_7
ROOT
HETATM    1  C1  UNL     1       0.102 -22.518 -21.580  1.00  0.00     0.252 C
ENDROOT
BRANCH   1   2
HETATM    2  N1  UNL     1      -0.933 -22.728 -22.641  1.00  0.00    -0.068 N
ATOM      3  H13 UNL     1      -0.582 -22.569 -23.586  1.00  0.00     0.275 HD
ATOM      4  H12 UNL     1      -1.193 -23.706 -22.767  1.00  0.00     0.275 HD
ATOM      5  H11 UNL     1      -1.720 -22.127 -22.395  1.00  0.00     0.275 HD
ENDBRANCH   1   2
BRANCH   1   6
HETATM    6  C2  UNL     1       0.442 -23.858 -21.066  1.00  0.00     0.052 C
BRANCH   6   7
HETATM    7  C3  UNL     1      -0.623 -24.794 -20.654  1.00  0.00     0.088 C
HETATM    8  S1  UNL     1      -1.563 -24.379 -19.198  1.00  0.00    -0.098 SA
ENDBRANCH   6   7
ENDBRANCH   1   6
BRANCH   1   9
HETATM    9  C4  UNL     1       1.196 -21.709 -22.133  1.00  0.00     0.120 A
HETATM   10  N2  UNL     1       1.051 -20.826 -23.069  1.00  0.00    -0.362 N
HETATM   11  C5  UNL     1       2.302 -20.195 -23.401  1.00  0.00     0.257 A
ATOM     12  H2  UNL     1       0.161 -20.605 -23.515  1.00  0.00     0.162 HD
HETATM   13  N3  UNL     1       3.292 -20.802 -22.577  1.00  0.00    -0.120 NA
HETATM   14  N4  UNL     1       2.555 -21.700 -21.801  1.00  0.00    -0.290 N
ATOM     15  H4  UNL     1       2.963 -22.285 -21.073  1.00  0.00     0.183 HD
ENDBRANCH   1   9
TORSDOF 4
ENDMDL