MODEL 5
REMARK VINA RESULT: -7.221374092      2.537      8.680
REMARK  5 active torsions:
REMARK  status: ('A' for Active; 'I' for Inactive)
REMARK    1  A    between atoms: N3_4  and  C2_6
REMARK    2  A    between atoms: C6_10  and  C7_11
REMARK    3  A    between atoms: C7_11  and  N4_12
REMARK    4  A    between atoms: N4_12  and  C8_14
REMARK    5  A    between atoms: C8_14  and  C9_15
ROOT
HETATM    1  C2  UNL     1     219.238   8.328   9.323  1.00  0.00     0.035 A
HETATM    2  C3  UNL     1     219.820   9.599   9.436  1.00  0.00     0.029 A
HETATM    3  C4  UNL     1     220.340  10.215   8.319  1.00  0.00     0.003 A
HETATM    4  C5  UNL     1     220.282   9.569   7.107  1.00  0.00     0.013 A
HETATM    5  C6  UNL     1     219.732   8.337   6.941  1.00  0.00    -0.019 A
HETATM    6  C14 UNL     1     219.200   7.716   8.086  1.00  0.00     0.042 A
ENDROOT
BRANCH   5   7
HETATM    7  C7  UNL     1     219.772   7.662   5.688  1.00  0.00     0.094 C
BRANCH   7   8
HETATM    8  N4  UNL     1     220.677   8.086   4.641  1.00  0.00    -0.394 N
ATOM      9  H4  UNL     1     221.261   8.922   4.610  1.00  0.00     0.159 HD
BRANCH   8  10
HETATM   10  C8  UNL     1     220.554   7.030   3.639  1.00  0.00     0.159 C
BRANCH  10  11
HETATM   11  C9  UNL     1     221.577   7.080   2.577  1.00  0.00    -0.025 A
HETATM   12  C10 UNL     1     222.053   5.969   1.933  1.00  0.00     0.011 A
HETATM   13  C11 UNL     1     223.066   6.090   0.960  1.00  0.00     0.018 A
HETATM   14  C12 UNL     1     223.578   7.318   0.658  1.00  0.00     0.087 A
HETATM   15  N5  UNL     1     223.121   8.406   1.278  1.00  0.00    -0.375 N
HETATM   16  C13 UNL     1     222.131   8.293   2.230  1.00  0.00     0.096 A
ATOM     17  H5  UNL     1     223.504   9.322   1.047  1.00  0.00     0.164 HD
ENDBRANCH  10  11
ENDBRANCH   8  10
ENDBRANCH   7   8
ENDBRANCH   5   7
BRANCH   1  18
HETATM   18  N3  UNL     1     218.822   7.723  10.533  1.00  0.00    -0.333 N
HETATM   19  C1  UNL     1     217.703   7.725  11.078  1.00  0.00     0.201 C
HETATM   20  N1  UNL     1     217.468   7.036  12.298  1.00  0.00    -0.066 NA
HETATM   21  N2  UNL     1     216.598   8.493  10.596  1.00  0.00    -0.066 NA
ATOM     22  H3  UNL     1     219.547   7.208  11.032  1.00  0.00     0.168 HD
ENDBRANCH   1  18
TORSDOF 5
ENDMDL