MODEL 4
REMARK VINA RESULT: -7.905163299      1.254      1.254
REMARK  5 active torsions:
REMARK  status: ('A' for Active; 'I' for Inactive)
REMARK    1  A    between atoms: O1_2  and  C2_3
REMARK    2  A    between atoms: C5_6  and  C6_7
REMARK    3  A    between atoms: C7_8  and  C8_9
REMARK    4  A    between atoms: C9_10  and  C10_11
REMARK    5  A    between atoms: N2_13  and  N3_15
REMARK       I    between atoms: N3_15  and  C11_17
ROOT
HETATM    1  C8  UNL     1     219.638   8.402   6.517  1.00  0.00     0.003 C
HETATM    2  C9  UNL     1     220.555   8.480   5.513  1.00  0.00     0.046 C
ENDROOT
BRANCH   1   3
HETATM    3  C7  UNL     1     219.844   9.244   7.650  1.00  0.00     0.001 C
HETATM    4  C6  UNL     1     219.314   9.288   8.801  1.00  0.00     0.011 C
BRANCH   4   5
HETATM    5  C5  UNL     1     218.293   8.543   9.493  1.00  0.00    -0.036 A
HETATM    6  C4  UNL     1     217.043   8.378   8.859  1.00  0.00     0.014 A
HETATM    7  C3  UNL     1     215.995   7.688   9.421  1.00  0.00     0.037 A
HETATM    8  C2  UNL     1     216.142   7.120  10.662  1.00  0.00     0.068 A
HETATM    9  C13 UNL     1     217.345   7.262  11.307  1.00  0.00     0.037 A
HETATM   10  C12 UNL     1     218.405   7.962  10.733  1.00  0.00     0.014 A
BRANCH   8  11
HETATM   11  O1  UNL     1     215.094   6.414  11.257  1.00  0.00    -0.356 OA
HETATM   12  C1  UNL     1     215.068   6.279  12.666  1.00  0.00     0.210 C
ENDBRANCH   8  11
ENDBRANCH   4   5
ENDBRANCH   1   3
BRANCH   2  13
HETATM   13  C10 UNL     1     220.400   7.653   4.338  1.00  0.00     0.130 C
HETATM   14  N1  UNL     1     219.307   6.753   4.239  1.00  0.00    -0.081 NA
HETATM   15  N2  UNL     1     221.265   7.738   3.376  1.00  0.00    -0.284 N
ATOM     16  H2  UNL     1     222.051   8.385   3.448  1.00  0.00     0.188 HD
BRANCH  15  17
HETATM   17  N3  UNL     1     221.117   6.944   2.249  1.00  0.00    -0.253 N
HETATM   18  C11 UNL     1     221.204   7.468   0.930  1.00  0.00     0.347 C
HETATM   19  N4  UNL     1     221.053   6.665  -0.228  1.00  0.00    -0.038 NA
HETATM   20  O2  UNL     1     221.425   8.707   0.790  1.00  0.00    -0.249 OA
ATOM     21  H3  UNL     1     220.939   5.947   2.370  1.00  0.00     0.191 HD
ENDBRANCH  15  17
ENDBRANCH   2  13
TORSDOF 5
ENDMDL