MODEL 3
REMARK VINA RESULT: -7.443320278      1.261      7.329
REMARK  5 active torsions:
REMARK  status: ('A' for Active; 'I' for Inactive)
REMARK    1  A    between atoms: C1_4  and  C2_6
REMARK    2  A    between atoms: C6_10  and  C7_11
REMARK    3  A    between atoms: C7_11  and  O1_12
REMARK    4  A    between atoms: O1_12  and  C8_13
REMARK    5  A    between atoms: N3_17  and  N4_18
ROOT
HETATM    1  C2  UNL     1     220.059   8.339   6.252  1.00  0.00     0.005 A
HETATM    2  C3  UNL     1     220.422   9.653   6.408  1.00  0.00     0.015 A
HETATM    3  C4  UNL     1     220.353  10.212   7.683  1.00  0.00     0.002 A
HETATM    4  C5  UNL     1     219.935   9.461   8.739  1.00  0.00     0.009 A
HETATM    5  C6  UNL     1     219.571   8.144   8.584  1.00  0.00    -0.033 A
HETATM    6  C13 UNL     1     219.630   7.574   7.346  1.00  0.00     0.024 A
ENDROOT
BRANCH   5   7
HETATM    7  C7  UNL     1     219.113   7.353   9.788  1.00  0.00     0.214 C
BRANCH   7   8
HETATM    8  O1  UNL     1     218.353   8.183  10.610  1.00  0.00    -0.345 OA
BRANCH   8   9
HETATM    9  C8  UNL     1     217.076   7.893  11.054  1.00  0.00     0.086 A
HETATM   10  C9  UNL     1     216.153   7.382  10.164  1.00  0.00     0.039 A
HETATM   11  C10 UNL     1     214.852   7.076  10.576  1.00  0.00     0.022 A
HETATM   12  C11 UNL     1     214.468   7.279  11.886  1.00  0.00     0.115 A
HETATM   13  N3  UNL     1     215.391   7.778  12.728  1.00  0.00    -0.283 N
HETATM   14  C12 UNL     1     216.651   8.080  12.353  1.00  0.00     0.151 A
BRANCH  13  15
HETATM   15  N4  UNL     1     215.025   7.989  14.049  1.00  0.00    -0.339 N
ATOM     16  H42 UNL     1     214.386   7.328  14.489  1.00  0.00     0.177 HD
ATOM     17  H41 UNL     1     215.409   8.802  14.532  1.00  0.00     0.177 HD
ENDBRANCH  13  15
ENDBRANCH   8   9
ENDBRANCH   7   8
ENDBRANCH   5   7
BRANCH   1  18
HETATM   18  C1  UNL     1     220.116   7.725   4.954  1.00  0.00     0.120 C
HETATM   19  N1  UNL     1     219.229   6.889   4.577  1.00  0.00    -0.387 N
ATOM     20  H12 UNL     1     219.269   6.453   3.655  1.00  0.00     0.157 HD
ATOM     21  H11 UNL     1     218.454   6.633   5.189  1.00  0.00     0.157 HD
HETATM   22  N2  UNL     1     221.207   8.086   4.092  1.00  0.00    -0.082 NA
ENDBRANCH   1  18
TORSDOF 5
ENDMDL