MODEL 3
REMARK VINA RESULT: -6.647161545      0.767      1.240
REMARK  8 active torsions:
REMARK  status: ('A' for Active; 'I' for Inactive)
REMARK    1  A    between atoms: C2_2  and  C3_3
REMARK    2  A    between atoms: C3_3  and  C4_4
REMARK    3  A    between atoms: C4_4  and  C5_5
REMARK    4  A    between atoms: C6_6  and  C7_7
REMARK    5  A    between atoms: C7_7  and  N1_8
REMARK    6  A    between atoms: N1_8  and  N2_10
REMARK    7  A    between atoms: N4_16  and  C9_17
REMARK    8  A    between atoms: C9_17  and  C10_18
ROOT
HETATM    1  C5  UNL     1     215.887   7.183  10.636  1.00  0.00     0.060 A
HETATM    2  C6  UNL     1     214.854   7.901   9.961  1.00  0.00     0.026 A
HETATM    3  C8  UNL     1     215.463   8.797   9.134  1.00  0.00     0.122 A
HETATM    4  N3  UNL     1     216.752   8.674   9.258  1.00  0.00    -0.308 N
ATOM      5  H3  UNL     1     217.449   9.221   8.753  1.00  0.00     0.186 HD
HETATM    6  N4  UNL     1     217.029   7.692  10.174  1.00  0.00    -0.288 N
ENDROOT
BRANCH   6   7
HETATM    7  C9  UNL     1     218.425   7.498  10.500  1.00  0.00     0.187 C
BRANCH   7   8
HETATM    8  C10 UNL     1     219.237   8.118   9.404  1.00  0.00    -0.038 A
HETATM    9  C11 UNL     1     219.668   9.448   9.559  1.00  0.00     0.009 A
HETATM   10  C12 UNL     1     220.393  10.052   8.565  1.00  0.00     0.001 A
HETATM   11  C13 UNL     1     220.684   9.337   7.431  1.00  0.00     0.000 A
HETATM   12  C14 UNL     1     220.270   8.035   7.263  1.00  0.00     0.001 A
HETATM   13  C15 UNL     1     219.529   7.420   8.278  1.00  0.00     0.009 A
ENDBRANCH   7   8
ENDBRANCH   6   7
BRANCH   1  14
HETATM   14  C4  UNL     1     215.650   6.215  11.481  1.00  0.00     0.005 C
BRANCH  14  15
HETATM   15  C3  UNL     1     215.261   6.330  12.861  1.00  0.00     0.029 C
BRANCH  15  16
HETATM   16  C2  UNL     1     215.246   7.800  13.331  1.00  0.00    -0.001 C
HETATM   17  C1  UNL     1     216.522   8.194  13.976  1.00  0.00     0.005 C
ENDBRANCH  15  16
ENDBRANCH  14  15
ENDBRANCH   1  14
BRANCH   2  18
HETATM   18  C7  UNL     1     213.555   7.724  10.119  1.00  0.00     0.121 C
BRANCH  18  19
HETATM   19  N1  UNL     1     212.699   7.935   9.009  1.00  0.00    -0.318 N
ATOM     20  H1  UNL     1     212.934   7.481   8.126  1.00  0.00     0.185 HD
BRANCH  19  21
HETATM   21  N2  UNL     1     211.553   8.730   9.055  1.00  0.00    -0.345 N
ATOM     22  H22 UNL     1     211.438   9.333   9.870  1.00  0.00     0.176 HD
ATOM     23  H21 UNL     1     210.838   8.737   8.327  1.00  0.00     0.176 HD
ENDBRANCH  19  21
ENDBRANCH  18  19
ENDBRANCH   2  18
TORSDOF 8
ENDMDL