MODEL 2
REMARK VINA RESULT: -6.514476395      0.082      1.147
REMARK  6 active torsions:
REMARK  status: ('A' for Active; 'I' for Inactive)
REMARK    1  A    between atoms: C2_2  and  C3_3
REMARK    2  A    between atoms: C3_3  and  N1_6
REMARK    3  A    between atoms: N1_6  and  N2_7
REMARK    4  A    between atoms: N2_7  and  C6_9
REMARK    5  A    between atoms: C9_12  and  S1_13
REMARK    6  A    between atoms: S1_13  and  N3_14
ROOT
HETATM    1  C6  UNL     1     218.158   8.363  10.415  1.00  0.00     0.044 A
HETATM    2  C7  UNL     1     218.913   9.474  10.104  1.00  0.00     0.032 A
HETATM    3  C8  UNL     1     219.607   9.568   8.916  1.00  0.00     0.027 A
HETATM    4  C9  UNL     1     219.562   8.552   8.007  1.00  0.00     0.079 A
HETATM    5  C10 UNL     1     218.796   7.442   8.337  1.00  0.00     0.027 A
HETATM    6  C11 UNL     1     218.099   7.328   9.515  1.00  0.00     0.032 A
ENDROOT
BRANCH   1   7
HETATM    7  N2  UNL     1     217.442   8.262  11.641  1.00  0.00    -0.303 N
ATOM      8  H2  UNL     1     217.279   9.071  12.239  1.00  0.00     0.182 HD
BRANCH   7   9
HETATM    9  N1  UNL     1     216.973   6.977  11.979  1.00  0.00    -0.127 NA
BRANCH   9  10
HETATM   10  C3  UNL     1     215.541   6.961  12.128  1.00  0.00     0.060 C
HETATM   11  C4  UNL     1     215.205   5.811  13.071  1.00  0.00     0.040 C
HETATM   12  C5  UNL     1     215.133   8.297  12.716  1.00  0.00     0.040 C
BRANCH  10  13
HETATM   13  C2  UNL     1     214.913   6.721  10.825  1.00  0.00    -0.009 C
HETATM   14  C1  UNL     1     214.407   7.716  10.120  1.00  0.00     0.009 C
ENDBRANCH  10  13
ENDBRANCH   9  10
ENDBRANCH   7   9
ENDBRANCH   1   7
BRANCH   4  15
HETATM   15  S1  UNL     1     220.416   8.592   6.468  1.00  0.00     0.256 S
HETATM   16  O1  UNL     1     220.529  10.011   6.008  1.00  0.00    -0.201 OA
HETATM   17  O2  UNL     1     221.763   7.969   6.686  1.00  0.00    -0.201 OA
BRANCH  15  18
HETATM   18  N3  UNL     1     219.458   7.652   5.362  1.00  0.00    -0.324 N
ATOM     19  H32 UNL     1     219.474   6.637   5.262  1.00  0.00     0.169 HD
ATOM     20  H31 UNL     1     218.887   8.320   4.845  1.00  0.00     0.169 HD
ENDBRANCH  15  18
ENDBRANCH   4  15
TORSDOF 6
ENDMDL