MODEL 5
REMARK VINA RESULT: -6.627462045      3.665      6.841
REMARK  5 active torsions:
REMARK  status: ('A' for Active; 'I' for Inactive)
REMARK    1  A    between atoms: O1_2  and  C2_3
REMARK    2  A    between atoms: C6_7  and  C7_8
REMARK    3  A    between atoms: C7_8  and  C8_9
REMARK    4  A    between atoms: C10_13  and  C11_14
REMARK    5  A    between atoms: N3_16  and  N4_18
ROOT
HETATM    1  C8  UNL     1     218.178   7.618  10.091  1.00  0.00    -0.036 A
HETATM    2  C9  UNL     1     217.158   8.175   9.355  1.00  0.00     0.096 A
HETATM    3  N1  UNL     1     216.095   8.244  10.168  1.00  0.00    -0.363 N
ATOM      4  H1  UNL     1     215.189   8.618   9.886  1.00  0.00     0.165 HD
HETATM    5  C10 UNL     1     216.354   7.765  11.395  1.00  0.00     0.075 A
HETATM    6  C12 UNL     1     217.680   7.367  11.346  1.00  0.00     0.041 A
ENDROOT
BRANCH   1   7
HETATM    7  C7  UNL     1     219.564   7.354   9.574  1.00  0.00     0.078 C
BRANCH   7   8
HETATM    8  C6  UNL     1     219.818   8.108   8.318  1.00  0.00    -0.051 A
HETATM    9  C5  UNL     1     220.174   9.440   8.356  1.00  0.00     0.007 A
HETATM   10  C4  UNL     1     220.417  10.164   7.191  1.00  0.00     0.003 A
HETATM   11  C3  UNL     1     220.307   9.564   5.954  1.00  0.00     0.037 A
HETATM   12  C2  UNL     1     219.951   8.233   5.916  1.00  0.00     0.068 A
HETATM   13  C13 UNL     1     219.712   7.519   7.077  1.00  0.00     0.044 A
BRANCH  12  14
HETATM   14  O1  UNL     1     219.824   7.579   4.714  1.00  0.00    -0.356 OA
HETATM   15  C1  UNL     1     220.892   7.507   3.774  1.00  0.00     0.210 C
ENDBRANCH  12  14
ENDBRANCH   7   8
ENDBRANCH   1   7
BRANCH   5  16
HETATM   16  C11 UNL     1     215.442   7.679  12.537  1.00  0.00     0.157 C
HETATM   17  N2  UNL     1     214.113   7.248  12.346  1.00  0.00    -0.079 NA
HETATM   18  N3  UNL     1     215.849   7.993  13.707  1.00  0.00    -0.293 N
ATOM     19  H3  UNL     1     216.817   8.300  13.807  1.00  0.00     0.187 HD
BRANCH  18  20
HETATM   20  N4  UNL     1     215.071   7.946  14.845  1.00  0.00    -0.344 N
ATOM     21  H42 UNL     1     214.070   8.103  14.722  1.00  0.00     0.176 HD
ATOM     22  H41 UNL     1     215.428   7.768  15.784  1.00  0.00     0.176 HD
ENDBRANCH  18  20
ENDBRANCH   5  16
TORSDOF 5
ENDMDL