MODEL 2
REMARK VINA RESULT: -4.245060191      1.972      3.229
REMARK  5 active torsions:
REMARK  status: ('A' for Active; 'I' for Inactive)
REMARK    1  A    between atoms: C2_2  and  C3_3
REMARK    2  A    between atoms: C2_2  and  C4_5
REMARK    3  A    between atoms: C4_5  and  N1_6
REMARK    4  A    between atoms: C4_5  and  C6_13
REMARK       I    between atoms: N1_6  and  C5_8
REMARK    5  A    between atoms: C11_18  and  N4_19
ROOT
HETATM    1  C4  UNL     1     223.628   6.837   0.674  1.00  0.00     0.155 C
ENDROOT
BRANCH   1   2
HETATM    2  C2  UNL     1     224.210   8.182   0.547  1.00  0.00    -0.003 C
HETATM    3  C1  UNL     1     224.210   8.774  -0.670  1.00  0.00     0.024 C
BRANCH   2   4
HETATM    4  C3  UNL     1     224.829   8.964   1.591  1.00  0.00     0.267 C
HETATM    5  O1  UNL     1     225.231   8.418   2.645  1.00  0.00    -0.302 OA
ENDBRANCH   2   4
ENDBRANCH   1   2
BRANCH   1   6
HETATM    6  N1  UNL     1     222.976   6.656   1.962  1.00  0.00    -0.352 N
HETATM    7  C5  UNL     1     221.702   7.130   2.275  1.00  0.00     0.182 C
HETATM    8  N2  UNL     1     221.422   7.468   3.480  1.00  0.00    -0.374 N
HETATM    9  N3  UNL     1     220.720   7.236   1.260  1.00  0.00    -0.064 NA
ATOM     10  H22 UNL     1     222.130   7.392   4.211  1.00  0.00     0.158 HD
ATOM     11  H21 UNL     1     220.491   7.814   3.708  1.00  0.00     0.158 HD
ATOM     12  H1  UNL     1     223.486   6.150   2.686  1.00  0.00     0.163 HD
ENDBRANCH   1   6
BRANCH   1  13
HETATM   13  C6  UNL     1     224.516   5.695   0.443  1.00  0.00    -0.004 A
HETATM   14  C7  UNL     1     225.880   5.748   0.505  1.00  0.00     0.012 A
HETATM   15  C8  UNL     1     226.717   4.654   0.255  1.00  0.00     0.001 A
HETATM   16  C9  UNL     1     226.160   3.444  -0.073  1.00  0.00     0.002 A
HETATM   17  C10 UNL     1     224.799   3.346  -0.145  1.00  0.00     0.030 A
HETATM   18  C11 UNL     1     223.976   4.453   0.109  1.00  0.00     0.038 A
BRANCH  18  19
HETATM   19  N4  UNL     1     222.578   4.305   0.055  1.00  0.00    -0.389 N
HETATM   20  C12 UNL     1     221.818   4.850  -1.034  1.00  0.00     0.149 C
HETATM   21  C13 UNL     1     221.886   3.599   1.102  1.00  0.00     0.149 C
ENDBRANCH  18  19
ENDBRANCH   1  13
TORSDOF 5
ENDMDL