MODEL 4
REMARK VINA RESULT: -5.232927547      3.859      7.173
REMARK  5 active torsions:
REMARK  status: ('A' for Active; 'I' for Inactive)
REMARK    1  A    between atoms: C3_3  and  C4_4
REMARK    2  A    between atoms: C4_4  and  N1_5
REMARK    3  A    between atoms: N1_5  and  C5_7
REMARK    4  A    between atoms: C8_10  and  S1_11
REMARK    5  A    between atoms: S1_11  and  N2_14
ROOT
HETATM    1  C1  UNL     1     213.142   1.107  14.482  1.00  0.00     0.112 C
HETATM    2  C2  UNL     1     213.964   2.311  14.302  1.00  0.00    -0.109 C
HETATM    3  C3  UNL     1     214.655   3.294  14.158  1.00  0.00    -0.087 C
ENDROOT
BRANCH   3   4
HETATM    4  C4  UNL     1     215.511   4.466  13.983  1.00  0.00     0.214 C
BRANCH   4   5
HETATM    5  N1  UNL     1     214.891   5.448  13.109  1.00  0.00    -0.380 N
ATOM      6  H1  UNL     1     213.893   5.638  13.191  1.00  0.00     0.160 HD
BRANCH   5   7
HETATM    7  C5  UNL     1     215.665   6.148  12.139  1.00  0.00     0.028 A
HETATM    8  C6  UNL     1     215.191   6.429  10.883  1.00  0.00     0.031 A
HETATM    9  C7  UNL     1     215.957   7.110   9.953  1.00  0.00     0.027 A
HETATM   10  C8  UNL     1     217.233   7.533  10.254  1.00  0.00     0.079 A
HETATM   11  C10 UNL     1     217.721   7.255  11.515  1.00  0.00     0.027 A
HETATM   12  C11 UNL     1     216.940   6.569  12.441  1.00  0.00     0.031 A
BRANCH  10  13
HETATM   13  S1  UNL     1     218.203   8.390   9.090  1.00  0.00     0.258 S
HETATM   14  O1  UNL     1     218.877   9.595   9.723  1.00  0.00    -0.201 OA
HETATM   15  O2  UNL     1     217.339   8.945   7.979  1.00  0.00    -0.201 OA
BRANCH  13  16
HETATM   16  N2  UNL     1     219.414   7.412   8.382  1.00  0.00    -0.320 N
HETATM   17  C9  UNL     1     220.331   8.156   7.578  1.00  0.00     0.159 C
ATOM     18  H2  UNL     1     219.476   6.402   8.520  1.00  0.00     0.171 HD
ENDBRANCH  13  16
ENDBRANCH  10  13
ENDBRANCH   5   7
ENDBRANCH   4   5
ENDBRANCH   3   4
TORSDOF 5
ENDMDL