MODEL 1
REMARK VINA RESULT: -5.466372255      0.000      0.000
REMARK  6 active torsions:
REMARK  status: ('A' for Active; 'I' for Inactive)
REMARK    1  A    between atoms: C7_7  and  C8_8
REMARK    2  A    between atoms: C8_8  and  N1_9
REMARK    3  A    between atoms: C8_8  and  C11_17
REMARK    4  A    between atoms: N1_9  and  C9_11
REMARK    5  A    between atoms: C9_11  and  C10_12
REMARK    6  A    between atoms: C10_12  and  N2_13
ROOT
HETATM    1  C8  UNL     1     217.979   8.391  10.897  1.00  0.00     0.164 C
ENDROOT
BRANCH   1   2
HETATM    2  C7  UNL     1     216.607   8.092  10.467  1.00  0.00    -0.024 A
HETATM    3  C2  UNL     1     215.530   8.854  10.813  1.00  0.00    -0.053 A
HETATM    4  C1  UNL     1     215.743  10.021  11.683  1.00  0.00     0.049 C
HETATM    5  C3  UNL     1     214.254   8.539  10.361  1.00  0.00     0.007 A
HETATM    6  C4  UNL     1     214.071   7.448   9.555  1.00  0.00     0.001 A
HETATM    7  C5  UNL     1     215.138   6.652   9.183  1.00  0.00     0.001 A
HETATM    8  C6  UNL     1     216.401   6.997   9.653  1.00  0.00     0.010 A
ENDBRANCH   1   2
BRANCH   1   9
HETATM    9  N1  UNL     1     218.481   7.325  11.687  1.00  0.00    -0.387 N
ATOM     10  H1  UNL     1     219.409   6.947  11.496  1.00  0.00     0.159 HD
BRANCH   9  11
HETATM   11  C9  UNL     1     217.711   6.787  12.730  1.00  0.00     0.083 C
BRANCH  11  12
HETATM   12  C10 UNL     1     217.531   7.623  13.965  1.00  0.00     0.273 C
BRANCH  12  13
HETATM   13  N2  UNL     1     216.161   7.981  14.209  1.00  0.00    -0.075 N
ATOM     14  H23 UNL     1     215.988   8.953  13.950  1.00  0.00     0.274 HD
ATOM     15  H22 UNL     1     215.541   7.517  13.545  1.00  0.00     0.274 HD
ATOM     16  H21 UNL     1     215.866   7.803  15.168  1.00  0.00     0.274 HD
ENDBRANCH  12  13
ENDBRANCH  11  12
ENDBRANCH   9  11
ENDBRANCH   1   9
BRANCH   1  17
HETATM   17  C11 UNL     1     218.853   8.449   9.669  1.00  0.00     0.036 A
HETATM   18  C12 UNL     1     219.427   9.625   9.238  1.00  0.00     0.027 A
HETATM   19  C13 UNL     1     220.232   9.669   8.114  1.00  0.00     0.003 A
HETATM   20  C14 UNL     1     220.479   8.525   7.396  1.00  0.00     0.017 A
HETATM   21  C15 UNL     1     219.889   7.360   7.853  1.00  0.00     0.088 A
HETATM   22  N3  UNL     1     219.110   7.350   8.951  1.00  0.00    -0.367 N
ATOM     23  H3  UNL     1     218.698   6.466   9.249  1.00  0.00     0.165 HD
ENDBRANCH   1  17
TORSDOF 6
ENDMDL