MODEL 4
REMARK VINA RESULT: -5.803510312      5.089      9.085
REMARK  6 active torsions:
REMARK  status: ('A' for Active; 'I' for Inactive)
REMARK    1  A    between atoms: C2_2  and  C3_3
REMARK    2  A    between atoms: C3_3  and  N1_4
REMARK    3  A    between atoms: N1_4  and  C4_6
REMARK    4  A    between atoms: C7_15  and  N5_16
REMARK    5  A    between atoms: C12_24  and  N7_25
REMARK    6  A    between atoms: N7_25  and  C13_27
ROOT
HETATM    1  C4  UNL     1      -6.537  34.279   2.390  1.00  0.00     0.133 A
HETATM    2  N2  UNL     1      -6.439  35.128   1.347  1.00  0.00    -0.337 N
ATOM      3  H2  UNL     1      -6.749  34.816   0.427  1.00  0.00     0.168 HD
HETATM    4  C5  UNL     1      -5.946  36.374   1.479  1.00  0.00     0.183 A
HETATM    5  N3  UNL     1      -5.539  36.782   2.691  1.00  0.00    -0.337 N
ATOM      6  H3  UNL     1      -5.165  37.725   2.793  1.00  0.00     0.168 HD
HETATM    7  C6  UNL     1      -5.607  35.988   3.780  1.00  0.00     0.139 A
HETATM    8  N4  UNL     1      -5.203  36.400   4.967  1.00  0.00    -0.324 N
ATOM      9  H4  UNL     1      -4.828  37.343   5.073  1.00  0.00     0.169 HD
HETATM   10  C7  UNL     1      -5.282  35.568   6.069  1.00  0.00     0.149 A
HETATM   11  C12 UNL     1      -5.790  34.300   5.904  1.00  0.00     0.147 A
HETATM   12  N8  UNL     1      -6.193  33.909   4.688  1.00  0.00    -0.334 N
ATOM     13  H8  UNL     1      -6.569  32.969   4.571  1.00  0.00     0.168 HD
HETATM   14  C16 UNL     1      -6.116  34.719   3.615  1.00  0.00     0.122 A
ENDROOT
BRANCH  10  15
HETATM   15  N5  UNL     1      -4.803  36.121   7.267  1.00  0.00    -0.361 N
HETATM   16  C8  UNL     1      -3.337  36.297   7.408  1.00  0.00     0.152 C
HETATM   17  C9  UNL     1      -3.180  37.467   8.364  1.00  0.00     0.252 C
HETATM   18  N6  UNL     1      -4.162  38.497   8.150  1.00  0.00    -0.072 N
HETATM   19  C10 UNL     1      -5.515  38.082   8.393  1.00  0.00     0.252 C
ATOM     20  H62 UNL     1      -3.938  39.324   8.704  1.00  0.00     0.277 HD
ATOM     21  H61 UNL     1      -4.072  38.886   7.211  1.00  0.00     0.277 HD
HETATM   22  C11 UNL     1      -5.516  36.554   8.432  1.00  0.00     0.152 C
ENDBRANCH  10  15
BRANCH  11  23
HETATM   23  N7  UNL     1      -5.891  33.519   6.864  1.00  0.00    -0.369 N
ATOM     24  H7  UNL     1      -6.701  33.713   7.452  1.00  0.00     0.161 HD
BRANCH  23  25
HETATM   25  C13 UNL     1      -5.133  32.426   7.318  1.00  0.00     0.075 C
HETATM   26  C14 UNL     1      -4.218  32.788   8.487  1.00  0.00     0.031 C
HETATM   27  C15 UNL     1      -5.890  31.201   7.692  1.00  0.00     0.031 C
ENDBRANCH  23  25
ENDBRANCH  11  23
BRANCH   1  28
HETATM   28  N1  UNL     1      -7.016  33.076   2.254  1.00  0.00    -0.374 N
ATOM     29  H1  UNL     1      -6.523  32.267   2.634  1.00  0.00     0.161 HD
BRANCH  28  30
HETATM   30  C3  UNL     1      -8.273  32.923   1.543  1.00  0.00     0.121 C
BRANCH  30  31
HETATM   31  C2  UNL     1      -8.140  31.978   0.360  1.00  0.00     0.015 C
HETATM   32  C1  UNL     1      -7.766  32.701  -0.899  1.00  0.00     0.006 C
ENDBRANCH  30  31
ENDBRANCH  28  30
ENDBRANCH   1  28
TORSDOF 6
ENDMDL