MODEL 4
REMARK VINA RESULT: -7.183663720      4.068      5.875
REMARK  6 active torsions:
REMARK  status: ('A' for Active; 'I' for Inactive)
REMARK    1  A    between atoms: C4_6  and  N2_7
REMARK    2  A    between atoms: N2_7  and  C5_9
REMARK    3  A    between atoms: C5_9  and  C6_10
REMARK       I    between atoms: C6_10  and  N3_12
REMARK    4  A    between atoms: N3_12  and  C7_14
REMARK    5  A    between atoms: C8_19  and  C9_20
REMARK    6  A    between atoms: C9_20  and  C10_21
ROOT
HETATM    1  C1  UNL     1      -9.864  37.299  -4.856  1.00  0.00     0.052 C
HETATM    2  C2  UNL     1      -9.036  36.191  -4.312  1.00  0.00    -0.008 A
HETATM    3  C3  UNL     1      -7.714  36.374  -4.010  1.00  0.00     0.115 A
HETATM    4  N1  UNL     1      -6.949  35.388  -3.519  1.00  0.00    -0.201 N
ATOM      5  H1  UNL     1      -5.965  35.550  -3.303  1.00  0.00     0.183 HD
HETATM    6  C4  UNL     1      -7.509  34.182  -3.319  1.00  0.00     0.679 A
HETATM    7  N6  UNL     1      -8.803  33.967  -3.604  1.00  0.00    -0.181 N
ATOM      8  H6  UNL     1      -9.201  33.042  -3.441  1.00  0.00     0.185 HD
HETATM    9  C13 UNL     1      -9.592  34.947  -4.100  1.00  0.00     0.137 A
HETATM   10  C14 UNL     1     -10.974  34.728  -4.407  1.00  0.00     0.118 C
HETATM   11  N7  UNL     1     -12.098  34.549  -4.673  1.00  0.00    -0.190 NA
ENDROOT
BRANCH   6  12
HETATM   12  N2  UNL     1      -6.788  33.234  -2.850  1.00  0.00    -0.217 N
ATOM     13  H2  UNL     1      -6.491  32.495  -3.487  1.00  0.00     0.178 HD
BRANCH  12  14
HETATM   14  C5  UNL     1      -6.376  33.152  -1.482  1.00  0.00     0.241 C
BRANCH  14  15
HETATM   15  C6  UNL     1      -7.505  33.186  -0.533  1.00  0.00     0.241 C
HETATM   16  O1  UNL     1      -8.288  32.216  -0.441  1.00  0.00    -0.271 OA
HETATM   17  N3  UNL     1      -7.689  34.334   0.273  1.00  0.00    -0.305 N
ATOM     18  H3  UNL     1      -8.216  35.146  -0.049  1.00  0.00     0.171 HD
BRANCH  17  19
HETATM   19  C7  UNL     1      -7.136  34.286   1.465  1.00  0.00     0.167 A
HETATM   20  N4  UNL     1      -7.429  33.445   2.463  1.00  0.00    -0.279 N
HETATM   21  N5  UNL     1      -6.789  33.544   3.552  1.00  0.00    -0.296 N
ATOM     22  H4  UNL     1      -8.153  32.736   2.349  1.00  0.00     0.189 HD
HETATM   23  C8  UNL     1      -5.847  34.466   3.698  1.00  0.00     0.070 A
ATOM     24  H5  UNL     1      -7.000  32.911   4.323  1.00  0.00     0.187 HD
HETATM   25  S1  UNL     1      -5.891  35.232   2.166  1.00  0.00    -0.038 SA
BRANCH  23  26
HETATM   26  C9  UNL     1      -4.977  34.752   4.892  1.00  0.00     0.070 C
BRANCH  26  27
HETATM   27  C10 UNL     1      -5.844  34.633   6.128  1.00  0.00    -0.017 C
HETATM   28  C11 UNL     1      -5.897  35.898   6.917  1.00  0.00     0.010 C
HETATM   29  C12 UNL     1      -5.341  33.454   6.922  1.00  0.00     0.010 C
ENDBRANCH  26  27
ENDBRANCH  23  26
ENDBRANCH  17  19
ENDBRANCH  14  15
ENDBRANCH  12  14
ENDBRANCH   6  12
TORSDOF 6
ENDMDL