MODEL 1
REMARK VINA RESULT: -6.434834047      0.000      0.000
REMARK  4 active torsions:
REMARK  status: ('A' for Active; 'I' for Inactive)
REMARK    1  A    between atoms: C3_3  and  C4_4
REMARK    2  A    between atoms: N1_5  and  N2_7
REMARK       I    between atoms: N2_7  and  C5_9
REMARK       I    between atoms: C5_9  and  N3_11
REMARK    3  A    between atoms: N3_11  and  S1_13
REMARK    4  A    between atoms: C9_21  and  C10_22
ROOT
HETATM    1  C4  UNL     1      -5.911  34.834   6.210  1.00  0.00     0.090 C
HETATM    2  N1  UNL     1      -6.625  35.044   5.163  1.00  0.00    -0.311 N
ATOM      3  H1  UNL     1      -7.331  35.780   5.185  1.00  0.00     0.185 HD
ENDROOT
BRANCH   1   4
HETATM    4  C3  UNL     1      -4.872  33.805   6.283  1.00  0.00     0.068 A
HETATM    5  C2  UNL     1      -5.071  32.733   7.293  1.00  0.00    -0.072 A
HETATM    6  C1  UNL     1      -5.936  31.738   7.371  1.00  0.00     0.015 C
HETATM    7  C13 UNL     1      -3.938  33.222   8.127  1.00  0.00     0.059 A
HETATM    8  C7  UNL     1      -3.682  34.277   7.086  1.00  0.00     0.109 A
HETATM    9  C9  UNL     1      -4.399  33.934   9.345  1.00  0.00     0.144 C
HETATM   10  C8  UNL     1      -3.947  35.534   7.828  1.00  0.00     0.265 C
HETATM   11  O4  UNL     1      -3.574  36.705   7.538  1.00  0.00    -0.265 OA
HETATM   12  O5  UNL     1      -4.706  35.246   8.953  1.00  0.00    -0.315 OA
BRANCH   9  13
HETATM   13  C10 UNL     1      -3.360  34.010  10.434  1.00  0.00     0.008 C
HETATM   14  C11 UNL     1      -3.624  35.090  11.444  1.00  0.00     0.012 C
HETATM   15  C12 UNL     1      -3.130  32.698  11.119  1.00  0.00     0.012 C
ENDBRANCH   9  13
ENDBRANCH   1   4
BRANCH   2  16
HETATM   16  N2  UNL     1      -6.464  34.299   4.003  1.00  0.00    -0.252 N
HETATM   17  C5  UNL     1      -6.008  34.844   2.781  1.00  0.00     0.348 C
HETATM   18  O1  UNL     1      -5.730  36.055   2.714  1.00  0.00    -0.245 OA
HETATM   19  N3  UNL     1      -5.874  34.018   1.650  1.00  0.00    -0.235 N
ATOM     20  H3  UNL     1      -6.103  33.025   1.702  1.00  0.00     0.183 HD
ATOM     21  H2  UNL     1      -6.687  33.304   4.035  1.00  0.00     0.191 HD
BRANCH  19  22
HETATM   22  S1  UNL     1      -5.314  34.714   0.171  1.00  0.00     0.230 S
HETATM   23  C6  UNL     1      -6.545  35.828  -0.426  1.00  0.00     0.186 C
HETATM   24  O2  UNL     1      -3.985  35.405   0.363  1.00  0.00    -0.206 OA
HETATM   25  O3  UNL     1      -5.134  33.620  -0.860  1.00  0.00    -0.206 OA
ENDBRANCH  19  22
ENDBRANCH   2  16
TORSDOF 4
ENDMDL