MODEL 4
REMARK VINA RESULT: -6.268888561      1.676      3.101
REMARK  5 active torsions:
REMARK  status: ('A' for Active; 'I' for Inactive)
REMARK    1  A    between atoms: C3_3  and  N1_4
REMARK    2  A    between atoms: N2_7  and  C6_8
REMARK    3  A    between atoms: C6_8  and  C7_9
REMARK    4  A    between atoms: C7_9  and  N3_11
REMARK    5  A    between atoms: N3_11  and  C9_13
ROOT
HETATM    1  C1  UNL     1      -4.134  31.498  10.667  1.00  0.00     0.013 C
HETATM    2  C2  UNL     1      -4.497  31.535   9.509  1.00  0.00    -0.087 C
HETATM    3  C3  UNL     1      -4.919  31.598   8.095  1.00  0.00     0.365 C
ENDROOT
BRANCH   3   4
HETATM    4  N1  UNL     1      -4.985  32.990   7.723  1.00  0.00     0.102 N
HETATM    5  C4  UNL     1      -5.846  33.116   6.568  1.00  0.00     0.303 C
HETATM    6  C5  UNL     1      -5.992  34.606   6.344  1.00  0.00     0.302 C
HETATM    7  N2  UNL     1      -4.733  35.103   5.862  1.00  0.00     0.093 N
HETATM    8  C16 UNL     1      -3.626  34.789   6.708  1.00  0.00     0.302 C
HETATM    9  C17 UNL     1      -3.699  33.561   7.515  1.00  0.00     0.303 C
BRANCH   7  10
HETATM   10  C6  UNL     1      -4.782  36.480   5.465  1.00  0.00     0.297 C
BRANCH  10  11
HETATM   11  C7  UNL     1      -5.615  36.784   4.263  1.00  0.00     0.107 C
HETATM   12  C8  UNL     1      -5.847  38.268   4.099  1.00  0.00     0.034 C
BRANCH  11  13
HETATM   13  N3  UNL     1      -5.065  36.144   3.098  1.00  0.00    -0.368 N
ATOM     14  H3  UNL     1      -4.064  35.953   3.129  1.00  0.00     0.161 HD
BRANCH  13  15
HETATM   15  C9  UNL     1      -5.662  35.785   2.038  1.00  0.00     0.134 A
HETATM   16  N4  UNL     1      -5.669  36.429   0.862  1.00  0.00    -0.331 N
HETATM   17  C10 UNL     1      -6.307  36.026  -0.246  1.00  0.00     0.079 A
ATOM     18  H4  UNL     1      -5.143  37.301   0.806  1.00  0.00     0.168 HD
HETATM   19  C11 UNL     1      -6.266  36.801  -1.518  1.00  0.00     0.089 C
HETATM   20  N5  UNL     1      -7.010  34.878  -0.205  1.00  0.00    -0.343 N
HETATM   21  C12 UNL     1      -7.057  34.158   0.949  1.00  0.00     0.089 A
ATOM     22  H5  UNL     1      -7.504  34.550  -1.034  1.00  0.00     0.167 HD
HETATM   23  C13 UNL     1      -7.701  32.971   1.229  1.00  0.00     0.051 A
HETATM   24  C15 UNL     1      -6.395  34.590   2.075  1.00  0.00     0.120 A
HETATM   25  C14 UNL     1      -8.530  32.148   0.317  1.00  0.00     0.072 C
HETATM   26  N6  UNL     1      -7.418  32.700   2.522  1.00  0.00    -0.302 N
HETATM   27  N7  UNL     1      -6.642  33.676   3.005  1.00  0.00    -0.295 N
ATOM     28  H6  UNL     1      -7.744  31.886   3.043  1.00  0.00     0.186 HD
ATOM     29  H7  UNL     1      -6.286  33.713   3.960  1.00  0.00     0.187 HD
ENDBRANCH  13  15
ENDBRANCH  11  13
ENDBRANCH  10  11
ENDBRANCH   7  10
ENDBRANCH   3   4
TORSDOF 5
ENDMDL