MODEL 3
REMARK VINA RESULT: -5.840887937      2.237      8.208
REMARK  4 active torsions:
REMARK  status: ('A' for Active; 'I' for Inactive)
REMARK    1  A    between atoms: N2_5  and  C4_6
REMARK    2  A    between atoms: C8_17  and  C9_18
REMARK    3  A    between atoms: C9_18  and  C10_19
REMARK    4  A    between atoms: C10_19  and  C11_20
ROOT
HETATM    1  C4  UNL     1      -5.365  35.511   4.781  1.00  0.00     0.682 A
HETATM    2  N3  UNL     1      -5.922  36.332   5.731  1.00  0.00    -0.195 N
ATOM      3  H3  UNL     1      -6.640  37.001   5.454  1.00  0.00     0.184 HD
HETATM    4  C5  UNL     1      -5.550  36.271   6.982  1.00  0.00     0.040 A
HETATM    5  C6  UNL     1      -4.557  35.351   7.383  1.00  0.00     0.042 A
HETATM    6  C7  UNL     1      -3.988  34.526   6.467  1.00  0.00     0.125 A
HETATM    7  N4  UNL     1      -3.087  33.645   6.707  1.00  0.00    -0.385 N
ATOM      8  H41 UNL     1      -2.659  33.025   6.018  1.00  0.00     0.157 HD
ATOM      9  H42 UNL     1      -2.759  33.556   7.669  1.00  0.00     0.157 HD
HETATM   10  N5  UNL     1      -4.430  34.647   5.172  1.00  0.00    -0.176 N
ATOM     11  H5  UNL     1      -4.017  34.037   4.466  1.00  0.00     0.186 HD
HETATM   12  C8  UNL     1      -4.257  35.420   8.824  1.00  0.00     0.261 C
HETATM   13  N6  UNL     1      -3.799  36.751   8.951  1.00  0.00     0.093 N
HETATM   14  C14 UNL     1      -3.010  37.174  10.028  1.00  0.00     0.310 C
HETATM   15  C15 UNL     1      -4.914  37.663   8.826  1.00  0.00     0.279 C
HETATM   16  C16 UNL     1      -6.097  37.104   8.089  1.00  0.00     0.088 C
ENDROOT
BRANCH   1  17
HETATM   17  N2  UNL     1      -5.794  35.606   3.435  1.00  0.00    -0.214 N
HETATM   18  C3  UNL     1      -6.023  36.819   2.721  1.00  0.00     0.171 C
HETATM   19  C2  UNL     1      -4.988  36.876   1.608  1.00  0.00     0.292 C
HETATM   20  N1  UNL     1      -5.025  35.646   0.869  1.00  0.00     0.087 N
HETATM   21  C1  UNL     1      -5.029  35.964  -0.540  1.00  0.00     0.310 C
HETATM   22  C18 UNL     1      -6.139  34.793   1.216  1.00  0.00     0.292 C
HETATM   23  C17 UNL     1      -6.039  34.375   2.664  1.00  0.00     0.171 C
ENDBRANCH   1  17
BRANCH  12  24
HETATM   24  C9  UNL     1      -3.562  34.284   9.313  1.00  0.00     0.041 C
BRANCH  24  25
HETATM   25  C10 UNL     1      -4.275  33.276  10.197  1.00  0.00     0.007 C
BRANCH  25  26
HETATM   26  C11 UNL     1      -4.026  31.850   9.744  1.00  0.00    -0.014 A
HETATM   27  C12 UNL     1      -4.987  31.240   8.786  1.00  0.00     0.005 A
HETATM   28  C13 UNL     1      -4.911  30.736  10.158  1.00  0.00     0.005 A
ENDBRANCH  25  26
ENDBRANCH  24  25
ENDBRANCH  12  24
TORSDOF 4
ENDMDL