MODEL 1
REMARK VINA RESULT: -6.710123190      0.000      0.000
REMARK  6 active torsions:
REMARK  status: ('A' for Active; 'I' for Inactive)
REMARK    1  A    between atoms: C4_5  and  N2_6
REMARK    2  A    between atoms: N2_6  and  C5_8
REMARK    3  A    between atoms: C7_12  and  C8_13
REMARK    4  A    between atoms: C8_13  and  C9_14
REMARK    5  A    between atoms: C11_17  and  N5_18
REMARK    6  A    between atoms: N5_18  and  C12_20
ROOT
HETATM    1  C9  UNL     1      -7.420  32.299   0.029  1.00  0.00     0.128 C
HETATM    2  C10 UNL     1      -8.691  32.009   0.710  1.00  0.00     0.059 C
HETATM    3  N4  UNL     1      -9.696  31.796   1.245  1.00  0.00    -0.197 NA
ENDROOT
BRANCH   1   4
HETATM    4  C8  UNL     1      -7.656  33.372  -1.011  1.00  0.00     0.058 C
BRANCH   4   5
HETATM    5  C7  UNL     1      -6.804  33.204  -2.197  1.00  0.00     0.003 A
HETATM    6  C6  UNL     1      -5.485  32.843  -2.029  1.00  0.00     0.117 A
HETATM    7  N3  UNL     1      -4.753  32.699  -3.141  1.00  0.00    -0.201 N
HETATM    8  C5  UNL     1      -5.247  32.890  -4.395  1.00  0.00     0.679 A
ATOM      9  H3  UNL     1      -3.773  32.432  -3.043  1.00  0.00     0.183 HD
HETATM   10  N6  UNL     1      -6.537  33.241  -4.521  1.00  0.00    -0.176 N
HETATM   11  C11 UNL     1      -7.350  33.409  -3.454  1.00  0.00     0.125 A
ATOM     12  H6  UNL     1      -6.918  33.386  -5.455  1.00  0.00     0.186 HD
BRANCH   8  13
HETATM   13  N2  UNL     1      -4.482  32.729  -5.371  1.00  0.00    -0.219 N
ATOM     14  H2  UNL     1      -3.659  33.330  -5.354  1.00  0.00     0.178 HD
BRANCH  13  15
HETATM   15  C4  UNL     1      -4.543  31.863  -6.502  1.00  0.00     0.127 C
HETATM   16  C3  UNL     1      -4.964  30.506  -6.000  1.00  0.00     0.049 C
HETATM   17  C2  UNL     1      -3.807  29.708  -5.455  1.00  0.00     0.151 C
HETATM   18  N1  UNL     1      -2.644  29.812  -6.272  1.00  0.00    -0.298 N
HETATM   19  C1  UNL     1      -2.564  28.882  -7.351  1.00  0.00     0.178 C
HETATM   20  O1  UNL     1      -2.272  31.053  -6.539  1.00  0.00    -0.281 OA
HETATM   21  C17 UNL     1      -3.202  31.835  -7.191  1.00  0.00     0.226 C
ENDBRANCH  13  15
ENDBRANCH   8  13
BRANCH  11  22
HETATM   22  N5  UNL     1      -8.581  33.741  -3.523  1.00  0.00    -0.371 N
ATOM     23  H5  UNL     1      -9.269  33.221  -2.980  1.00  0.00     0.161 HD
BRANCH  22  24
HETATM   24  C12 UNL     1      -9.011  34.816  -4.336  1.00  0.00     0.083 C
HETATM   25  C13 UNL     1     -10.510  35.059  -4.265  1.00  0.00     0.025 C
HETATM   26  C14 UNL     1     -10.630  36.387  -5.003  1.00  0.00     0.002 C
HETATM   27  C15 UNL     1      -9.293  37.078  -4.818  1.00  0.00     0.002 C
HETATM   28  C16 UNL     1      -8.504  36.170  -3.891  1.00  0.00     0.025 C
ENDBRANCH  22  24
ENDBRANCH  11  22
ENDBRANCH   4   5
ENDBRANCH   1   4
TORSDOF 6
ENDMDL