MODEL 4
REMARK VINA RESULT: -5.284472165      5.273     10.444
REMARK  4 active torsions:
REMARK  status: ('A' for Active; 'I' for Inactive)
REMARK    1  A    between atoms: O1_2  and  C2_3
REMARK    2  A    between atoms: C4_5  and  C5_6
REMARK    3  A    between atoms: C12_19  and  O4_20
REMARK    4  A    between atoms: C14_22  and  O5_23
ROOT
HETATM    1  C2  UNL     1      -5.636  35.791   6.994  1.00  0.00     0.105 A
HETATM    2  C3  UNL     1      -6.343  35.381   5.858  1.00  0.00     0.051 A
HETATM    3  C4  UNL     1      -6.297  34.043   5.474  1.00  0.00    -0.030 A
HETATM    4  C11 UNL     1      -5.554  33.147   6.225  1.00  0.00     0.051 A
HETATM    5  C12 UNL     1      -4.850  33.573   7.360  1.00  0.00     0.105 A
HETATM    6  C14 UNL     1      -4.898  34.900   7.737  1.00  0.00     0.135 A
ENDROOT
BRANCH   3   7
HETATM    7  C5  UNL     1      -7.012  33.569   4.308  1.00  0.00     0.034 C
HETATM    8  C6  UNL     1      -6.634  33.776   3.051  1.00  0.00     0.101 A
HETATM    9  C7  UNL     1      -5.434  34.514   2.679  1.00  0.00     0.263 A
HETATM   10  C10 UNL     1      -7.439  33.253   1.934  1.00  0.00     0.265 A
HETATM   11  O2  UNL     1      -4.695  34.990   3.589  1.00  0.00    -0.267 OA
HETATM   12  N1  UNL     1      -5.086  34.703   1.291  1.00  0.00    -0.299 N
HETATM   13  C8  UNL     1      -5.920  34.164   0.275  1.00  0.00     0.183 A
ATOM     14  H1  UNL     1      -4.244  35.222   1.040  1.00  0.00     0.171 HD
HETATM   15  S1  UNL     1      -5.508  34.388  -1.309  1.00  0.00    -0.040 SA
HETATM   16  N2  UNL     1      -7.098  33.438   0.590  1.00  0.00    -0.294 N
HETATM   17  C9  UNL     1      -7.904  32.916  -0.516  1.00  0.00     0.162 C
HETATM   18  O3  UNL     1      -8.492  32.604   2.209  1.00  0.00    -0.267 OA
ENDBRANCH   3   7
BRANCH   1  19
HETATM   19  O1  UNL     1      -5.662  37.115   7.399  1.00  0.00    -0.353 OA
HETATM   20  C1  UNL     1      -5.254  38.121   6.496  1.00  0.00     0.210 C
ENDBRANCH   1  19
BRANCH   5  21
HETATM   21  O4  UNL     1      -4.100  32.689   8.123  1.00  0.00    -0.353 OA
HETATM   22  C13 UNL     1      -4.709  31.503   8.553  1.00  0.00     0.210 C
ENDBRANCH   5  21
BRANCH   6  23
HETATM   23  O5  UNL     1      -4.222  35.353   8.843  1.00  0.00    -0.351 OA
HETATM   24  C15 UNL     1      -4.687  35.355  10.158  1.00  0.00     0.210 C
ENDBRANCH   6  23
TORSDOF 4
ENDMDL