MODEL 2
REMARK VINA RESULT: -5.685200105      1.512      2.102
REMARK  9 active torsions:
REMARK  status: ('A' for Active; 'I' for Inactive)
REMARK    1  A    between atoms: C2_2  and  C3_3
REMARK    2  A    between atoms: C3_3  and  C4_4
REMARK    3  A    between atoms: C4_4  and  C5_5
REMARK    4  A    between atoms: C5_5  and  C6_6
REMARK    5  A    between atoms: C7_7  and  C8_8
REMARK    6  A    between atoms: C9_9  and  C10_10
REMARK    7  A    between atoms: C10_10  and  O1_11
REMARK    8  A    between atoms: C15_20  and  C16_21
REMARK    9  A    between atoms: C16_21  and  O5_22
ROOT
HETATM    1  C10 UNL     1      -5.180  37.064   5.693  1.00  0.00     0.197 C
HETATM    2  C11 UNL     1      -4.058  37.771   6.378  1.00  0.00     0.241 C
HETATM    3  O2  UNL     1      -4.331  38.202   7.550  1.00  0.00    -0.285 OA
HETATM    4  C12 UNL     1      -2.752  37.965   5.780  1.00  0.00     0.201 C
HETATM    5  O3  UNL     1      -1.806  38.368   6.475  1.00  0.00    -0.289 OA
HETATM    6  C13 UNL     1      -2.578  37.674   4.342  1.00  0.00     0.119 C
HETATM    7  C14 UNL     1      -3.524  36.578   3.983  1.00  0.00     0.138 C
HETATM    8  O4  UNL     1      -3.582  36.267   2.649  1.00  0.00    -0.377 OA
HETATM    9  C15 UNL     1      -4.718  35.460   2.587  1.00  0.00     0.149 C
HETATM   10  C17 UNL     1      -5.760  36.176   3.411  1.00  0.00     0.023 C
HETATM   11  C18 UNL     1      -6.647  37.029   2.495  1.00  0.00     0.013 C
HETATM   12  C19 UNL     1      -4.939  37.124   4.225  1.00  0.00     0.076 C
ENDROOT
BRANCH   1  13
HETATM   13  C9  UNL     1      -5.306  35.686   6.167  1.00  0.00    -0.045 C
HETATM   14  C8  UNL     1      -5.392  34.537   6.570  1.00  0.00    -0.011 C
BRANCH  14  15
HETATM   15  C7  UNL     1      -5.470  33.209   7.050  1.00  0.00    -0.015 C
HETATM   16  C6  UNL     1      -5.523  32.081   7.475  1.00  0.00    -0.092 C
BRANCH  16  17
HETATM   17  C5  UNL     1      -5.582  30.701   8.021  1.00  0.00     0.095 C
BRANCH  17  18
HETATM   18  C4  UNL     1      -4.559  30.572   9.126  1.00  0.00     0.012 C
BRANCH  18  19
HETATM   19  C3  UNL     1      -4.925  31.289  10.380  1.00  0.00     0.000 C
BRANCH  19  20
HETATM   20  C2  UNL     1      -3.757  32.151  10.808  1.00  0.00    -0.005 C
HETATM   21  C1  UNL     1      -4.152  33.605  10.642  1.00  0.00     0.005 C
ENDBRANCH  19  20
ENDBRANCH  18  19
ENDBRANCH  17  18
ENDBRANCH  16  17
ENDBRANCH  14  15
ENDBRANCH   1  13
BRANCH   1  22
HETATM   22  O1  UNL     1      -6.360  37.751   6.011  1.00  0.00    -0.370 OA
ATOM     23  H1  UNL     1      -6.158  38.406   6.669  1.00  0.00     0.212 HD
ENDBRANCH   1  22
BRANCH   9  24
HETATM   24  C16 UNL     1      -5.164  35.232   1.161  1.00  0.00     0.196 C
BRANCH  24  25
HETATM   25  O5  UNL     1      -5.783  33.965   1.144  1.00  0.00    -0.398 OA
ATOM     26  H5  UNL     1      -6.488  34.008   1.779  1.00  0.00     0.209 HD
ENDBRANCH  24  25
ENDBRANCH   9  24
TORSDOF 9
ENDMDL