MODEL 1
REMARK VINA RESULT: -6.662952542      0.000      0.000
REMARK  4 active torsions:
REMARK  status: ('A' for Active; 'I' for Inactive)
REMARK    1  A    between atoms: C3_4  and  C4_5
REMARK    2  A    between atoms: N2_11  and  C10_12
REMARK    3  A    between atoms: C10_12  and  C11_13
REMARK    4  A    between atoms: C11_13  and  N3_14
ROOT
HETATM    1  C4  UNL     1      -4.823  32.660   8.710  1.00  0.00     0.012 C
HETATM    2  C5  UNL     1      -5.544  31.802   7.696  1.00  0.00     0.011 C
HETATM    3  C6  UNL     1      -5.801  32.768   6.566  1.00  0.00     0.033 C
HETATM    4  C7  UNL     1      -4.897  33.962   6.773  1.00  0.00     0.049 C
HETATM    5  C8  UNL     1      -3.927  33.504   7.817  1.00  0.00     0.041 C
HETATM    6  C9  UNL     1      -4.232  34.311   5.461  1.00  0.00     0.156 C
HETATM    7  N2  UNL     1      -5.281  35.142   4.878  1.00  0.00    -0.352 N
HETATM    8  C16 UNL     1      -5.837  35.839   5.984  1.00  0.00     0.187 C
HETATM    9  N4  UNL     1      -6.515  37.072   5.861  1.00  0.00    -0.064 NA
HETATM   10  N5  UNL     1      -5.614  35.155   7.083  1.00  0.00    -0.354 N
ATOM     11  H5  UNL     1      -5.910  35.436   8.018  1.00  0.00     0.163 HD
ENDROOT
BRANCH   1  12
HETATM   12  C3  UNL     1      -4.047  31.858   9.671  1.00  0.00    -0.001 C
HETATM   13  C2  UNL     1      -3.643  32.405  10.790  1.00  0.00     0.017 C
HETATM   14  C1  UNL     1      -3.963  33.813  11.083  1.00  0.00     0.064 C
HETATM   15  N1  UNL     1      -2.898  31.650  11.723  1.00  0.00    -0.108 NA
ENDBRANCH   1  12
BRANCH   7  16
HETATM   16  C10 UNL     1      -5.604  35.179   3.484  1.00  0.00     0.145 C
BRANCH  16  17
HETATM   17  C11 UNL     1      -6.369  33.928   3.081  1.00  0.00     0.141 C
BRANCH  17  18
HETATM   18  N3  UNL     1      -7.023  34.159   1.844  1.00  0.00    -0.390 N
HETATM   19  C12 UNL     1      -6.211  34.436   0.730  1.00  0.00     0.068 C
HETATM   20  C13 UNL     1      -6.946  34.467  -0.591  1.00  0.00     0.118 C
HETATM   21  S1  UNL     1      -7.533  32.766  -0.896  1.00  0.00    -0.162 SA
HETATM   22  C14 UNL     1      -7.893  32.108   0.783  1.00  0.00     0.094 C
HETATM   23  C15 UNL     1      -8.180  33.340   1.617  1.00  0.00     0.132 C
ENDBRANCH  17  18
ENDBRANCH  16  17
ENDBRANCH   7  16
TORSDOF 4
ENDMDL