MODEL 3
REMARK VINA RESULT: -5.389927146      2.085      2.469
REMARK  4 active torsions:
REMARK  status: ('A' for Active; 'I' for Inactive)
REMARK    1  A    between atoms: S1_3  and  N2_6
REMARK    2  A    between atoms: N2_6  and  C2_8
REMARK    3  A    between atoms: C5_11  and  S2_12
REMARK    4  A    between atoms: S2_12  and  N3_13
ROOT
HETATM    1  N1  UNL     1     -12.110  34.210  -4.364  1.00  0.00    -0.177 NA
HETATM    2  C1  UNL     1     -11.159  34.824  -4.638  1.00  0.00     0.215 C
HETATM    3  S1  UNL     1      -9.747  35.738  -5.030  1.00  0.00     0.328 S
HETATM    4  O1  UNL     1      -9.698  35.972  -6.523  1.00  0.00    -0.190 OA
HETATM    5  O2  UNL     1      -9.684  37.041  -4.296  1.00  0.00    -0.190 OA
ENDROOT
BRANCH   3   6
HETATM    6  N2  UNL     1      -8.388  34.792  -4.567  1.00  0.00    -0.273 N
ATOM      7  H2  UNL     1      -7.850  34.336  -5.304  1.00  0.00     0.179 HD
BRANCH   6   8
HETATM    8  C2  UNL     1      -7.969  34.606  -3.228  1.00  0.00     0.043 A
HETATM    9  C3  UNL     1      -7.242  35.624  -2.635  1.00  0.00     0.031 A
HETATM   10  C4  UNL     1      -6.829  35.453  -1.337  1.00  0.00     0.027 A
HETATM   11  C5  UNL     1      -7.126  34.303  -0.638  1.00  0.00     0.079 A
HETATM   12  C6  UNL     1      -7.841  33.308  -1.230  1.00  0.00     0.027 A
HETATM   13  C7  UNL     1      -8.269  33.458  -2.539  1.00  0.00     0.031 A
BRANCH  11  14
HETATM   14  S2  UNL     1      -6.546  34.193   1.017  1.00  0.00     0.256 S
HETATM   15  O3  UNL     1      -7.158  33.014   1.684  1.00  0.00    -0.201 OA
HETATM   16  O4  UNL     1      -5.047  34.131   0.970  1.00  0.00    -0.201 OA
BRANCH  14  17
HETATM   17  N3  UNL     1      -7.095  35.628   1.828  1.00  0.00    -0.324 N
ATOM     18  H32 UNL     1      -8.011  35.761   2.256  1.00  0.00     0.169 HD
ATOM     19  H31 UNL     1      -6.325  36.296   1.789  1.00  0.00     0.169 HD
ENDBRANCH  14  17
ENDBRANCH  11  14
ENDBRANCH   6   8
ENDBRANCH   3   6
TORSDOF 4
ENDMDL