MODEL 2
REMARK VINA RESULT: -6.815277247      1.252      2.272
REMARK  3 active torsions:
REMARK  status: ('A' for Active; 'I' for Inactive)
REMARK    1  A    between atoms: C3_7  and  C4_8
REMARK    2  A    between atoms: C4_8  and  C5_9
REMARK    3  A    between atoms: C9_13  and  N2_14
ROOT
HETATM    1  O1  UNL     1      -8.150  32.601   3.065  1.00  0.00    -0.262 OA
HETATM    2  C1  UNL     1      -7.847  32.710   1.841  1.00  0.00     0.316 A
HETATM    3  N1  UNL     1      -6.859  33.606   1.391  1.00  0.00    -0.284 N
ATOM      4  H1  UNL     1      -6.370  34.187   2.072  1.00  0.00     0.172 HD
HETATM    5  C2  UNL     1      -6.517  33.726  -0.011  1.00  0.00     0.275 A
HETATM    6  O2  UNL     1      -5.620  34.550  -0.295  1.00  0.00    -0.266 OA
HETATM    7  C3  UNL     1      -7.178  32.930  -1.023  1.00  0.00     0.104 A
HETATM    8  N3  UNL     1      -8.180  32.026  -0.522  1.00  0.00    -0.314 N
ATOM      9  H3  UNL     1      -8.675  31.440  -1.195  1.00  0.00     0.169 HD
HETATM   10  C11 UNL     1      -8.522  31.899   0.844  1.00  0.00     0.314 A
HETATM   11  O5  UNL     1      -9.406  31.094   1.222  1.00  0.00    -0.262 OA
ENDROOT
BRANCH   7  12
HETATM   12  C4  UNL     1      -6.942  33.014  -2.309  1.00  0.00     0.046 C
BRANCH  12  13
HETATM   13  C5  UNL     1      -7.320  34.025  -3.258  1.00  0.00    -0.032 A
HETATM   14  C6  UNL     1      -6.467  34.796  -4.003  1.00  0.00     0.011 A
HETATM   15  C7  UNL     1      -6.936  35.728  -4.898  1.00  0.00     0.003 A
HETATM   16  C8  UNL     1      -8.293  35.905  -5.066  1.00  0.00     0.036 A
HETATM   17  C9  UNL     1      -9.173  35.150  -4.339  1.00  0.00     0.103 A
HETATM   18  C10 UNL     1      -8.687  34.230  -3.453  1.00  0.00     0.047 A
BRANCH  17  19
HETATM   19  N2  UNL     1     -10.594  35.289  -4.468  1.00  0.00    -0.116 N
HETATM   20  O3  UNL     1     -11.118  36.395  -4.699  1.00  0.00    -0.532 OA
HETATM   21  O4  UNL     1     -11.440  34.217  -4.344  1.00  0.00    -0.532 OA
ENDBRANCH  17  19
ENDBRANCH  12  13
ENDBRANCH   7  12
TORSDOF 3
ENDMDL