MODEL 2
REMARK VINA RESULT: -5.304586711      0.905      1.450
REMARK  3 active torsions:
REMARK  status: ('A' for Active; 'I' for Inactive)
REMARK    1  A    between atoms: N3_12  and  C6_13
REMARK    2  A    between atoms: C6_13  and  C7_14
REMARK    3  A    between atoms: C7_14  and  N4_15
ROOT
HETATM    1  O1  UNL     1      -8.975  34.985  -6.959  1.00  0.00    -0.271 OA
HETATM    2  C1  UNL     1      -9.252  36.021  -6.299  1.00  0.00     0.255 C
HETATM    3  N1  UNL     1      -9.488  37.341  -6.777  1.00  0.00    -0.336 N
ATOM      4  H1  UNL     1      -9.336  37.650  -7.738  1.00  0.00     0.164 HD
HETATM    5  C2  UNL     1      -9.973  38.181  -5.705  1.00  0.00     0.358 C
HETATM    6  N2  UNL     1     -10.396  37.202  -4.725  1.00  0.00    -0.042 N
ATOM      7  H21 UNL     1     -11.358  36.886  -4.847  1.00  0.00     0.280 HD
ATOM      8  H22 UNL     1     -10.516  37.584  -3.786  1.00  0.00     0.280 HD
HETATM    9  C3  UNL     1      -9.405  36.127  -4.804  1.00  0.00     0.210 C
HETATM   10  C4  UNL     1     -10.012  34.894  -4.264  1.00  0.00     0.079 C
HETATM   11  C5  UNL     1      -9.068  33.913  -3.665  1.00  0.00     0.275 C
HETATM   12  N3  UNL     1      -7.976  34.461  -2.944  1.00  0.00     0.090 N
HETATM   13  C12 UNL     1      -7.318  35.572  -3.506  1.00  0.00     0.275 C
HETATM   14  C13 UNL     1      -8.145  36.580  -4.190  1.00  0.00     0.079 C
ENDROOT
BRANCH  12  15
HETATM   15  C6  UNL     1      -7.076  33.394  -2.586  1.00  0.00     0.302 C
BRANCH  15  16
HETATM   16  C7  UNL     1      -6.743  33.297  -1.154  1.00  0.00     0.302 C
BRANCH  16  17
HETATM   17  N4  UNL     1      -7.868  33.475  -0.264  1.00  0.00     0.094 N
HETATM   18  C8  UNL     1      -8.463  32.207   0.092  1.00  0.00     0.298 C
HETATM   19  C9  UNL     1      -7.883  31.609   1.339  1.00  0.00     0.198 C
HETATM   20  O2  UNL     1      -7.626  32.481   2.358  1.00  0.00    -0.388 OA
HETATM   21  C10 UNL     1      -6.796  33.524   1.920  1.00  0.00     0.198 C
HETATM   22  C11 UNL     1      -7.598  34.285   0.896  1.00  0.00     0.298 C
ENDBRANCH  16  17
ENDBRANCH  15  16
ENDBRANCH  12  15
TORSDOF 3
ENDMDL