MODEL 4
REMARK VINA RESULT: -5.911114718      4.196      6.854
REMARK  5 active torsions:
REMARK  status: ('A' for Active; 'I' for Inactive)
REMARK    1  A    between atoms: C1_2  and  C2_4
REMARK    2  A    between atoms: C4_8  and  N3_9
REMARK    3  A    between atoms: N3_9  and  N4_11
REMARK    4  A    between atoms: C5_13  and  C6_14
REMARK    5  A    between atoms: N5_18  and  O2_19
ROOT
HETATM    1  N3  UNL     1      -7.731  32.801   3.310  1.00  0.00    -0.132 N
ATOM      2  H3  UNL     1      -8.331  32.088   3.724  1.00  0.00     0.205 HD
ENDROOT
BRANCH   1   3
HETATM    3  C4  UNL     1      -7.658  32.915   2.015  1.00  0.00     0.696 A
HETATM    4  N2  UNL     1      -7.841  31.846   1.209  1.00  0.00    -0.199 N
HETATM    5  C3  UNL     1      -7.769  31.946  -0.126  1.00  0.00     0.124 A
ATOM      6  H2  UNL     1      -8.038  30.937   1.628  1.00  0.00     0.183 HD
HETATM    7  C2  UNL     1      -7.501  33.168  -0.691  1.00  0.00     0.061 A
HETATM    8  C11 UNL     1      -7.311  34.270   0.095  1.00  0.00     0.124 A
HETATM    9  N6  UNL     1      -7.396  34.105   1.448  1.00  0.00    -0.199 N
ATOM     10  H6  UNL     1      -7.255  34.916   2.051  1.00  0.00     0.183 HD
BRANCH   7  11
HETATM   11  C1  UNL     1      -7.422  33.283  -2.133  1.00  0.00     0.267 C
HETATM   12  N1  UNL     1      -6.196  33.019  -2.784  1.00  0.00    -0.057 NA
HETATM   13  O1  UNL     1      -8.422  33.614  -2.812  1.00  0.00    -0.271 OA
ENDBRANCH   7  11
ENDBRANCH   1   3
BRANCH   1  14
HETATM   14  N4  UNL     1      -6.993  33.649   4.130  1.00  0.00    -0.297 N
HETATM   15  C5  UNL     1      -6.614  33.230   5.284  1.00  0.00     0.120 C
ATOM     16  H4  UNL     1      -6.756  34.591   3.819  1.00  0.00     0.186 HD
BRANCH  15  17
HETATM   17  C6  UNL     1      -5.842  34.133   6.129  1.00  0.00    -0.001 A
HETATM   18  C7  UNL     1      -6.220  35.471   6.235  1.00  0.00     0.016 A
HETATM   19  C8  UNL     1      -5.469  36.287   7.040  1.00  0.00     0.021 A
HETATM   20  C9  UNL     1      -4.387  35.760   7.702  1.00  0.00     0.122 A
HETATM   21  N5  UNL     1      -4.042  34.470   7.584  1.00  0.00    -0.246 N
HETATM   22  C10 UNL     1      -4.748  33.645   6.811  1.00  0.00     0.135 A
BRANCH  21  23
HETATM   23  O2  UNL     1      -2.945  33.945   8.257  1.00  0.00    -0.284 OA
ATOM     24  H2  UNL     1      -2.619  33.071   8.074  1.00  0.00     0.245 HD
ENDBRANCH  21  23
ENDBRANCH  15  17
ENDBRANCH   1  14
TORSDOF 5
ENDMDL