MODEL 5
REMARK VINA RESULT: -5.681936005      3.393      4.562
REMARK  4 active torsions:
REMARK  status: ('A' for Active; 'I' for Inactive)
REMARK    1  A    between atoms: C1_2  and  C2_3
REMARK    2  A    between atoms: C5_6  and  N1_7
REMARK    3  A    between atoms: N1_7  and  S1_9
REMARK    4  A    between atoms: S1_9  and  C6_11
ROOT
HETATM    1  N1  UNL     1      -5.168  34.206  -1.968  1.00  0.00    -0.286 N
ATOM      2  H1  UNL     1      -5.316  35.128  -2.380  1.00  0.00     0.178 HD
ENDROOT
BRANCH   1   3
HETATM    3  C5  UNL     1      -6.058  33.697  -1.159  1.00  0.00     0.127 A
HETATM    4  C4  UNL     1      -7.167  33.036  -1.642  1.00  0.00     0.053 A
HETATM    5  C3  UNL     1      -8.122  32.489  -0.779  1.00  0.00     0.038 A
HETATM    6  C2  UNL     1      -7.933  32.624   0.578  1.00  0.00     0.085 A
HETATM    7  N4  UNL     1      -6.830  33.281   1.008  1.00  0.00    -0.296 N
HETATM    8  N3  UNL     1      -5.937  33.792   0.176  1.00  0.00    -0.285 N
ATOM      9  H4  UNL     1      -6.682  33.385   2.011  1.00  0.00     0.187 HD
ATOM     10  H3  UNL     1      -5.126  34.276   0.562  1.00  0.00     0.188 HD
BRANCH   6  11
HETATM   11  C1  UNL     1      -8.876  32.086   1.560  1.00  0.00     0.289 C
HETATM   12  O1  UNL     1      -9.600  31.113   1.177  1.00  0.00    -0.300 OA
ENDBRANCH   6  11
ENDBRANCH   1   3
BRANCH   1  13
HETATM   13  S1  UNL     1      -3.723  33.297  -2.340  1.00  0.00     0.153 S
HETATM   14  O2  UNL     1      -3.304  32.576  -1.059  1.00  0.00    -0.230 OA
BRANCH  13  15
HETATM   15  C6  UNL     1      -4.025  32.178  -3.664  1.00  0.00     0.068 A
HETATM   16  C7  UNL     1      -5.057  32.378  -4.580  1.00  0.00     0.029 A
HETATM   17  C8  UNL     1      -5.297  31.504  -5.620  1.00  0.00     0.076 A
HETATM   18  C9  UNL     1      -4.492  30.387  -5.767  1.00  0.00     0.245 A
HETATM   19  O3  UNL     1      -4.705  29.585  -6.711  1.00  0.00    -0.268 OA
HETATM   20  N2  UNL     1      -3.500  30.199  -4.881  1.00  0.00    -0.332 N
HETATM   21  C10 UNL     1      -3.251  31.045  -3.857  1.00  0.00     0.114 A
ATOM     22  H2  UNL     1      -2.905  29.377  -4.986  1.00  0.00     0.168 HD
ENDBRANCH  13  15
ENDBRANCH   1  13
TORSDOF 4
ENDMDL