MODEL 4
REMARK VINA RESULT: -5.502357799      5.841      9.210
REMARK  7 active torsions:
REMARK  status: ('A' for Active; 'I' for Inactive)
REMARK    1  A    between atoms: C2_2  and  C3_3
REMARK    2  A    between atoms: C3_3  and  C4_4
REMARK    3  A    between atoms: C4_4  and  C5_5
REMARK    4  A    between atoms: C5_5  and  C6_6
REMARK    5  A    between atoms: C8_11  and  C9_12
REMARK    6  A    between atoms: C12_17  and  O2_18
REMARK    7  A    between atoms: C14_20  and  O3_21
ROOT
HETATM    1  C9  UNL     1      -5.402  34.642   5.630  1.00  0.00     0.143 C
HETATM    2  C10 UNL     1      -4.152  34.118   6.139  1.00  0.00     0.112 C
HETATM    3  N2  UNL     1      -3.125  33.745   6.582  1.00  0.00    -0.191 NA
HETATM    4  C11 UNL     1      -5.958  35.697   6.502  1.00  0.00     0.112 C
HETATM    5  N3  UNL     1      -6.363  36.530   7.224  1.00  0.00    -0.191 NA
ENDROOT
BRANCH   1   6
HETATM    6  C8  UNL     1      -5.986  34.260   4.546  1.00  0.00     0.099 A
HETATM    7  C7  UNL     1      -6.893  33.204   4.628  1.00  0.00     0.261 A
HETATM    8  N1  UNL     1      -7.606  32.772   3.545  1.00  0.00    -0.320 N
HETATM    9  O1  UNL     1      -7.086  32.612   5.700  1.00  0.00    -0.267 OA
HETATM   10  C6  UNL     1      -7.507  33.308   2.328  1.00  0.00     0.071 A
ATOM     11  H1  UNL     1      -8.252  31.994   3.676  1.00  0.00     0.169 HD
HETATM   12  C14 UNL     1      -6.593  34.374   2.231  1.00  0.00     0.127 A
HETATM   13  C12 UNL     1      -5.855  34.823   3.329  1.00  0.00     0.121 A
BRANCH  10  14
HETATM   14  C5  UNL     1      -8.158  32.948   1.251  1.00  0.00     0.032 C
BRANCH  14  15
HETATM   15  C4  UNL     1      -7.862  32.081   0.169  1.00  0.00     0.002 C
BRANCH  15  16
HETATM   16  C3  UNL     1      -7.408  32.242  -1.016  1.00  0.00    -0.001 C
BRANCH  16  17
HETATM   17  C2  UNL     1      -7.860  33.438  -1.790  1.00  0.00    -0.010 C
HETATM   18  C1  UNL     1      -8.238  33.358  -3.049  1.00  0.00     0.011 C
ENDBRANCH  16  17
ENDBRANCH  15  16
ENDBRANCH  14  15
ENDBRANCH  10  14
BRANCH  12  19
HETATM   19  O3  UNL     1      -6.416  35.005   1.017  1.00  0.00    -0.356 OA
ATOM     20  H3  UNL     1      -7.103  35.570   0.681  1.00  0.00     0.218 HD
ENDBRANCH  12  19
BRANCH  13  21
HETATM   21  O2  UNL     1      -4.953  35.877   3.109  1.00  0.00    -0.352 OA
HETATM   22  C13 UNL     1      -3.600  35.538   2.731  1.00  0.00     0.210 C
ENDBRANCH  13  21
ENDBRANCH   1   6
TORSDOF 7
ENDMDL