MODEL 1
REMARK VINA RESULT: -6.205291564      0.000      0.000
REMARK  4 active torsions:
REMARK  status: ('A' for Active; 'I' for Inactive)
REMARK    1  A    between atoms: N1_1  and  S1_4
REMARK    2  A    between atoms: S1_4  and  C1_7
REMARK    3  A    between atoms: C4_10  and  C5_11
REMARK    4  A    between atoms: C5_11  and  N2_12
ROOT
HETATM    1  C1  UNL     1      -7.883  33.145  -0.031  1.00  0.00     0.079 A
HETATM    2  C2  UNL     1      -8.198  32.651  -1.279  1.00  0.00     0.026 A
HETATM    3  C3  UNL     1      -7.921  33.374  -2.446  1.00  0.00     0.010 A
HETATM    4  C4  UNL     1      -7.322  34.606  -2.356  1.00  0.00    -0.040 A
HETATM    5  C10 UNL     1      -7.002  35.115  -1.116  1.00  0.00     0.010 A
HETATM    6  C11 UNL     1      -7.276  34.398   0.051  1.00  0.00     0.026 A
ENDROOT
BRANCH   4   7
HETATM    7  C5  UNL     1      -7.014  35.389  -3.566  1.00  0.00     0.171 C
BRANCH   7   8
HETATM    8  N2  UNL     1      -8.074  36.286  -3.976  1.00  0.00    -0.305 N
HETATM    9  C6  UNL     1      -9.245  35.777  -4.461  1.00  0.00     0.101 A
HETATM   10  C7  UNL     1     -10.286  36.587  -4.861  1.00  0.00     0.092 A
HETATM   11  C8  UNL     1     -10.158  37.945  -4.775  1.00  0.00     0.250 A
HETATM   12  O3  UNL     1     -11.082  38.743  -5.129  1.00  0.00    -0.268 OA
HETATM   13  N3  UNL     1      -9.005  38.436  -4.298  1.00  0.00    -0.275 N
HETATM   14  C9  UNL     1      -7.996  37.619  -3.911  1.00  0.00     0.329 A
ATOM     15  H3  UNL     1      -8.884  39.446  -4.224  1.00  0.00     0.173 HD
HETATM   16  O4  UNL     1      -6.932  38.125  -3.469  1.00  0.00    -0.246 OA
ENDBRANCH   7   8
ENDBRANCH   4   7
BRANCH   1  17
HETATM   17  S1  UNL     1      -8.251  32.202   1.395  1.00  0.00     0.256 S
HETATM   18  O1  UNL     1      -9.709  31.782   1.402  1.00  0.00    -0.201 OA
HETATM   19  O2  UNL     1      -7.453  30.919   1.409  1.00  0.00    -0.201 OA
BRANCH  17  20
HETATM   20  N1  UNL     1      -7.874  33.055   2.840  1.00  0.00    -0.324 N
ATOM     21  H12 UNL     1      -8.544  33.620   3.363  1.00  0.00     0.169 HD
ATOM     22  H11 UNL     1      -6.895  32.911   3.088  1.00  0.00     0.169 HD
ENDBRANCH  17  20
ENDBRANCH   1  17
TORSDOF 4
ENDMDL