MODEL 3
REMARK VINA RESULT: -6.113768750      4.817      6.751
REMARK  3 active torsions:
REMARK  status: ('A' for Active; 'I' for Inactive)
REMARK    1  A    between atoms: C2_2  and  C3_3
REMARK    2  A    between atoms: C6_6  and  C7_7
REMARK    3  A    between atoms: C7_7  and  N1_8
ROOT
HETATM    1  N1  UNL     1      -6.558  34.224  -0.666  1.00  0.00    -0.247 N
HETATM    2  C8  UNL     1      -6.968  34.753   0.495  1.00  0.00     0.333 C
HETATM    3  O1  UNL     1      -6.502  35.880   0.786  1.00  0.00    -0.246 OA
HETATM    4  N2  UNL     1      -7.821  34.267   1.432  1.00  0.00    -0.271 N
ATOM      5  H2  UNL     1      -8.136  34.923   2.147  1.00  0.00     0.174 HD
HETATM    6  C9  UNL     1      -8.290  33.025   1.515  1.00  0.00     0.317 C
HETATM    7  O2  UNL     1      -8.945  32.734   2.548  1.00  0.00    -0.262 OA
HETATM    8  C10 UNL     1      -8.148  31.998   0.601  1.00  0.00     0.317 C
HETATM    9  O3  UNL     1      -8.899  31.006   0.868  1.00  0.00    -0.262 OA
HETATM   10  N3  UNL     1      -7.359  31.919  -0.476  1.00  0.00    -0.271 N
ATOM     11  H3  UNL     1      -7.351  31.034  -0.983  1.00  0.00     0.174 HD
HETATM   12  C11 UNL     1      -6.570  32.912  -0.953  1.00  0.00     0.333 C
HETATM   13  O4  UNL     1      -5.723  32.521  -1.793  1.00  0.00    -0.246 OA
ENDROOT
BRANCH   1  14
HETATM   14  C7  UNL     1      -6.077  35.107  -1.661  1.00  0.00     0.177 C
BRANCH  14  15
HETATM   15  C6  UNL     1      -7.105  35.625  -2.599  1.00  0.00    -0.040 A
HETATM   16  C5  UNL     1      -7.096  36.952  -2.953  1.00  0.00     0.009 A
HETATM   17  C4  UNL     1      -8.038  37.493  -3.831  1.00  0.00     0.012 A
HETATM   18  C3  UNL     1      -9.026  36.709  -4.384  1.00  0.00    -0.037 A
HETATM   19  C13 UNL     1      -9.026  35.360  -4.018  1.00  0.00     0.012 A
HETATM   20  C12 UNL     1      -8.089  34.842  -3.149  1.00  0.00     0.009 A
BRANCH  18  21
HETATM   21  C2  UNL     1     -10.036  37.212  -5.306  1.00  0.00     0.001 C
HETATM   22  C1  UNL     1     -10.684  38.324  -5.119  1.00  0.00     0.012 C
ENDBRANCH  18  21
ENDBRANCH  14  15
ENDBRANCH   1  14
TORSDOF 3
ENDMDL