MODEL 1
REMARK VINA RESULT: -5.261990301      0.000      0.000
REMARK  6 active torsions:
REMARK  status: ('A' for Active; 'I' for Inactive)
REMARK    1  A    between atoms: N1_1  and  N2_4
REMARK    2  A    between atoms: N2_4  and  S1_6
REMARK    3  A    between atoms: S1_6  and  C1_8
REMARK    4  A    between atoms: S1_6  and  N4_16
REMARK    5  A    between atoms: C1_8  and  C2_9
REMARK    6  A    between atoms: N4_16  and  C7_18
ROOT
HETATM    1  S1  UNL     1      -6.494  34.543  -2.590  1.00  0.00     0.130 S
HETATM    2  O1  UNL     1      -7.152  35.838  -2.205  1.00  0.00    -0.227 OA
ENDROOT
BRANCH   1   3
HETATM    3  N2  UNL     1      -5.178  34.986  -3.359  1.00  0.00    -0.250 N
ATOM      4  H2  UNL     1      -4.566  35.729  -3.020  1.00  0.00     0.197 HD
BRANCH   3   5
HETATM    5  N1  UNL     1      -4.922  34.281  -4.537  1.00  0.00    -0.337 N
ATOM      6  H12 UNL     1      -4.711  33.283  -4.528  1.00  0.00     0.177 HD
ATOM      7  H11 UNL     1      -4.963  34.840  -5.388  1.00  0.00     0.177 HD
ENDBRANCH   3   5
ENDBRANCH   1   3
BRANCH   1   8
HETATM    8  C1  UNL     1      -7.529  33.733  -3.779  1.00  0.00     0.198 C
BRANCH   8   9
HETATM    9  C2  UNL     1      -8.589  34.700  -4.215  1.00  0.00     0.023 A
HETATM   10  C3  UNL     1      -9.888  34.364  -4.005  1.00  0.00     0.026 A
HETATM   11  C4  UNL     1     -10.872  35.227  -4.392  1.00  0.00     0.003 A
HETATM   12  C5  UNL     1     -10.509  36.425  -4.993  1.00  0.00     0.017 A
HETATM   13  C6  UNL     1      -9.186  36.719  -5.184  1.00  0.00     0.088 A
HETATM   14  N3  UNL     1      -8.231  35.857  -4.795  1.00  0.00    -0.368 N
ATOM     15  H3  UNL     1      -7.246  36.079  -4.940  1.00  0.00     0.165 HD
ENDBRANCH   8   9
ENDBRANCH   1   8
BRANCH   1  16
HETATM   16  N4  UNL     1      -6.215  33.520  -1.284  1.00  0.00    -0.284 N
ATOM     17  H4  UNL     1      -5.273  33.130  -1.231  1.00  0.00     0.178 HD
BRANCH  16  18
HETATM   18  C7  UNL     1      -7.001  33.160  -0.352  1.00  0.00     0.129 A
HETATM   19  C8  UNL     1      -7.437  34.101   0.574  1.00  0.00     0.137 A
HETATM   20  N5  UNL     1      -8.269  33.772   1.576  1.00  0.00    -0.371 N
HETATM   21  C9  UNL     1      -8.714  32.512   1.723  1.00  0.00     0.104 A
ATOM     22  H5  UNL     1      -8.567  34.489   2.237  1.00  0.00     0.164 HD
HETATM   23  C10 UNL     1      -8.291  31.569   0.814  1.00  0.00     0.106 A
HETATM   24  N6  UNL     1      -7.445  31.904  -0.206  1.00  0.00    -0.349 N
ATOM     25  H6  UNL     1      -7.147  31.187  -0.866  1.00  0.00     0.167 HD
ENDBRANCH  16  18
ENDBRANCH   1  16
TORSDOF 6
ENDMDL