MODEL 3
REMARK VINA RESULT: -7.556454612      1.338      3.249
REMARK  2 active torsions:
REMARK  status: ('A' for Active; 'I' for Inactive)
REMARK    1  A    between atoms: C2_2  and  C3_3
REMARK    2  A    between atoms: C13_14  and  C15_17
ROOT
HETATM    1  C1  UNL     1      10.460  -1.198  32.890  1.00  0.00     0.049 C
HETATM    2  C2  UNL     1       9.192  -1.672  33.439  1.00  0.00    -0.041 C
HETATM    3  C13 UNL     1       8.937  -2.982  33.292  1.00  0.00     0.079 C
HETATM    4  C14 UNL     1       7.619  -3.393  33.884  1.00  0.00     0.099 C
HETATM    5  N1  UNL     1       6.604  -3.748  34.332  1.00  0.00    -0.192 NA
ENDROOT
BRANCH   3   6
HETATM    6  C15 UNL     1       9.666  -4.062  32.677  1.00  0.00     0.261 C
HETATM    7  C16 UNL     1      11.039  -4.286  32.861  1.00  0.00     0.106 C
HETATM    8  N2  UNL     1      12.183  -4.507  32.978  1.00  0.00    -0.194 NA
HETATM    9  C17 UNL     1       9.350  -3.980  31.188  1.00  0.00     0.106 C
HETATM   10  N3  UNL     1       9.121  -3.900  30.065  1.00  0.00    -0.194 NA
HETATM   11  C18 UNL     1       8.987  -5.376  33.030  1.00  0.00     0.106 C
HETATM   12  N4  UNL     1       8.474  -6.371  33.319  1.00  0.00    -0.194 NA
ENDBRANCH   3   6
BRANCH   2  13
HETATM   13  C3  UNL     1       8.246  -0.806  34.120  1.00  0.00     0.015 C
HETATM   14  C4  UNL     1       8.268   0.355  34.655  1.00  0.00    -0.051 C
HETATM   15  C5  UNL     1       9.411   1.261  34.740  1.00  0.00     0.039 C
HETATM   16  C9  UNL     1       6.992   0.830  35.274  1.00  0.00    -0.042 C
HETATM   17  C6  UNL     1       9.083   2.609  35.391  1.00  0.00     0.009 C
HETATM   18  C7  UNL     1       7.746   3.076  34.849  1.00  0.00     0.043 C
HETATM   19  C8  UNL     1       6.739   2.103  35.369  1.00  0.00    -0.005 C
HETATM   20  C12 UNL     1       5.432   2.340  36.020  1.00  0.00     0.156 C
HETATM   21  C11 UNL     1       5.220   1.071  36.795  1.00  0.00     0.088 C
HETATM   22  O1  UNL     1       4.687   3.341  35.947  1.00  0.00    -0.293 OA
HETATM   23  C10 UNL     1       5.849   0.075  35.856  1.00  0.00     0.047 C
ENDBRANCH   2  13
TORSDOF 2
ENDMDL