MODEL 2
REMARK VINA RESULT: -5.851553075     11.089     12.883
REMARK  3 active torsions:
REMARK  status: ('A' for Active; 'I' for Inactive)
REMARK    1  A    between atoms: C2_2  and  O2_4
REMARK    2  A    between atoms: O2_4  and  C3_5
REMARK    3  A    between atoms: C15_19  and  C16_20
ROOT
HETATM    1  C3  UNL     1       8.334  -3.985  32.050  1.00  0.00     0.152 C
HETATM    2  C4  UNL     1       7.528  -4.245  33.059  1.00  0.00    -0.016 C
HETATM    3  C5  UNL     1       7.836  -5.043  34.265  1.00  0.00     0.040 C
HETATM    4  C6  UNL     1       6.901  -4.420  35.312  1.00  0.00     0.013 C
HETATM    5  C7  UNL     1       5.658  -4.234  34.550  1.00  0.00     0.036 C
HETATM    6  C8  UNL     1       4.624  -3.344  35.078  1.00  0.00    -0.011 C
HETATM    7  C9  UNL     1       3.457  -4.163  35.651  1.00  0.00     0.010 C
HETATM    8  C10 UNL     1       5.051  -2.295  36.043  1.00  0.00     0.008 C
HETATM    9  C11 UNL     1       5.133  -0.917  35.372  1.00  0.00     0.043 C
HETATM   10  C12 UNL     1       6.477  -0.704  34.730  1.00  0.00     0.110 A
HETATM   11  C13 UNL     1       7.536  -0.221  35.723  1.00  0.00     0.051 C
HETATM   12  O3  UNL     1       6.586  -0.242  33.437  1.00  0.00    -0.343 OA
HETATM   13  C14 UNL     1       6.902  -1.660  33.760  1.00  0.00     0.297 A
HETATM   14  O4  UNL     1       5.972  -2.431  33.117  1.00  0.00    -0.335 OA
HETATM   15  C15 UNL     1       6.142  -3.783  33.183  1.00  0.00     0.146 C
ENDROOT
BRANCH   1  16
HETATM   16  O2  UNL     1       9.649  -4.468  32.005  1.00  0.00    -0.291 OA
BRANCH  16  17
HETATM   17  C2  UNL     1      10.729  -3.580  32.090  1.00  0.00     0.259 C
HETATM   18  C1  UNL     1      12.035  -3.939  32.660  1.00  0.00     0.126 C
HETATM   19  O1  UNL     1      10.521  -2.422  31.640  1.00  0.00    -0.265 OA
ENDBRANCH  16  17
ENDBRANCH   1  16
BRANCH  15  20
HETATM   20  C16 UNL     1       5.314  -4.436  32.141  1.00  0.00     0.274 C
HETATM   21  O5  UNL     1       4.872  -5.547  32.313  1.00  0.00    -0.303 OA
ENDBRANCH  15  20
TORSDOF 3
ENDMDL