MODEL 5
REMARK VINA RESULT: -7.779587298      1.995      2.704
REMARK  4 active torsions:
REMARK  status: ('A' for Active; 'I' for Inactive)
REMARK    1  A    between atoms: C2_2  and  S1_4
REMARK    2  A    between atoms: S1_4  and  C3_5
REMARK    3  A    between atoms: C3_5  and  C4_7
REMARK    4  A    between atoms: C7_12  and  C8_13
ROOT
HETATM    1  C4  UNL     1       5.914  -4.825  34.375  1.00  0.00     0.176 C
HETATM    2  C5  UNL     1       5.663  -4.935  32.924  1.00  0.00     0.271 C
HETATM    3  O3  UNL     1       4.675  -4.558  32.271  1.00  0.00    -0.264 OA
HETATM    4  O4  UNL     1       6.773  -5.564  32.391  1.00  0.00    -0.320 OA
HETATM    5  C6  UNL     1       7.859  -5.506  33.286  1.00  0.00     0.188 C
HETATM    6  C7  UNL     1       7.441  -4.584  34.354  1.00  0.00     0.054 C
ENDROOT
BRANCH   6   7
HETATM    7  C8  UNL     1       7.654  -3.164  34.183  1.00  0.00    -0.016 C
HETATM    8  C9  UNL     1       8.439  -2.356  33.592  1.00  0.00    -0.083 C
HETATM    9  C10 UNL     1       8.099  -0.878  33.832  1.00  0.00     0.034 C
HETATM   10  C15 UNL     1       9.574  -2.736  32.774  1.00  0.00     0.034 C
HETATM   11  C11 UNL     1       9.351  -0.197  34.399  1.00  0.00     0.004 C
HETATM   12  C12 UNL     1      10.449  -0.143  33.395  1.00  0.00     0.000 C
HETATM   13  C13 UNL     1      11.428  -1.252  33.412  1.00  0.00     0.000 C
HETATM   14  C14 UNL     1      10.899  -2.632  33.516  1.00  0.00     0.004 C
ENDBRANCH   6   7
BRANCH   1  15
HETATM   15  C3  UNL     1       5.171  -3.764  35.039  1.00  0.00     0.207 C
HETATM   16  O2  UNL     1       4.806  -3.831  36.221  1.00  0.00    -0.284 OA
BRANCH  15  17
HETATM   17  S1  UNL     1       4.763  -2.292  34.118  1.00  0.00    -0.015 SA
BRANCH  17  18
HETATM   18  C2  UNL     1       4.224  -0.962  35.162  1.00  0.00     0.189 C
HETATM   19  C1  UNL     1       5.164  -0.309  36.092  1.00  0.00     0.105 C
HETATM   20  O1  UNL     1       3.077  -0.592  35.107  1.00  0.00    -0.285 OA
ENDBRANCH  17  18
ENDBRANCH  15  17
ENDBRANCH   1  15
TORSDOF 4
ENDMDL