MODEL 2
REMARK VINA RESULT: -7.256948802      3.491      7.124
REMARK  2 active torsions:
REMARK  status: ('A' for Active; 'I' for Inactive)
REMARK    1  A    between atoms: C6_8  and  C7_9
REMARK    2  A    between atoms: C8_10  and  C9_11
ROOT
HETATM    1  C7  UNL     1       8.159  -2.156  33.740  1.00  0.00     0.034 C
HETATM    2  C8  UNL     1       7.687  -0.950  33.602  1.00  0.00     0.008 C
ENDROOT
BRANCH   1   3
HETATM    3  C6  UNL     1       8.776  -2.886  32.577  1.00  0.00     0.294 C
HETATM    4  O2  UNL     1       8.271  -4.209  32.496  1.00  0.00    -0.286 OA
HETATM    5  C5  UNL     1       8.966  -5.312  32.942  1.00  0.00     0.264 C
HETATM    6  C4  UNL     1      10.452  -5.157  33.081  1.00  0.00     0.148 C
HETATM    7  O1  UNL     1       8.419  -6.405  33.224  1.00  0.00    -0.265 OA
HETATM    8  C2  UNL     1      10.818  -3.932  32.254  1.00  0.00     0.066 C
HETATM    9  C1  UNL     1      12.306  -3.684  32.472  1.00  0.00     0.046 C
HETATM   10  C3  UNL     1      10.517  -4.265  30.808  1.00  0.00     0.046 C
HETATM   11  O3  UNL     1      10.142  -2.830  32.715  1.00  0.00    -0.347 OA
ENDBRANCH   1   3
BRANCH   2  12
HETATM   12  C9  UNL     1       7.071  -0.131  34.629  1.00  0.00    -0.051 C
HETATM   13  C10 UNL     1       5.747  -0.190  34.843  1.00  0.00     0.001 C
HETATM   14  C11 UNL     1       5.021   0.585  35.843  1.00  0.00     0.029 C
HETATM   15  C12 UNL     1       3.517   0.432  35.565  1.00  0.00     0.032 C
HETATM   16  C13 UNL     1       5.228   0.133  37.261  1.00  0.00     0.032 C
HETATM   17  S1  UNL     1       5.290   2.397  35.676  1.00  0.00    -0.084 SA
HETATM   18  S2  UNL     1       7.393   2.523  35.214  1.00  0.00    -0.092 SA
HETATM   19  C14 UNL     1       7.890   0.765  35.441  1.00  0.00     0.124 C
ENDBRANCH   2  12
TORSDOF 2
ENDMDL