MODEL 2
REMARK VINA RESULT: -10.444885433      1.784      5.658
REMARK  3 active torsions:
REMARK  status: ('A' for Active; 'I' for Inactive)
REMARK    1  A    between atoms: C2_2  and  O1_3
REMARK    2  A    between atoms: O1_3  and  C3_4
REMARK    3  A    between atoms: C3_4  and  C4_6
ROOT
HETATM    1  C4  UNL     1       7.069  -0.476  34.797  1.00  0.00     0.090 A
HETATM    2  C5  UNL     1       8.199   0.350  34.663  1.00  0.00     0.162 A
HETATM    3  O3  UNL     1       9.312  -0.069  34.148  1.00  0.00    -0.320 OA
HETATM    4  C6  UNL     1       9.469  -1.287  33.716  1.00  0.00     0.094 A
HETATM    5  C7  UNL     1      10.684  -1.641  33.189  1.00  0.00    -0.021 A
HETATM    6  C8  UNL     1      11.767  -0.625  33.129  1.00  0.00     0.052 C
HETATM    7  C9  UNL     1      10.867  -2.920  32.731  1.00  0.00    -0.047 A
HETATM    8  C10 UNL     1      12.188  -3.303  32.159  1.00  0.00     0.049 C
HETATM    9  C11 UNL     1       9.829  -3.796  32.819  1.00  0.00    -0.049 A
HETATM   10  C12 UNL     1      10.011  -5.184  32.324  1.00  0.00     0.049 C
HETATM   11  C13 UNL     1       8.563  -3.475  33.354  1.00  0.00    -0.040 A
HETATM   12  C14 UNL     1       7.515  -4.481  33.420  1.00  0.00     0.050 C
HETATM   13  C15 UNL     1       8.423  -2.184  33.800  1.00  0.00     0.033 A
HETATM   14  C16 UNL     1       7.171  -1.766  34.359  1.00  0.00     0.073 A
HETATM   15  N1  UNL     1       6.260  -2.553  34.337  1.00  0.00    -0.292 N
ATOM     16  H1  UNL     1       6.671  -3.408  33.962  1.00  0.00     0.178 HD
HETATM   17  C17 UNL     1       4.992  -2.862  34.556  1.00  0.00     0.182 C
HETATM   18  N2  UNL     1       3.898  -3.166  34.717  1.00  0.00    -0.172 NA
ENDROOT
BRANCH   1  19
HETATM   19  C3  UNL     1       5.926   0.074  35.471  1.00  0.00     0.297 C
HETATM   20  O2  UNL     1       5.359  -0.215  36.507  1.00  0.00    -0.259 OA
BRANCH  19  21
HETATM   21  O1  UNL     1       5.316   1.186  34.803  1.00  0.00    -0.318 OA
BRANCH  21  22
HETATM   22  C2  UNL     1       5.088   2.394  35.478  1.00  0.00     0.174 C
HETATM   23  C1  UNL     1       6.314   3.247  35.615  1.00  0.00     0.034 C
ENDBRANCH  21  22
ENDBRANCH  19  21
ENDBRANCH   1  19
TORSDOF 3
ENDMDL