MODEL 2
REMARK VINA RESULT: -8.741535626      1.313      4.719
REMARK  3 active torsions:
REMARK  status: ('A' for Active; 'I' for Inactive)
REMARK    1  A    between atoms: C2_2  and  O2_4
REMARK    2  A    between atoms: O2_4  and  C3_5
REMARK    3  A    between atoms: C7_9  and  C8_10
ROOT
HETATM    1  C3  UNL     1       8.158  -0.755  34.402  1.00  0.00     0.100 A
HETATM    2  C4  UNL     1       9.431  -0.429  33.992  1.00  0.00    -0.026 A
HETATM    3  C5  UNL     1       9.966   0.929  34.326  1.00  0.00     0.051 C
HETATM    4  C6  UNL     1      10.167  -1.352  33.292  1.00  0.00     0.025 A
HETATM    5  C7  UNL     1       9.680  -2.633  32.968  1.00  0.00     0.025 A
HETATM    6  C10 UNL     1       8.420  -2.952  33.381  1.00  0.00     0.040 A
HETATM    7  C11 UNL     1       7.662  -2.000  34.099  1.00  0.00     0.060 A
HETATM    8  C12 UNL     1       6.316  -2.390  34.476  1.00  0.00     0.171 C
HETATM    9  O4  UNL     1       5.593  -1.494  34.995  1.00  0.00    -0.291 OA
HETATM   10  C13 UNL     1       5.772  -3.743  34.283  1.00  0.00     0.025 C
HETATM   11  C14 UNL     1       6.222  -4.634  35.432  1.00  0.00     0.024 C
HETATM   12  C15 UNL     1       4.256  -3.735  34.197  1.00  0.00     0.024 C
HETATM   13  C16 UNL     1       6.370  -4.346  33.007  1.00  0.00     0.101 C
HETATM   14  C17 UNL     1       7.828  -4.275  33.195  1.00  0.00     0.162 C
HETATM   15  O5  UNL     1       8.540  -5.284  33.202  1.00  0.00    -0.292 OA
ENDROOT
BRANCH   1  16
HETATM   16  O2  UNL     1       7.419   0.174  35.105  1.00  0.00    -0.278 OA
BRANCH  16  17
HETATM   17  C2  UNL     1       6.901   1.331  34.543  1.00  0.00     0.260 C
HETATM   18  C1  UNL     1       6.729   2.496  35.464  1.00  0.00     0.126 C
HETATM   19  O1  UNL     1       6.614   1.349  33.340  1.00  0.00    -0.265 OA
ENDBRANCH  16  17
ENDBRANCH   1  16
BRANCH   5  20
HETATM   20  C8  UNL     1      10.472  -3.522  32.148  1.00  0.00     0.156 C
HETATM   21  C9  UNL     1      11.768  -4.098  32.648  1.00  0.00     0.097 C
HETATM   22  O3  UNL     1      10.164  -3.876  30.998  1.00  0.00    -0.293 OA
ENDBRANCH   5  20
TORSDOF 3
ENDMDL