MODEL 5
REMARK VINA RESULT: -4.838259406      2.919      6.051
REMARK  4 active torsions:
REMARK  status: ('A' for Active; 'I' for Inactive)
REMARK    1  A    between atoms: C5_6  and  O2_7
REMARK    2  A    between atoms: O2_7  and  C6_8
REMARK    3  A    between atoms: C6_8  and  S2_10
REMARK    4  A    between atoms: C13_17  and  O3_18
ROOT
HETATM    1  C1  UNL     1      12.863   4.746  34.882  1.00  0.00     0.049 C
HETATM    2  C2  UNL     1      14.155   4.987  35.042  1.00  0.00     0.068 C
HETATM    3  O1  UNL     1      15.147   4.095  34.650  1.00  0.00    -0.340 OA
HETATM    4  C3  UNL     1      16.397   4.739  34.601  1.00  0.00     0.096 C
HETATM    5  C4  UNL     1      16.256   5.758  35.707  1.00  0.00     0.080 C
HETATM    6  C5  UNL     1      14.801   6.179  35.635  1.00  0.00     0.189 C
HETATM    7  C8  UNL     1      16.621   5.484  33.312  1.00  0.00     0.046 C
HETATM    8  C9  UNL     1      16.878   4.593  32.144  1.00  0.00    -0.007 A
HETATM    9  C10 UNL     1      16.117   3.376  31.856  1.00  0.00     0.010 A
HETATM   10  C11 UNL     1      17.585   3.354  32.353  1.00  0.00    -0.007 A
HETATM   11  C12 UNL     1      17.817   2.862  33.732  1.00  0.00     0.040 C
HETATM   12  C13 UNL     1      17.564   3.857  34.824  1.00  0.00     0.156 C
ENDROOT
BRANCH  12  13
HETATM   13  O3  UNL     1      17.366   3.142  36.000  1.00  0.00    -0.388 OA
HETATM   14  C14 UNL     1      18.142   2.018  36.124  1.00  0.00     0.202 C
ENDBRANCH  12  13
BRANCH   6  15
HETATM   15  O2  UNL     1      14.556   7.288  34.836  1.00  0.00    -0.323 OA
BRANCH  15  16
HETATM   16  C6  UNL     1      13.688   8.314  35.095  1.00  0.00     0.175 C
HETATM   17  S1  UNL     1      13.748   9.253  36.421  1.00  0.00    -0.045 SA
BRANCH  16  18
HETATM   18  S2  UNL     1      12.397   8.631  33.871  1.00  0.00    -0.098 SA
HETATM   19  C7  UNL     1      10.813   8.974  34.673  1.00  0.00     0.098 C
ENDBRANCH  16  18
ENDBRANCH  15  16
ENDBRANCH   6  15
TORSDOF 4
ENDMDL