MODEL 4
REMARK VINA RESULT: -6.113660384      1.835      3.774
REMARK  2 active torsions:
REMARK  status: ('A' for Active; 'I' for Inactive)
REMARK    1  A    between atoms: C2_2  and  C3_4
REMARK    2  A    between atoms: C5_6  and  C6_7
ROOT
HETATM    1  C6  UNL     1       8.298  -2.049  34.404  1.00  0.00     0.012 C
HETATM    2  C7  UNL     1       9.382  -2.681  33.546  1.00  0.00     0.009 C
HETATM    3  C8  UNL     1       8.890  -3.295  32.288  1.00  0.00     0.005 C
HETATM    4  C9  UNL     1       8.332  -4.668  32.400  1.00  0.00    -0.011 C
HETATM    5  C10 UNL     1       9.260  -5.630  33.092  1.00  0.00     0.010 C
HETATM    6  C11 UNL     1       6.925  -4.738  32.951  1.00  0.00     0.034 C
HETATM    7  C12 UNL     1       5.932  -4.407  31.873  1.00  0.00     0.037 C
HETATM    8  C13 UNL     1       4.521  -4.588  32.348  1.00  0.00     0.210 C
HETATM    9  O2  UNL     1       4.347  -3.869  33.522  1.00  0.00    -0.238 OA
HETATM   10  O3  UNL     1       4.512  -4.743  34.515  1.00  0.00    -0.202 OA
HETATM   11  C14 UNL     1       5.699  -4.435  35.123  1.00  0.00     0.371 C
HETATM   12  O4  UNL     1       6.588  -5.450  35.371  1.00  0.00    -0.201 OA
HETATM   13  O5  UNL     1       7.558  -4.542  35.227  1.00  0.00    -0.221 OA
HETATM   14  C15 UNL     1       6.781  -3.990  34.212  1.00  0.00     0.156 C
HETATM   15  C16 UNL     1       6.943  -2.480  34.042  1.00  0.00     0.055 C
ENDROOT
BRANCH   1  16
HETATM   16  C5  UNL     1       8.472  -0.621  34.567  1.00  0.00    -0.012 C
HETATM   17  C3  UNL     1       9.336   0.261  34.268  1.00  0.00    -0.020 C
HETATM   18  C4  UNL     1      10.595   0.046  33.556  1.00  0.00     0.052 C
BRANCH  17  19
HETATM   19  C2  UNL     1       9.065   1.670  34.663  1.00  0.00     0.151 C
HETATM   20  C1  UNL     1       7.697   2.115  35.029  1.00  0.00     0.096 C
HETATM   21  O1  UNL     1       9.984   2.515  34.697  1.00  0.00    -0.293 OA
ENDBRANCH  17  19
ENDBRANCH   1  16
TORSDOF 2
ENDMDL