MODEL 4
REMARK VINA RESULT: -5.404278865      3.038      5.796
REMARK  2 active torsions:
REMARK  status: ('A' for Active; 'I' for Inactive)
REMARK    1  A    between atoms: O1_2  and  C2_3
REMARK    2  A    between atoms: C3_4  and  O2_5
ROOT
HETATM    1  O2  UNL     1      14.889   6.819  35.932  1.00  0.00    -0.247 OA
HETATM    2  C4  UNL     1      13.603   7.038  36.338  1.00  0.00     0.231 C
HETATM    3  N1  UNL     1      12.516   7.211  36.696  1.00  0.00    -0.164 NA
ENDROOT
BRANCH   1   4
HETATM    4  C3  UNL     1      15.316   5.498  35.783  1.00  0.00     0.315 C
HETATM    5  C2  UNL     1      16.871   5.449  35.591  1.00  0.00     0.124 C
HETATM    6  C6  UNL     1      16.894   6.036  34.240  1.00  0.00     0.062 C
HETATM    7  C17 UNL     1      16.888   4.039  35.075  1.00  0.00     0.065 C
HETATM    8  C5  UNL     1      16.193   4.721  33.920  1.00  0.00     0.085 C
HETATM    9  C7  UNL     1      18.092   6.319  33.463  1.00  0.00     0.011 C
HETATM   10  O3  UNL     1      14.952   4.971  34.511  1.00  0.00    -0.344 OA
HETATM   11  C11 UNL     1      16.326   4.212  32.599  1.00  0.00    -0.008 C
HETATM   12  C9  UNL     1      16.666   5.357  31.646  1.00  0.00    -0.007 C
HETATM   13  C12 UNL     1      14.992   3.643  32.130  1.00  0.00     0.019 C
HETATM   14  C13 UNL     1      17.370   3.146  32.365  1.00  0.00     0.013 C
HETATM   15  C8  UNL     1      17.954   6.032  31.974  1.00  0.00     0.005 C
HETATM   16  C10 UNL     1      16.675   4.905  30.215  1.00  0.00     0.011 C
HETATM   17  C14 UNL     1      17.723   2.370  33.581  1.00  0.00     0.005 C
HETATM   18  C15 UNL     1      18.049   3.252  34.799  1.00  0.00    -0.009 C
HETATM   19  C16 UNL     1      18.238   2.208  35.928  1.00  0.00     0.010 C
BRANCH   5  20
HETATM   20  O1  UNL     1      17.540   5.868  36.621  1.00  0.00    -0.379 OA
HETATM   21  C1  UNL     1      18.082   7.074  36.793  1.00  0.00     0.202 C
ENDBRANCH   5  20
ENDBRANCH   1   4
TORSDOF 2
ENDMDL