MODEL 5
REMARK VINA RESULT: -4.720352323      1.293      3.335
REMARK  13 active torsions:
REMARK  status: ('A' for Active; 'I' for Inactive)
REMARK    1  A    between atoms: O1_1  and  C1_3
REMARK    2  A    between atoms: C2_4  and  O2_5
REMARK    3  A    between atoms: C3_7  and  O3_8
REMARK    4  A    between atoms: C4_10  and  C5_11
REMARK    5  A    between atoms: C4_10  and  N1_20
REMARK    6  A    between atoms: C5_11  and  O4_12
REMARK    7  A    between atoms: O4_12  and  C6_13
REMARK    8  A    between atoms: C6_13  and  C7_14
REMARK    9  A    between atoms: N1_20  and  C13_22
REMARK   10  A    between atoms: C18_28  and  C19_29
REMARK   11  A    between atoms: C25_36  and  C26_37
REMARK   12  A    between atoms: C26_37  and  C27_38
REMARK   13  A    between atoms: C26_37  and  C31_44
ROOT
HETATM    1  C1  UNL     1      -3.930  10.887  49.555  1.00  0.00     0.179 C
HETATM    2  C2  UNL     1      -3.500   9.827  50.500  1.00  0.00     0.183 C
HETATM    3  C3  UNL     1      -4.088   9.846  51.851  1.00  0.00     0.207 C
HETATM    4  C4  UNL     1      -4.602  11.198  52.323  1.00  0.00     0.185 C
HETATM    5  O5  UNL     1      -5.209  11.907  51.349  1.00  0.00    -0.347 OA
HETATM    6  C25 UNL     1      -4.581  12.073  50.146  1.00  0.00     0.175 C
ENDROOT
BRANCH   4   7
HETATM    7  C5  UNL     1      -3.428  11.889  53.012  1.00  0.00     0.231 C
BRANCH   7   8
HETATM    8  O4  UNL     1      -2.868  11.077  53.969  1.00  0.00    -0.382 OA
BRANCH   8   9
HETATM    9  C6  UNL     1      -2.270  11.692  55.025  1.00  0.00     0.206 C
BRANCH   9  10
HETATM   10  C7  UNL     1      -3.324  11.997  56.050  1.00  0.00    -0.035 A
HETATM   11  C8  UNL     1      -4.119  11.002  56.583  1.00  0.00     0.009 A
HETATM   12  C9  UNL     1      -5.091  11.318  57.530  1.00  0.00     0.001 A
HETATM   13  C10 UNL     1      -5.230  12.646  57.913  1.00  0.00     0.000 A
HETATM   14  C11 UNL     1      -4.434  13.630  57.377  1.00  0.00     0.001 A
HETATM   15  C12 UNL     1      -3.492  13.311  56.456  1.00  0.00     0.009 A
ENDBRANCH   9  10
ENDBRANCH   8   9
ENDBRANCH   7   8
ENDBRANCH   4   7
BRANCH   4  16
HETATM   16  N1  UNL     1      -5.576  10.921  53.369  1.00  0.00    -0.354 N
ATOM     17  H1  UNL     1      -5.426  10.077  53.921  1.00  0.00     0.163 HD
BRANCH  16  18
HETATM   18  C13 UNL     1      -6.699  11.694  53.699  1.00  0.00     0.041 A
HETATM   19  C14 UNL     1      -6.574  12.855  54.407  1.00  0.00     0.033 A
HETATM   20  C15 UNL     1      -7.659  13.676  54.711  1.00  0.00     0.044 A
HETATM   21  C16 UNL     1      -8.920  13.323  54.291  1.00  0.00     0.117 A
HETATM   22  F1  UNL     1      -9.982  14.132  54.588  1.00  0.00    -0.206 F
HETATM   23  C17 UNL     1      -9.061  12.165  53.583  1.00  0.00     0.056 A
HETATM   24  C18 UNL     1      -7.972  11.333  53.274  1.00  0.00     0.004 A
BRANCH  24  25
HETATM   25  C19 UNL     1      -8.288  10.117  52.558  1.00  0.00    -0.024 A
HETATM   26  C20 UNL     1      -8.338  10.094  51.193  1.00  0.00     0.012 A
HETATM   27  C21 UNL     1      -8.639   8.928  50.481  1.00  0.00     0.001 A
HETATM   28  C22 UNL     1      -8.899   7.763  51.155  1.00  0.00     0.000 A
HETATM   29  C23 UNL     1      -8.853   7.773  52.526  1.00  0.00     0.001 A
HETATM   30  C24 UNL     1      -8.551   8.937  53.211  1.00  0.00     0.012 A
ENDBRANCH  24  25
ENDBRANCH  16  18
ENDBRANCH   4  16
BRANCH   3  31
HETATM   31  O3  UNL     1      -5.148   8.914  51.964  1.00  0.00    -0.388 OA
ATOM     32  H3  UNL     1      -5.417   8.593  51.112  1.00  0.00     0.210 HD
ENDBRANCH   3  31
BRANCH   2  33
HETATM   33  O2  UNL     1      -2.088   9.757  50.589  1.00  0.00    -0.390 OA
ATOM     34  H2  UNL     1      -1.811   9.024  51.126  1.00  0.00     0.210 HD
ENDBRANCH   2  33
BRANCH   6  35
HETATM   35  C26 UNL     1      -5.641  12.727  49.251  1.00  0.00     0.182 C
BRANCH  35  36
HETATM   36  C27 UNL     1      -6.563  13.580  50.007  1.00  0.00     0.070 A
HETATM   37  C28 UNL     1      -7.923  13.451  50.029  1.00  0.00     0.037 A
HETATM   38  C29 UNL     1      -8.407  14.441  50.854  1.00  0.00     0.052 A
HETATM   39  C30 UNL     1      -7.292  15.116  51.286  1.00  0.00     0.145 A
HETATM   40 CL1  UNL     1      -7.385  16.499  52.384  1.00  0.00    -0.057 Cl
HETATM   41  O6  UNL     1      -6.217  14.587  50.770  1.00  0.00    -0.302 OA
ENDBRANCH  35  36
BRANCH  35  42
HETATM   42  C31 UNL     1      -5.128  13.307  47.989  1.00  0.00     0.399 C
HETATM   43  F2  UNL     1      -6.011  14.356  47.654  1.00  0.00    -0.170 F
HETATM   44  F3  UNL     1      -5.217  12.425  46.918  1.00  0.00    -0.170 F
HETATM   45  F4  UNL     1      -3.899  13.916  48.046  1.00  0.00    -0.170 F
ENDBRANCH  35  42
ENDBRANCH   6  35
BRANCH   1  46
HETATM   46  O1  UNL     1      -2.757  11.307  48.861  1.00  0.00    -0.390 OA
ATOM     47  H1  UNL     1      -2.374  12.004  49.380  1.00  0.00     0.210 HD
ENDBRANCH   1  46
TORSDOF 13
ENDMDL