MODEL 2
REMARK VINA RESULT: -5.557799479      0.955      1.436
REMARK  14 active torsions:
REMARK  status: ('A' for Active; 'I' for Inactive)
REMARK    1  A    between atoms: C2_2  and  O1_5
REMARK    2  A    between atoms: O1_5  and  C3_6
REMARK    3  A    between atoms: C5_8  and  O2_9
REMARK    4  A    between atoms: C6_11  and  N1_12
REMARK    5  A    between atoms: C8_14  and  C9_15
REMARK    6  A    between atoms: C9_15  and  O3_16
REMARK    7  A    between atoms: C9_15  and  C10_18
REMARK    8  A    between atoms: C10_18  and  O4_19
REMARK    9  A    between atoms: O4_19  and  C11_20
REMARK   10  A    between atoms: C11_20  and  C12_21
REMARK   11  A    between atoms: C20_29  and  C21_30
REMARK   12  A    between atoms: C21_30  and  N2_31
REMARK   13  A    between atoms: C23_36  and  O5_37
REMARK   14  A    between atoms: C26_42  and  C27_43
ROOT
HETATM    1  N1  UNL     1      -9.366  15.032  47.609  1.00  0.00    -0.310 N
HETATM    2  C7  UNL     1      -9.881  15.744  46.620  1.00  0.00     0.111 A
HETATM    3  C8  UNL     1     -11.054  16.403  47.058  1.00  0.00     0.025 A
HETATM    4  C23 UNL     1     -11.159  16.014  48.393  1.00  0.00     0.110 A
HETATM    5  C24 UNL     1     -10.126  15.174  48.737  1.00  0.00     0.120 A
HETATM    6 BR1  UNL     1      -9.816  14.399  50.449  1.00  0.00    -0.028 Br
ENDROOT
BRANCH   3   7
HETATM    7  C9  UNL     1     -12.037  17.053  46.184  1.00  0.00     0.190 C
BRANCH   7   8
HETATM    8  O3  UNL     1     -11.665  16.633  44.836  1.00  0.00    -0.388 OA
ATOM      9  H3  UNL     1     -12.016  17.310  44.269  1.00  0.00     0.210 HD
ENDBRANCH   7   8
BRANCH   7  10
HETATM   10  C10 UNL     1     -11.960  18.580  46.079  1.00  0.00     0.091 C
HETATM   11  C18 UNL     1     -13.162  18.827  45.082  1.00  0.00     0.041 C
HETATM   12  C19 UNL     1     -13.905  20.017  45.562  1.00  0.00     0.009 C
HETATM   13  C20 UNL     1     -13.819  19.871  47.045  1.00  0.00     0.014 C
HETATM   14  C22 UNL     1     -12.570  19.082  47.366  1.00  0.00     0.047 C
BRANCH  10  15
HETATM   15  O4  UNL     1     -10.902  19.174  45.707  1.00  0.00    -0.377 OA
BRANCH  15  16
HETATM   16  C11 UNL     1     -10.192  20.230  45.742  1.00  0.00     0.173 C
BRANCH  16  17
HETATM   17  C12 UNL     1     -10.418  21.220  44.574  1.00  0.00     0.009 C
HETATM   18  C13 UNL     1     -11.157  22.411  45.218  1.00  0.00     0.007 C
HETATM   19  C14 UNL     1     -10.172  23.412  45.764  1.00  0.00     0.000 C
HETATM   20  C15 UNL     1      -9.415  24.074  44.618  1.00  0.00     0.000 C
HETATM   21  C16 UNL     1      -9.415  23.121  43.411  1.00  0.00     0.000 C
HETATM   22  C17 UNL     1      -9.116  21.730  43.996  1.00  0.00     0.007 C
ENDBRANCH  16  17
ENDBRANCH  15  16
ENDBRANCH  10  15
BRANCH  13  23
HETATM   23  C21 UNL     1     -15.045  19.161  47.603  1.00  0.00     0.234 C
BRANCH  23  24
HETATM   24  N2  UNL     1     -14.741  18.042  48.428  1.00  0.00    -0.079 N
ATOM     25  H23 UNL     1     -13.904  18.223  48.981  1.00  0.00     0.274 HD
ATOM     26  H22 UNL     1     -15.427  17.953  49.176  1.00  0.00     0.274 HD
ATOM     27  H21 UNL     1     -14.652  17.163  47.918  1.00  0.00     0.274 HD
ENDBRANCH  23  24
ENDBRANCH  13  23
ENDBRANCH   7  10
ENDBRANCH   3   7
BRANCH   4  28
HETATM   28  O5  UNL     1     -12.158  16.396  49.306  1.00  0.00    -0.357 OA
ATOM     29  H5  UNL     1     -12.043  16.922  50.089  1.00  0.00     0.217 HD
ENDBRANCH   4  28
BRANCH   1  30
HETATM   30  C6  UNL     1      -8.279  14.074  47.632  1.00  0.00     0.073 A
HETATM   31  C5  UNL     1      -8.705  12.733  47.483  1.00  0.00     0.095 A
HETATM   32  C4  UNL     1      -7.798  11.704  47.521  1.00  0.00     0.076 A
HETATM   33  C3  UNL     1      -6.456  11.940  47.703  1.00  0.00     0.093 A
HETATM   34  C26 UNL     1      -6.081  13.252  47.840  1.00  0.00     0.083 A
HETATM   35  C25 UNL     1      -6.974  14.326  47.808  1.00  0.00     0.052 A
BRANCH  31  36
HETATM   36  O2  UNL     1     -10.015  12.424  47.292  1.00  0.00    -0.358 OA
ATOM     37  H2  UNL     1     -10.626  12.614  47.995  1.00  0.00     0.217 HD
ENDBRANCH  31  36
BRANCH  33  38
HETATM   38  O1  UNL     1      -5.526  10.909  47.747  1.00  0.00    -0.283 OA
BRANCH  38  39
HETATM   39  C2  UNL     1      -5.314  10.095  48.883  1.00  0.00     0.355 C
HETATM   40  C1  UNL     1      -5.665   8.671  48.495  1.00  0.00     0.126 C
HETATM   41  F1  UNL     1      -6.099  10.418  49.958  1.00  0.00    -0.176 F
HETATM   42  F2  UNL     1      -3.976  10.064  49.242  1.00  0.00    -0.176 F
ENDBRANCH  38  39
ENDBRANCH  33  38
BRANCH  34  43
HETATM   43  C27 UNL     1      -4.634  13.563  48.026  1.00  0.00     0.420 C
HETATM   44  F3  UNL     1      -4.172  13.104  49.248  1.00  0.00    -0.166 F
HETATM   45  F4  UNL     1      -4.547  14.951  48.051  1.00  0.00    -0.166 F
HETATM   46  F5  UNL     1      -3.870  13.105  46.993  1.00  0.00    -0.166 F
ENDBRANCH  34  43
ENDBRANCH   1  30
TORSDOF 14
ENDMDL