MODEL 3
REMARK VINA RESULT: -5.253357760      1.419      1.722
REMARK  11 active torsions:
REMARK  status: ('A' for Active; 'I' for Inactive)
REMARK    1  A    between atoms: O1_2  and  C2_3
REMARK    2  A    between atoms: C2_3  and  C3_4
REMARK    3  A    between atoms: C3_4  and  N1_5
REMARK    4  A    between atoms: C3_4  and  C28_51
REMARK    5  A    between atoms: N1_5  and  C4_7
REMARK    6  A    between atoms: C6_9  and  C7_10
REMARK    7  A    between atoms: C10_14  and  N2_15
REMARK    8  A    between atoms: N2_15  and  C11_17
REMARK    9  A    between atoms: C17_26  and  C18_27
REMARK   10  A    between atoms: C20_33  and  C21_34
REMARK   11  A    between atoms: C23_40  and  C24_41
ROOT
HETATM    1  C7  UNL     1      -9.077  11.392  47.178  1.00  0.00     0.026 A
HETATM    2  C8  UNL     1      -8.056  10.540  46.807  1.00  0.00     0.130 A
HETATM    3  F1  UNL     1      -8.308   9.623  45.830  1.00  0.00    -0.205 F
HETATM    4  C9  UNL     1      -6.816  10.623  47.416  1.00  0.00     0.072 A
HETATM    5  C10 UNL     1      -6.543  11.544  48.406  1.00  0.00     0.032 A
HETATM    6  C16 UNL     1      -7.554  12.393  48.778  1.00  0.00     0.044 A
HETATM    7  C17 UNL     1      -8.811  12.314  48.166  1.00  0.00     0.010 A
ENDROOT
BRANCH   7   8
HETATM    8  C18 UNL     1      -9.879  13.208  48.555  1.00  0.00     0.086 A
HETATM    9  N4  UNL     1     -10.819  12.893  49.452  1.00  0.00    -0.349 N
HETATM   10  C19 UNL     1     -11.782  13.775  49.766  1.00  0.00     0.181 A
ATOM     11  H4  UNL     1     -10.805  11.977  49.901  1.00  0.00     0.166 HD
HETATM   12  N5  UNL     1     -11.834  14.985  49.197  1.00  0.00    -0.348 N
HETATM   13  C20 UNL     1     -10.933  15.387  48.286  1.00  0.00     0.103 A
ATOM     14  H5  UNL     1     -12.584  15.624  49.463  1.00  0.00     0.167 HD
HETATM   15  C25 UNL     1      -9.933  14.456  47.967  1.00  0.00     0.172 A
HETATM   16  F5  UNL     1      -9.003  14.841  47.042  1.00  0.00    -0.201 F
BRANCH  13  17
HETATM   17  C21 UNL     1     -10.931  16.671  47.637  1.00  0.00     0.095 A
HETATM   18  N6  UNL     1     -10.459  17.826  48.188  1.00  0.00    -0.349 N
HETATM   19  C22 UNL     1     -10.609  18.817  47.321  1.00  0.00     0.181 A
ATOM     20  H6  UNL     1     -10.053  17.913  49.120  1.00  0.00     0.167 HD
HETATM   21  N7  UNL     1     -11.171  18.362  46.198  1.00  0.00    -0.347 N
HETATM   22  C23 UNL     1     -11.372  17.028  46.391  1.00  0.00     0.146 A
ATOM     23  H7  UNL     1     -11.403  18.903  45.365  1.00  0.00     0.166 HD
BRANCH  22  24
HETATM   24  C24 UNL     1     -11.990  16.125  45.363  1.00  0.00     0.434 C
HETATM   25  F2  UNL     1     -11.012  15.213  44.927  1.00  0.00    -0.165 F
HETATM   26  F3  UNL     1     -12.996  15.337  45.901  1.00  0.00    -0.165 F
HETATM   27  F4  UNL     1     -12.369  16.803  44.233  1.00  0.00    -0.165 F
ENDBRANCH  22  24
ENDBRANCH  13  17
ENDBRANCH   7   8
BRANCH   1  28
HETATM   28  C6  UNL     1     -10.399  11.334  46.562  1.00  0.00    -0.017 A
HETATM   29  C5  UNL     1     -10.675  11.958  45.368  1.00  0.00     0.060 A
HETATM   30  C4  UNL     1     -11.962  11.877  44.801  1.00  0.00     0.102 A
HETATM   31  N8  UNL     1     -12.952  11.196  45.400  1.00  0.00    -0.353 N
HETATM   32  C27 UNL     1     -12.695  10.581  46.569  1.00  0.00     0.090 A
ATOM     33  H8  UNL     1     -13.879  11.145  44.979  1.00  0.00     0.166 HD
HETATM   34  C26 UNL     1     -11.447  10.648  47.138  1.00  0.00     0.029 A
BRANCH  30  35
HETATM   35  N1  UNL     1     -12.133  12.484  43.701  1.00  0.00    -0.369 N
ATOM     36  H1  UNL     1     -13.066  12.872  43.555  1.00  0.00     0.161 HD
BRANCH  35  37
HETATM   37  C3  UNL     1     -11.214  12.699  42.647  1.00  0.00     0.110 C
BRANCH  37  38
HETATM   38  C2  UNL     1     -11.168  11.440  41.806  1.00  0.00     0.192 C
BRANCH  38  39
HETATM   39  O1  UNL     1     -10.159  11.436  40.880  1.00  0.00    -0.394 OA
HETATM   40  C1  UNL     1     -10.579  11.132  39.606  1.00  0.00     0.201 C
ENDBRANCH  38  39
ENDBRANCH  37  38
BRANCH  37  41
HETATM   41  C28 UNL     1     -11.652  13.828  41.712  1.00  0.00     0.002 C
HETATM   42  C29 UNL     1     -10.660  14.970  41.753  1.00  0.00     0.011 C
HETATM   43  C30 UNL     1     -12.990  14.364  42.178  1.00  0.00     0.011 C
ENDBRANCH  37  41
ENDBRANCH  35  37
ENDBRANCH  30  35
ENDBRANCH   1  28
BRANCH   5  44
HETATM   44  N2  UNL     1      -5.229  11.565  48.996  1.00  0.00    -0.385 N
ATOM     45  H2  UNL     1      -4.739  12.457  49.064  1.00  0.00     0.160 HD
BRANCH  44  46
HETATM   46  C11 UNL     1      -4.580  10.385  49.493  1.00  0.00     0.085 C
HETATM   47  C12 UNL     1      -3.138  10.710  49.793  1.00  0.00     0.052 C
HETATM   48  C13 UNL     1      -3.071  11.753  50.894  1.00  0.00     0.234 C
HETATM   49  N3  UNL     1      -3.431  11.102  52.133  1.00  0.00    -0.075 N
HETATM   50  C14 UNL     1      -4.168   9.889  51.924  1.00  0.00     0.234 C
ATOM     51  H32 UNL     1      -2.609  10.936  52.713  1.00  0.00     0.277 HD
ATOM     52  H31 UNL     1      -3.940  11.738  52.748  1.00  0.00     0.277 HD
HETATM   53  C15 UNL     1      -5.205   9.986  50.826  1.00  0.00     0.052 C
ENDBRANCH  44  46
ENDBRANCH   5  44
TORSDOF 11
ENDMDL