MODEL 4
REMARK VINA RESULT: -6.696220429      4.318      5.815
REMARK  11 active torsions:
REMARK  status: ('A' for Active; 'I' for Inactive)
REMARK    1  A    between atoms: S1_2  and  N1_4
REMARK    2  A    between atoms: S1_2  and  C21_39
REMARK    3  A    between atoms: N1_4  and  C1_6
REMARK    4  A    between atoms: C3_8  and  C4_9
REMARK    5  A    between atoms: C4_9  and  O3_10
REMARK    6  A    between atoms: C4_9  and  C5_12
REMARK    7  A    between atoms: C5_12  and  N2_13
REMARK    8  A    between atoms: N2_13  and  C6_16
REMARK    9  A    between atoms: C9_19  and  C10_21
REMARK   10  A    between atoms: C11_26  and  C12_27
REMARK   11  A    between atoms: C24_42  and  C25_43
ROOT
HETATM    1  C4  UNL     1      -6.537   8.918  51.931  1.00  0.00     0.178 C
ENDROOT
BRANCH   1   2
HETATM    2  C3  UNL     1      -5.649   9.551  50.939  1.00  0.00    -0.009 A
HETATM    3  C2  UNL     1      -5.404  10.926  50.939  1.00  0.00     0.060 A
HETATM    4  C1  UNL     1      -4.548  11.171  49.897  1.00  0.00     0.115 A
HETATM    5  N5  UNL     1      -4.259   9.982  49.255  1.00  0.00    -0.351 N
HETATM    6  C20 UNL     1      -4.936   9.033  49.907  1.00  0.00     0.099 A
ATOM      7  H5  UNL     1      -3.651   9.856  48.447  1.00  0.00     0.166 HD
BRANCH   4   8
HETATM    8  N1  UNL     1      -3.980  12.392  49.489  1.00  0.00    -0.266 N
ATOM      9  H1  UNL     1      -3.163  12.721  50.003  1.00  0.00     0.180 HD
BRANCH   8  10
HETATM   10  S1  UNL     1      -4.543  13.368  48.209  1.00  0.00     0.264 S
HETATM   11  O1  UNL     1      -4.237  14.832  48.466  1.00  0.00    -0.200 OA
HETATM   12  O2  UNL     1      -3.770  13.050  46.932  1.00  0.00    -0.200 OA
BRANCH  10  13
HETATM   13  C21 UNL     1      -6.216  13.114  47.903  1.00  0.00     0.082 A
HETATM   14  C22 UNL     1      -6.797  11.920  47.589  1.00  0.00     0.026 A
HETATM   15  C23 UNL     1      -8.143  11.771  47.348  1.00  0.00     0.021 A
HETATM   16  C24 UNL     1      -8.981  12.849  47.415  1.00  0.00     0.086 A
HETATM   17  C26 UNL     1      -8.418  14.069  47.731  1.00  0.00     0.133 A
HETATM   18  F5  UNL     1      -9.297  15.119  47.791  1.00  0.00    -0.205 F
HETATM   19  C27 UNL     1      -7.095  14.206  47.968  1.00  0.00     0.068 A
BRANCH  16  20
HETATM   20  C25 UNL     1     -10.453  12.719  47.157  1.00  0.00     0.420 C
HETATM   21  F2  UNL     1     -10.805  13.529  46.085  1.00  0.00    -0.166 F
HETATM   22  F3  UNL     1     -11.090  13.140  48.316  1.00  0.00    -0.166 F
HETATM   23  F4  UNL     1     -10.727  11.400  46.947  1.00  0.00    -0.166 F
ENDBRANCH  16  20
ENDBRANCH  10  13
ENDBRANCH   8  10
ENDBRANCH   4   8
ENDBRANCH   1   2
BRANCH   1  24
HETATM   24  O3  UNL     1      -7.670   8.379  51.307  1.00  0.00    -0.389 OA
ATOM     25  H3  UNL     1      -7.823   7.489  51.602  1.00  0.00     0.210 HD
ENDBRANCH   1  24
BRANCH   1  26
HETATM   26  C5  UNL     1      -6.998   9.844  53.009  1.00  0.00     0.269 C
BRANCH  26  27
HETATM   27  N2  UNL     1      -8.410   9.720  53.290  1.00  0.00    -0.068 N
ATOM     28  H22 UNL     1      -8.869   9.027  52.698  1.00  0.00     0.277 HD
ATOM     29  H21 UNL     1      -8.593   9.277  54.191  1.00  0.00     0.277 HD
BRANCH  27  30
HETATM   30  C6  UNL     1      -9.024  11.051  53.182  1.00  0.00     0.186 C
HETATM   31  C7  UNL     1      -8.023  12.064  53.617  1.00  0.00     0.036 C
HETATM   32  C8  UNL     1      -8.270  13.439  53.033  1.00  0.00     0.054 C
HETATM   33  C9  UNL     1      -8.374  13.446  51.545  1.00  0.00     0.169 C
HETATM   34  F1  UNL     1      -7.090  13.717  51.041  1.00  0.00    -0.234 F
HETATM   35  C18 UNL     1      -8.916  12.206  50.940  1.00  0.00     0.054 C
HETATM   36  C19 UNL     1      -9.659  11.297  51.859  1.00  0.00     0.036 C
BRANCH  33  37
HETATM   37  C10 UNL     1      -9.170  14.679  51.192  1.00  0.00     0.180 A
HETATM   38  N3  UNL     1      -8.651  15.921  51.086  1.00  0.00    -0.279 N
HETATM   39  N4  UNL     1      -9.642  16.743  50.768  1.00  0.00    -0.281 N
ATOM     40  H3  UNL     1      -7.674  16.179  51.226  1.00  0.00     0.189 HD
HETATM   41  C11 UNL     1     -10.767  16.012  50.677  1.00  0.00     0.144 A
ATOM     42  H4  UNL     1      -9.565  17.749  50.618  1.00  0.00     0.189 HD
HETATM   43  O4  UNL     1     -10.434  14.773  50.941  1.00  0.00    -0.278 OA
BRANCH  41  44
HETATM   44  C12 UNL     1     -12.139  16.534  50.342  1.00  0.00     0.062 C
HETATM   45  C13 UNL     1     -13.045  15.487  49.794  1.00  0.00     0.013 C
HETATM   46  C14 UNL     1     -13.625  16.015  48.491  1.00  0.00     0.001 C
HETATM   47  C15 UNL     1     -12.479  16.099  47.497  1.00  0.00     0.000 C
HETATM   48  C16 UNL     1     -11.523  17.166  48.000  1.00  0.00     0.001 C
HETATM   49  C17 UNL     1     -11.892  17.672  49.360  1.00  0.00     0.013 C
ENDBRANCH  41  44
ENDBRANCH  33  37
ENDBRANCH  27  30
ENDBRANCH  26  27
ENDBRANCH   1  26
TORSDOF 11
ENDMDL