MODEL 4
REMARK VINA RESULT: -5.363424013      4.698      9.744
REMARK  13 active torsions:
REMARK  status: ('A' for Active; 'I' for Inactive)
REMARK    1  A    between atoms: C6_8  and  C7_9
REMARK    2  A    between atoms: C10_12  and  C11_13
REMARK    3  A    between atoms: C11_13  and  C12_14
REMARK    4  A    between atoms: C11_13  and  C24_35
REMARK    5  A    between atoms: C16_20  and  O1_21
REMARK    6  A    between atoms: O1_21  and  C17_22
REMARK    7  A    between atoms: C19_24  and  C20_25
REMARK    8  A    between atoms: C20_25  and  O2_26
REMARK    9  A    between atoms: C21_29  and  C22_30
REMARK   10  A    between atoms: C22_30  and  O4_31
REMARK   11  A    between atoms: C24_35  and  O5_36
REMARK   12  A    between atoms: C24_35  and  C25_38
REMARK   13  A    between atoms: C25_38  and  O6_39
ROOT
HETATM    1  N1  UNL     1      -9.769  11.218  36.823  1.00  0.00    -0.191 NA
HETATM    2  C1  UNL     1     -10.390  11.748  37.643  1.00  0.00     0.099 C
HETATM    3  C2  UNL     1     -11.162  12.398  38.682  1.00  0.00     0.048 A
HETATM    4  C3  UNL     1     -12.053  13.379  38.308  1.00  0.00     0.065 A
HETATM    5  C4  UNL     1     -12.787  13.999  39.283  1.00  0.00     0.118 A
HETATM    6  F1  UNL     1     -13.665  14.966  38.907  1.00  0.00    -0.206 F
HETATM    7  C5  UNL     1     -12.619  13.630  40.604  1.00  0.00     0.054 A
HETATM    8  C6  UNL     1     -11.722  12.641  40.984  1.00  0.00    -0.020 A
HETATM    9  C28 UNL     1     -10.977  12.010  40.014  1.00  0.00     0.035 A
ENDROOT
BRANCH   8  10
HETATM   10  C7  UNL     1     -11.585  12.281  42.383  1.00  0.00    -0.004 A
HETATM   11  C8  UNL     1     -11.667  10.961  42.786  1.00  0.00     0.015 A
HETATM   12  C9  UNL     1     -11.522  10.662  44.125  1.00  0.00     0.013 A
HETATM   13  C10 UNL     1     -11.299  11.596  45.106  1.00  0.00    -0.025 A
HETATM   14  C26 UNL     1     -11.218  12.916  44.699  1.00  0.00     0.036 A
HETATM   15  C27 UNL     1     -11.361  13.240  43.349  1.00  0.00     0.045 A
HETATM   16 CL3  UNL     1     -11.247  14.948  42.968  1.00  0.00    -0.083 Cl
BRANCH  13  17
HETATM   17  C11 UNL     1     -11.138  11.174  46.513  1.00  0.00    -0.002 C
BRANCH  17  18
HETATM   18  C12 UNL     1      -9.806  10.761  46.919  1.00  0.00     0.037 A
HETATM   19  C13 UNL     1      -9.533   9.372  47.002  1.00  0.00     0.049 A
HETATM   20 CL1  UNL     1     -10.809   8.235  46.595  1.00  0.00    -0.083 Cl
HETATM   21  C14 UNL     1      -8.307   8.899  47.397  1.00  0.00     0.051 A
HETATM   22  C15 UNL     1      -7.303   9.802  47.723  1.00  0.00     0.072 A
HETATM   23 CL2  UNL     1      -5.734   9.143  48.215  1.00  0.00    -0.081 Cl
HETATM   24  C16 UNL     1      -7.504  11.164  47.664  1.00  0.00     0.130 A
HETATM   25  C23 UNL     1      -8.780  11.592  47.256  1.00  0.00     0.164 A
HETATM   26  F2  UNL     1      -8.981  12.902  47.286  1.00  0.00    -0.202 F
BRANCH  24  27
HETATM   27  O1  UNL     1      -6.547  12.061  47.980  1.00  0.00    -0.338 OA
BRANCH  27  28
HETATM   28  C17 UNL     1      -6.418  13.024  48.948  1.00  0.00     0.162 C
HETATM   29  C18 UNL     1      -6.307  12.346  50.340  1.00  0.00     0.069 C
HETATM   30  C19 UNL     1      -4.893  11.876  50.248  1.00  0.00     0.148 C
HETATM   31  O3  UNL     1      -4.180  12.892  49.618  1.00  0.00    -0.374 OA
HETATM   32  C21 UNL     1      -5.093  13.743  48.993  1.00  0.00     0.175 C
BRANCH  30  33
HETATM   33  C20 UNL     1      -4.304  11.523  51.595  1.00  0.00     0.196 C
BRANCH  33  34
HETATM   34  O2  UNL     1      -3.047  12.078  51.782  1.00  0.00    -0.398 OA
ATOM     35  H2  UNL     1      -3.090  12.961  52.131  1.00  0.00     0.209 HD
ENDBRANCH  33  34
ENDBRANCH  30  33
BRANCH  32  36
HETATM   36  C22 UNL     1      -4.566  14.219  47.690  1.00  0.00     0.198 C
BRANCH  36  37
HETATM   37  O4  UNL     1      -3.853  13.152  47.104  1.00  0.00    -0.398 OA
ATOM     38  H4  UNL     1      -3.917  12.408  47.691  1.00  0.00     0.209 HD
ENDBRANCH  36  37
ENDBRANCH  32  36
ENDBRANCH  27  28
ENDBRANCH  24  27
ENDBRANCH  17  18
BRANCH  17  39
HETATM   39  C24 UNL     1     -12.045  11.860  47.458  1.00  0.00     0.176 C
BRANCH  39  40
HETATM   40  O5  UNL     1     -11.795  11.328  48.794  1.00  0.00    -0.389 OA
ATOM     41  H5  UNL     1     -11.002  11.730  49.129  1.00  0.00     0.210 HD
ENDBRANCH  39  40
BRANCH  39  42
HETATM   42  C25 UNL     1     -13.529  11.492  47.329  1.00  0.00     0.200 C
BRANCH  42  43
HETATM   43  O6  UNL     1     -13.731  10.139  47.110  1.00  0.00    -0.398 OA
ATOM     44  H6  UNL     1     -14.184   9.712  47.828  1.00  0.00     0.209 HD
ENDBRANCH  42  43
ENDBRANCH  39  42
ENDBRANCH  17  39
ENDBRANCH  13  17
ENDBRANCH   8  10
TORSDOF 13
ENDMDL