MODEL 4
REMARK VINA RESULT: -6.355504895      1.427      1.726
REMARK  11 active torsions:
REMARK  status: ('A' for Active; 'I' for Inactive)
REMARK    1  A    between atoms: N1_2  and  C2_3
REMARK    2  A    between atoms: N1_2  and  C22_39
REMARK    3  A    between atoms: C2_3  and  C3_4
REMARK    4  A    between atoms: C3_4  and  C4_6
REMARK    5  A    between atoms: C4_6  and  N2_7
REMARK    6  A    between atoms: N2_7  and  C5_9
REMARK    7  A    between atoms: C6_12  and  C7_13
REMARK    8  A    between atoms: C9_17  and  N5_18
REMARK    9  A    between atoms: N5_18  and  C10_20
REMARK   10  A    between atoms: C18_33  and  C19_34
REMARK   11  A    between atoms: C25_42  and  C26_43
ROOT
HETATM    1  C5  UNL     1     -11.246  12.238  43.898  1.00  0.00     0.113 A
HETATM    2  N3  UNL     1     -11.181  13.110  44.931  1.00  0.00    -0.341 N
ATOM      3  H3  UNL     1     -11.160  12.738  45.880  1.00  0.00     0.167 HD
HETATM    4  C6  UNL     1     -11.142  14.419  44.767  1.00  0.00     0.053 A
HETATM    5  C14 UNL     1     -11.170  14.930  43.489  1.00  0.00     0.043 A
HETATM    6  C15 UNL     1     -11.239  14.060  42.391  1.00  0.00    -0.020 A
HETATM    7  C16 UNL     1     -11.267  14.546  41.102  1.00  0.00     0.013 A
HETATM    8  C17 UNL     1     -11.333  13.656  40.039  1.00  0.00     0.012 A
HETATM    9  C18 UNL     1     -11.373  12.290  40.211  1.00  0.00    -0.009 A
HETATM   10  C20 UNL     1     -11.343  11.818  41.515  1.00  0.00     0.027 A
HETATM   11  C21 UNL     1     -11.277  12.701  42.577  1.00  0.00     0.019 A
ENDROOT
BRANCH   1  12
HETATM   12  N2  UNL     1     -11.276  10.964  44.013  1.00  0.00    -0.373 N
ATOM     13  H2  UNL     1     -10.763  10.416  43.322  1.00  0.00     0.161 HD
BRANCH  12  14
HETATM   14  C4  UNL     1     -11.973  10.252  45.032  1.00  0.00     0.160 C
BRANCH  14  15
HETATM   15  C3  UNL     1     -11.006   9.359  45.756  1.00  0.00     0.205 C
HETATM   16  F1  UNL     1     -11.037   8.041  45.325  1.00  0.00    -0.246 F
BRANCH  15  17
HETATM   17  C2  UNL     1      -9.622   9.882  45.891  1.00  0.00     0.161 C
BRANCH  17  18
HETATM   18  N1  UNL     1      -9.305  10.489  47.155  1.00  0.00    -0.382 N
HETATM   19  C1  UNL     1     -10.224  10.374  48.270  1.00  0.00     0.150 C
BRANCH  18  20
HETATM   20  C22 UNL     1      -8.103  11.228  47.310  1.00  0.00     0.032 A
HETATM   21  C23 UNL     1      -6.845  10.776  46.982  1.00  0.00     0.030 A
HETATM   22  C24 UNL     1      -5.756  11.579  47.172  1.00  0.00     0.020 A
HETATM   23  C25 UNL     1      -5.816  12.878  47.696  1.00  0.00     0.043 A
HETATM   24  C27 UNL     1      -7.068  13.320  48.019  1.00  0.00     0.132 A
HETATM   25  F3  UNL     1      -7.263  14.563  48.535  1.00  0.00    -0.205 F
HETATM   26  C28 UNL     1      -8.177  12.521  47.832  1.00  0.00     0.072 A
BRANCH  23  27
HETATM   27  C26 UNL     1      -4.583  13.640  47.854  1.00  0.00     0.123 C
HETATM   28  N8  UNL     1      -4.465  14.874  47.761  1.00  0.00    -0.387 N
ATOM     29  H82 UNL     1      -5.319  15.393  47.555  1.00  0.00     0.157 HD
ATOM     30  H81 UNL     1      -3.603  15.406  47.871  1.00  0.00     0.157 HD
HETATM   31  N9  UNL     1      -3.380  12.907  48.145  1.00  0.00    -0.082 NA
ENDBRANCH  23  27
ENDBRANCH  18  20
ENDBRANCH  17  18
ENDBRANCH  15  17
ENDBRANCH  14  15
ENDBRANCH  12  14
ENDBRANCH   1  12
BRANCH   4  32
HETATM   32  C7  UNL     1     -11.066  15.319  45.923  1.00  0.00     0.050 A
HETATM   33  C8  UNL     1     -10.175  15.337  46.955  1.00  0.00     0.111 A
HETATM   34  N4  UNL     1     -10.313  16.247  47.875  1.00  0.00    -0.345 N
HETATM   35  C9  UNL     1     -11.317  17.118  47.765  1.00  0.00     0.150 A
ATOM     36  H4  UNL     1      -9.667  16.293  48.663  1.00  0.00     0.167 HD
HETATM   37  S1  UNL     1     -12.087  16.636  46.322  1.00  0.00    -0.050 SA
BRANCH  35  38
HETATM   38  N5  UNL     1     -11.630  18.106  48.575  1.00  0.00    -0.322 N
ATOM     39  H5  UNL     1     -12.409  18.013  49.227  1.00  0.00     0.169 HD
BRANCH  38  40
HETATM   40  C10 UNL     1     -10.868  19.302  48.527  1.00  0.00     0.122 A
HETATM   41  C11 UNL     1     -11.231  20.399  49.315  1.00  0.00     0.136 A
HETATM   42  N6  UNL     1     -10.540  21.551  49.307  1.00  0.00    -0.371 N
HETATM   43  C12 UNL     1      -9.454  21.694  48.523  1.00  0.00     0.104 A
ATOM     44  H6  UNL     1     -10.842  22.325  49.899  1.00  0.00     0.164 HD
HETATM   45  C13 UNL     1      -9.086  20.612  47.737  1.00  0.00     0.106 A
HETATM   46  N7  UNL     1      -9.781  19.460  47.751  1.00  0.00    -0.350 N
ATOM     47  H7  UNL     1      -9.476  18.688  47.159  1.00  0.00     0.166 HD
ENDBRANCH  38  40
ENDBRANCH  35  38
ENDBRANCH   4  32
BRANCH   9  48
HETATM   48  C19 UNL     1     -11.442  11.366  39.044  1.00  0.00     0.299 C
HETATM   49  F2  UNL     1     -10.928  10.134  39.425  1.00  0.00    -0.228 F
HETATM   50 CL1  UNL     1     -10.624  12.053  37.648  1.00  0.00    -0.085 Cl
ENDBRANCH   9  48
TORSDOF 11
ENDMDL