MODEL 3
REMARK VINA RESULT: -5.933798652      4.584      7.473
REMARK  11 active torsions:
REMARK  status: ('A' for Active; 'I' for Inactive)
REMARK    1  A    between atoms: C2_2  and  C4_4
REMARK    2  A    between atoms: C7_7  and  C8_8
REMARK    3  A    between atoms: C8_8  and  N1_9
REMARK    4  A    between atoms: N1_9  and  S1_11
REMARK    5  A    between atoms: S1_11  and  C9_14
REMARK    6  A    between atoms: C14_19  and  C15_20
REMARK    7  A    between atoms: C18_23  and  N2_24
REMARK       I    between atoms: N2_24  and  C19_26
REMARK    8  A    between atoms: C19_26  and  C20_28
REMARK    9  A    between atoms: C21_29  and  O4_30
REMARK   10  A    between atoms: N3_33  and  C23_34
REMARK   11  A    between atoms: C25_39  and  C26_40
ROOT
HETATM    1  C15 UNL     1     -11.861  15.071  46.718  1.00  0.00    -0.021 A
HETATM    2  C16 UNL     1     -11.935  13.993  47.560  1.00  0.00     0.014 A
HETATM    3  C17 UNL     1     -10.783  13.412  48.145  1.00  0.00     0.034 A
HETATM    4  C18 UNL     1      -9.553  13.923  47.880  1.00  0.00     0.074 A
HETATM    5  C27 UNL     1      -9.521  15.029  47.013  1.00  0.00     0.143 A
HETATM    6  F5  UNL     1      -8.287  15.555  46.740  1.00  0.00    -0.204 F
HETATM    7  C28 UNL     1     -10.626  15.590  46.449  1.00  0.00     0.057 A
ENDROOT
BRANCH   1   8
HETATM    8  C14 UNL     1     -13.090  15.587  46.148  1.00  0.00    -0.003 A
HETATM    9  C9  UNL     1     -13.514  15.222  44.903  1.00  0.00     0.090 A
HETATM   10  C10 UNL     1     -14.729  15.711  44.380  1.00  0.00     0.026 A
HETATM   11  C11 UNL     1     -15.470  16.561  45.155  1.00  0.00     0.002 A
HETATM   12  C12 UNL     1     -15.085  16.961  46.417  1.00  0.00     0.001 A
HETATM   13  C13 UNL     1     -13.894  16.461  46.893  1.00  0.00     0.014 A
BRANCH   9  14
HETATM   14  S1  UNL     1     -12.519  14.168  43.928  1.00  0.00     0.259 S
HETATM   15  O1  UNL     1     -12.077  12.925  44.609  1.00  0.00    -0.201 OA
HETATM   16  O2  UNL     1     -13.406  13.691  42.764  1.00  0.00    -0.201 OA
BRANCH  14  17
HETATM   17  N1  UNL     1     -11.231  15.042  43.177  1.00  0.00    -0.313 N
ATOM     18  H1  UNL     1     -10.273  15.072  43.526  1.00  0.00     0.172 HD
BRANCH  17  19
HETATM   19  C8  UNL     1     -11.691  15.729  41.984  1.00  0.00     0.165 C
BRANCH  19  20
HETATM   20  C7  UNL     1     -11.072  15.172  40.736  1.00  0.00     0.204 C
HETATM   21  C6  UNL     1     -11.310  16.075  39.559  1.00  0.00     0.037 C
HETATM   22  C5  UNL     1     -11.509  15.227  38.347  1.00  0.00     0.035 C
HETATM   23  C4  UNL     1     -11.342  13.822  38.906  1.00  0.00     0.189 C
HETATM   24  N4  UNL     1     -11.601  13.914  40.312  1.00  0.00    -0.065 N
ATOM     25  H42 UNL     1     -12.584  13.788  40.552  1.00  0.00     0.278 HD
ATOM     26  H41 UNL     1     -11.238  13.123  40.843  1.00  0.00     0.278 HD
BRANCH  23  27
HETATM   27  C2  UNL     1     -12.311  12.936  38.167  1.00  0.00     0.008 C
HETATM   28  C1  UNL     1     -13.591  12.877  38.992  1.00  0.00     0.011 C
HETATM   29  C3  UNL     1     -11.828  11.518  38.033  1.00  0.00     0.011 C
ENDBRANCH  23  27
ENDBRANCH  19  20
ENDBRANCH  17  19
ENDBRANCH  14  17
ENDBRANCH   9  14
ENDBRANCH   1   8
BRANCH   4  30
HETATM   30  N2  UNL     1      -8.339  13.399  48.391  1.00  0.00    -0.320 N
HETATM   31  C19 UNL     1      -7.618  12.296  47.935  1.00  0.00     0.260 C
HETATM   32  O3  UNL     1      -8.103  11.684  46.964  1.00  0.00    -0.267 OA
ATOM     33  H2  UNL     1      -7.943  13.889  49.192  1.00  0.00     0.169 HD
BRANCH  31  34
HETATM   34  C20 UNL     1      -6.374  11.809  48.483  1.00  0.00     0.084 A
HETATM   35  C21 UNL     1      -6.271  10.553  49.096  1.00  0.00     0.098 A
HETATM   36  C22 UNL     1      -5.045  10.146  49.602  1.00  0.00     0.137 A
HETATM   37  N3  UNL     1      -3.931  10.866  49.553  1.00  0.00    -0.264 N
HETATM   38  C24 UNL     1      -3.995  12.054  48.982  1.00  0.00     0.264 A
HETATM   39  O5  UNL     1      -2.979  12.778  48.905  1.00  0.00    -0.267 OA
HETATM   40  C25 UNL     1      -5.201  12.551  48.439  1.00  0.00     0.092 A
BRANCH  35  41
HETATM   41  O4  UNL     1      -7.349   9.702  49.216  1.00  0.00    -0.358 OA
ATOM     42  H4  UNL     1      -7.967   9.565  48.507  1.00  0.00     0.217 HD
ENDBRANCH  35  41
BRANCH  37  43
HETATM   43  C23 UNL     1      -2.673  10.348  50.121  1.00  0.00     0.467 C
HETATM   44  F1  UNL     1      -2.172   9.449  49.206  1.00  0.00    -0.190 F
HETATM   45  F2  UNL     1      -2.944   9.714  51.331  1.00  0.00    -0.190 F
ENDBRANCH  37  43
BRANCH  40  46
HETATM   46  C26 UNL     1      -5.105  13.878  47.829  1.00  0.00     0.393 C
HETATM   47  F3  UNL     1      -4.961  14.778  48.930  1.00  0.00    -0.209 F
HETATM   48  F4  UNL     1      -3.828  14.006  47.193  1.00  0.00    -0.209 F
ENDBRANCH  40  46
ENDBRANCH  31  34
ENDBRANCH   4  30
TORSDOF 11
ENDMDL