MODEL 5
REMARK VINA RESULT: -6.151263978      4.193      9.868
REMARK  11 active torsions:
REMARK  status: ('A' for Active; 'I' for Inactive)
REMARK    1  A    between atoms: C4_6  and  C5_7
REMARK    2  A    between atoms: C5_7  and  C6_8
REMARK    3  A    between atoms: C6_8  and  N2_9
REMARK    4  A    between atoms: N2_9  and  C7_11
REMARK    5  A    between atoms: C9_17  and  N5_18
REMARK    6  A    between atoms: N5_18  and  C10_20
REMARK    7  A    between atoms: C14_25  and  C15_26
REMARK    8  A    between atoms: C15_26  and  O1_27
REMARK    9  A    between atoms: C18_31  and  C19_32
REMARK   10  A    between atoms: C19_32  and  C20_33
REMARK   11  A    between atoms: C24_41  and  C25_42
ROOT
HETATM    1  C7  UNL     1     -11.871  15.014  43.372  1.00  0.00     0.117 A
HETATM    2  N3  UNL     1     -11.705  16.092  44.150  1.00  0.00    -0.338 N
ATOM      3  H3  UNL     1     -11.638  17.026  43.747  1.00  0.00     0.168 HD
HETATM    4  C8  UNL     1     -11.630  15.903  45.484  1.00  0.00     0.183 A
HETATM    5  N4  UNL     1     -11.715  14.687  46.035  1.00  0.00    -0.338 N
ATOM      6  H4  UNL     1     -11.651  14.596  47.049  1.00  0.00     0.168 HD
HETATM    7  C9  UNL     1     -11.883  13.573  45.282  1.00  0.00     0.121 A
HETATM    8  C24 UNL     1     -11.961  13.744  43.932  1.00  0.00     0.062 A
ENDROOT
BRANCH   7   9
HETATM    9  N5  UNL     1     -11.960  12.290  45.913  1.00  0.00    -0.337 N
ATOM     10  H5  UNL     1     -12.861  11.894  46.181  1.00  0.00     0.167 HD
BRANCH   9  11
HETATM   11  C10 UNL     1     -10.746  11.581  46.157  1.00  0.00     0.112 A
HETATM   12  C11 UNL     1     -10.577  10.320  45.628  1.00  0.00     0.146 A
HETATM   13  F1  UNL     1     -11.598   9.793  44.881  1.00  0.00    -0.204 F
HETATM   14  C12 UNL     1      -9.408   9.626  45.854  1.00  0.00     0.045 A
HETATM   15  C13 UNL     1      -8.413  10.198  46.612  1.00  0.00     0.016 A
HETATM   16  C14 UNL     1      -8.531  11.477  47.175  1.00  0.00     0.017 A
HETATM   17  C23 UNL     1      -9.708  12.119  46.919  1.00  0.00     0.155 A
HETATM   18  F3  UNL     1      -9.874  13.358  47.428  1.00  0.00    -0.203 F
BRANCH  16  19
HETATM   19  C15 UNL     1      -7.436  11.999  47.979  1.00  0.00     0.090 C
HETATM   20  C16 UNL     1      -6.159  11.797  47.163  1.00  0.00     0.043 C
HETATM   21  C17 UNL     1      -4.941  12.277  47.917  1.00  0.00     0.011 C
HETATM   22  C18 UNL     1      -4.899  11.450  49.174  1.00  0.00     0.030 C
HETATM   23  C21 UNL     1      -6.029  11.994  50.023  1.00  0.00     0.177 C
HETATM   24  F2  UNL     1      -5.987  13.380  50.030  1.00  0.00    -0.249 F
HETATM   25  C22 UNL     1      -7.343  11.534  49.376  1.00  0.00     0.080 C
BRANCH  19  26
HETATM   26  O1  UNL     1      -7.567  13.414  48.026  1.00  0.00    -0.385 OA
ATOM     27  H1  UNL     1      -6.811  13.761  48.485  1.00  0.00     0.211 HD
ENDBRANCH  19  26
BRANCH  22  28
HETATM   28  C19 UNL     1      -3.600  11.373  49.869  1.00  0.00     0.120 C
BRANCH  28  29
HETATM   29  C20 UNL     1      -3.092   9.997  49.945  1.00  0.00     0.172 C
HETATM   30  O2  UNL     1      -2.326   9.639  50.861  1.00  0.00    -0.648 OA
HETATM   31  O3  UNL     1      -3.442   9.025  48.991  1.00  0.00    -0.648 OA
ENDBRANCH  28  29
ENDBRANCH  22  28
ENDBRANCH  16  19
ENDBRANCH   9  11
ENDBRANCH   7   9
BRANCH   8  32
HETATM   32  C25 UNL     1     -12.142  12.545  43.117  1.00  0.00    -0.015 A
HETATM   33  C26 UNL     1     -13.374  11.937  43.023  1.00  0.00     0.016 A
HETATM   34  C27 UNL     1     -13.591  10.798  42.260  1.00  0.00     0.046 A
HETATM   35  C28 UNL     1     -12.521  10.261  41.570  1.00  0.00     0.154 A
HETATM   36  F4  UNL     1     -12.643   9.157  40.806  1.00  0.00    -0.203 F
HETATM   37  C29 UNL     1     -11.290  10.868  41.663  1.00  0.00     0.155 A
HETATM   38  F5  UNL     1     -10.192  10.381  41.002  1.00  0.00    -0.203 F
HETATM   39  C30 UNL     1     -11.087  11.998  42.423  1.00  0.00     0.058 A
ENDBRANCH   8  32
BRANCH   1  40
HETATM   40  N2  UNL     1     -11.952  15.105  42.095  1.00  0.00    -0.375 N
ATOM     41  H2  UNL     1     -12.884  15.003  41.693  1.00  0.00     0.161 HD
BRANCH  40  42
HETATM   42  C6  UNL     1     -10.889  15.333  41.175  1.00  0.00     0.128 C
BRANCH  42  43
HETATM   43  C5  UNL     1     -11.356  15.528  39.754  1.00  0.00     0.096 C
BRANCH  43  44
HETATM   44  C4  UNL     1     -11.701  14.201  39.195  1.00  0.00     0.082 A
HETATM   45  N1  UNL     1     -12.969  13.721  39.352  1.00  0.00    -0.355 N
HETATM   46  C3  UNL     1     -13.353  12.530  38.872  1.00  0.00     0.097 A
ATOM     47  H1  UNL     1     -13.650  14.291  39.853  1.00  0.00     0.166 HD
HETATM   48  C2  UNL     1     -12.424  11.760  38.193  1.00  0.00    -0.031 A
HETATM   49  C1  UNL     1     -12.788  10.428  37.635  1.00  0.00     0.051 C
HETATM   50  C31 UNL     1     -11.150  12.215  38.022  1.00  0.00     0.097 A
HETATM   51  N6  UNL     1     -10.842  13.422  38.533  1.00  0.00    -0.355 N
ATOM     52  H6  UNL     1      -9.890  13.764  38.406  1.00  0.00     0.166 HD
ENDBRANCH  43  44
ENDBRANCH  42  43
ENDBRANCH  40  42
ENDBRANCH   1  40
TORSDOF 11
ENDMDL