MODEL 1
REMARK VINA RESULT: -5.920932889      0.000      0.000
REMARK  10 active torsions:
REMARK  status: ('A' for Active; 'I' for Inactive)
REMARK    1  A    between atoms: C4_6  and  C5_7
REMARK    2  A    between atoms: C7_11  and  C8_12
REMARK    3  A    between atoms: C13_17  and  C14_18
REMARK    4  A    between atoms: C18_24  and  N3_25
REMARK    5  A    between atoms: N3_25  and  S1_27
REMARK    6  A    between atoms: S1_27  and  C19_30
REMARK    7  A    between atoms: C20_31  and  N4_32
REMARK    8  A    between atoms: N4_32  and  N5_34
REMARK    9  A    between atoms: C26_45  and  O3_46
REMARK   10  A    between atoms: O3_46  and  C27_47
ROOT
HETATM    1  C14 UNL     1      -6.206  13.664  49.769  1.00  0.00     0.056 A
HETATM    2  C15 UNL     1      -5.853  14.065  48.495  1.00  0.00     0.133 A
HETATM    3  F1  UNL     1      -6.652  14.872  47.724  1.00  0.00    -0.205 F
HETATM    4  C16 UNL     1      -4.653  13.636  47.969  1.00  0.00     0.088 A
HETATM    5  C17 UNL     1      -3.821  12.808  48.727  1.00  0.00     0.149 A
HETATM    6  F2  UNL     1      -2.634  12.393  48.201  1.00  0.00    -0.203 F
HETATM    7  C18 UNL     1      -4.195  12.419  49.996  1.00  0.00     0.120 A
HETATM    8  C25 UNL     1      -5.395  12.847  50.526  1.00  0.00     0.161 A
HETATM    9  F3  UNL     1      -5.725  12.443  51.783  1.00  0.00    -0.203 F
ENDROOT
BRANCH   1  10
HETATM   10  C13 UNL     1      -7.467  14.124  50.320  1.00  0.00     0.010 A
HETATM   11  C5  UNL     1      -8.612  13.450  49.950  1.00  0.00     0.073 A
HETATM   12  N2  UNL     1      -9.779  13.893  50.491  1.00  0.00    -0.363 N
HETATM   13  C6  UNL     1      -9.807  14.929  51.336  1.00  0.00     0.096 A
ATOM     14  H2  UNL     1     -10.652  13.424  50.248  1.00  0.00     0.165 HD
HETATM   15  C7  UNL     1      -8.664  15.636  51.731  1.00  0.00    -0.038 A
HETATM   16  C12 UNL     1      -7.478  15.196  51.190  1.00  0.00     0.023 A
BRANCH  11  17
HETATM   17  C4  UNL     1      -8.626  12.324  49.020  1.00  0.00     0.093 A
HETATM   18  N1  UNL     1      -8.237  11.094  49.274  1.00  0.00    -0.361 N
HETATM   19  C3  UNL     1      -8.264  10.094  48.390  1.00  0.00     0.095 A
ATOM     20  H1  UNL     1      -7.890  10.889  50.211  1.00  0.00     0.165 HD
HETATM   21  C2  UNL     1      -8.723  10.317  47.115  1.00  0.00    -0.044 A
HETATM   22  C1  UNL     1      -8.763   9.215  46.098  1.00  0.00     0.049 C
HETATM   23  C28 UNL     1      -9.146  11.599  46.791  1.00  0.00     0.047 A
HETATM   24  C26 UNL     1      -9.103  12.596  47.724  1.00  0.00     0.104 A
BRANCH  24  25
HETATM   25  O3  UNL     1      -9.519  13.869  47.414  1.00  0.00    -0.288 OA
BRANCH  25  26
HETATM   26  C27 UNL     1     -10.659  14.196  46.694  1.00  0.00     0.505 C
HETATM   27  F4  UNL     1     -10.287  14.902  45.550  1.00  0.00    -0.184 F
HETATM   28  F5  UNL     1     -11.454  15.081  47.429  1.00  0.00    -0.184 F
ENDBRANCH  25  26
ENDBRANCH  24  25
ENDBRANCH  11  17
BRANCH  15  29
HETATM   29  C8  UNL     1      -8.821  16.747  52.661  1.00  0.00     0.020 C
HETATM   30  C9  UNL     1      -9.948  17.689  52.187  1.00  0.00     0.009 C
HETATM   31  C10 UNL     1      -8.873  18.669  51.787  1.00  0.00     0.001 C
HETATM   32  C11 UNL     1      -7.899  17.897  52.625  1.00  0.00     0.009 C
ENDBRANCH  15  29
ENDBRANCH   1  10
BRANCH   7  33
HETATM   33  N3  UNL     1      -3.346  11.578  50.766  1.00  0.00    -0.274 N
ATOM     34  H3  UNL     1      -2.756  11.990  51.489  1.00  0.00     0.179 HD
BRANCH  33  35
HETATM   35  S1  UNL     1      -3.294   9.872  50.499  1.00  0.00     0.267 S
HETATM   36  O1  UNL     1      -3.055   9.577  49.038  1.00  0.00    -0.200 OA
HETATM   37  O2  UNL     1      -2.161   9.303  51.292  1.00  0.00    -0.200 OA
BRANCH  35  38
HETATM   38  C19 UNL     1      -4.804   9.085  50.940  1.00  0.00     0.132 A
HETATM   39  C20 UNL     1      -5.650   8.364  50.136  1.00  0.00     0.144 A
HETATM   40  N6  UNL     1      -6.679   7.962  50.894  1.00  0.00    -0.344 N
HETATM   41  C21 UNL     1      -6.522   8.400  52.150  1.00  0.00     0.014 A
ATOM     42  H6  UNL     1      -7.467   7.405  50.563  1.00  0.00     0.167 HD
HETATM   43  C22 UNL     1      -7.439   8.176  53.309  1.00  0.00     0.068 C
HETATM   44  C23 UNL     1      -5.347   9.110  52.198  1.00  0.00    -0.013 A
HETATM   45  C24 UNL     1      -4.807   9.770  53.430  1.00  0.00     0.052 C
BRANCH  39  46
HETATM   46  N4  UNL     1      -5.457   8.093  48.762  1.00  0.00    -0.291 N
ATOM     47  H4  UNL     1      -4.715   8.564  48.246  1.00  0.00     0.188 HD
BRANCH  46  48
HETATM   48  N5  UNL     1      -6.290   7.176  48.118  1.00  0.00    -0.344 N
ATOM     49  H52 UNL     1      -7.139   6.860  48.586  1.00  0.00     0.176 HD
ATOM     50  H51 UNL     1      -6.039   6.835  47.190  1.00  0.00     0.176 HD
ENDBRANCH  46  48
ENDBRANCH  39  46
ENDBRANCH  35  38
ENDBRANCH  33  35
ENDBRANCH   7  33
TORSDOF 10
ENDMDL