MODEL 4
REMARK VINA RESULT: -5.697748261      3.550      5.760
REMARK  10 active torsions:
REMARK  status: ('A' for Active; 'I' for Inactive)
REMARK    1  A    between atoms: C9_12  and  C10_13
REMARK    2  A    between atoms: C10_13  and  C11_14
REMARK    3  A    between atoms: C10_13  and  C15_24
REMARK    4  A    between atoms: C11_14  and  C12_15
REMARK    5  A    between atoms: C14_18  and  N2_19
REMARK    6  A    between atoms: C15_24  and  C16_25
REMARK    7  A    between atoms: C16_25  and  C17_28
REMARK    8  A    between atoms: C22_39  and  N7_40
REMARK    9  A    between atoms: N7_40  and  C23_42
REMARK   10  A    between atoms: C25_44  and  C26_45
ROOT
HETATM    1  C1  UNL     1     -12.267  12.261  48.768  1.00  0.00     0.048 C
HETATM    2  C2  UNL     1     -11.371  13.450  48.816  1.00  0.00    -0.056 A
HETATM    3  C3  UNL     1     -10.464  13.693  49.830  1.00  0.00     0.037 A
HETATM    4  C4  UNL     1      -9.702  14.845  49.881  1.00  0.00     0.045 A
HETATM    5  C5  UNL     1      -8.871  15.142  51.028  1.00  0.00     0.004 A
HETATM    6  C6  UNL     1      -9.176  16.295  51.772  1.00  0.00     0.031 A
HETATM    7  C7  UNL     1      -8.451  16.637  52.861  1.00  0.00     0.092 A
HETATM    8  N1  UNL     1      -7.429  15.860  53.224  1.00  0.00    -0.333 N
ATOM      9  H1  UNL     1      -6.879  16.109  54.046  1.00  0.00     0.168 HD
HETATM   10  C8  UNL     1      -7.105  14.738  52.517  1.00  0.00     0.253 A
HETATM   11  O1  UNL     1      -6.120  14.144  52.982  1.00  0.00    -0.268 OA
HETATM   12  C9  UNL     1      -7.804  14.320  51.391  1.00  0.00     0.030 A
HETATM   13  N6  UNL     1      -9.855  15.742  48.913  1.00  0.00    -0.342 N
ATOM     14  H6  UNL     1      -9.302  16.599  48.934  1.00  0.00     0.167 HD
HETATM   15  C22 UNL     1     -10.746  15.539  47.877  1.00  0.00     0.107 A
HETATM   16  C29 UNL     1     -11.501  14.400  47.832  1.00  0.00     0.055 A
ENDROOT
BRANCH  12  17
HETATM   17  C10 UNL     1      -7.265  13.291  50.444  1.00  0.00     0.056 C
BRANCH  17  18
HETATM   18  C11 UNL     1      -6.976  12.014  51.045  1.00  0.00     0.013 C
BRANCH  18  19
HETATM   19  C12 UNL     1      -5.971  11.007  50.670  1.00  0.00     0.037 A
HETATM   20  C13 UNL     1      -6.433   9.749  50.216  1.00  0.00     0.082 A
HETATM   21  S1  UNL     1      -5.004   8.916  49.880  1.00  0.00    -0.064 SA
HETATM   22  C14 UNL     1      -3.895  10.132  50.310  1.00  0.00     0.142 A
HETATM   23  N3  UNL     1      -4.667  11.138  50.694  1.00  0.00    -0.337 N
ATOM     24  H3  UNL     1      -4.248  12.012  51.009  1.00  0.00     0.168 HD
BRANCH  22  25
HETATM   25  N2  UNL     1      -2.564  10.072  50.284  1.00  0.00    -0.380 N
ATOM     26  H22 UNL     1      -1.957   9.768  49.522  1.00  0.00     0.158 HD
ATOM     27  H21 UNL     1      -1.911  10.337  51.022  1.00  0.00     0.158 HD
ENDBRANCH  22  25
ENDBRANCH  18  19
ENDBRANCH  17  18
BRANCH  17  28
HETATM   28  C15 UNL     1      -6.200  13.959  49.588  1.00  0.00     0.099 C
BRANCH  28  29
HETATM   29  C16 UNL     1      -6.381  14.032  48.134  1.00  0.00     0.287 C
HETATM   30  F1  UNL     1      -7.303  14.883  47.597  1.00  0.00    -0.199 F
HETATM   31  F2  UNL     1      -5.164  14.355  47.503  1.00  0.00    -0.199 F
BRANCH  29  32
HETATM   32  C17 UNL     1      -6.867  12.683  47.643  1.00  0.00     0.097 A
HETATM   33  C18 UNL     1      -8.167  12.324  47.527  1.00  0.00     0.034 A
HETATM   34  C19 UNL     1      -8.545  11.071  47.026  1.00  0.00     0.028 A
HETATM   35  C20 UNL     1      -7.558  10.202  46.654  1.00  0.00     0.022 A
HETATM   36  C21 UNL     1      -7.884   8.842  46.105  1.00  0.00     0.069 C
HETATM   37  N4  UNL     1      -6.269  10.602  46.792  1.00  0.00    -0.305 N
HETATM   38  N5  UNL     1      -5.914  11.783  47.262  1.00  0.00    -0.299 N
ATOM     39  H4  UNL     1      -5.532   9.952  46.517  1.00  0.00     0.186 HD
ATOM     40  H5  UNL     1      -4.925  12.024  47.339  1.00  0.00     0.186 HD
ENDBRANCH  29  32
ENDBRANCH  28  29
ENDBRANCH  17  28
ENDBRANCH  12  17
BRANCH  15  41
HETATM   41  N7  UNL     1     -10.821  16.428  46.968  1.00  0.00    -0.329 N
ATOM     42  H7  UNL     1     -11.083  16.073  46.048  1.00  0.00     0.169 HD
BRANCH  41  43
HETATM   43  C23 UNL     1     -10.608  17.796  47.018  1.00  0.00     0.107 A
HETATM   44  C24 UNL     1     -11.678  18.541  47.576  1.00  0.00     0.061 A
HETATM   45  C25 UNL     1     -11.661  19.879  47.759  1.00  0.00     0.010 A
HETATM   46  C27 UNL     1     -10.538  20.588  47.385  1.00  0.00     0.029 A
HETATM   47  C28 UNL     1      -9.493  19.833  46.835  1.00  0.00     0.090 A
HETATM   48  N8  UNL     1      -9.548  18.509  46.671  1.00  0.00    -0.352 N
ATOM     49  H8  UNL     1      -8.745  18.028  46.265  1.00  0.00     0.166 HD
BRANCH  45  50
HETATM   50  C26 UNL     1     -12.795  20.625  48.366  1.00  0.00     0.386 C
HETATM   51  F3  UNL     1     -12.508  21.913  48.687  1.00  0.00    -0.209 F
HETATM   52  F4  UNL     1     -13.157  19.896  49.506  1.00  0.00    -0.209 F
ENDBRANCH  45  50
ENDBRANCH  41  43
ENDBRANCH  15  41
TORSDOF 10
ENDMDL