MODEL 2
REMARK VINA RESULT: -7.235095515      2.053      2.625
REMARK  4 active torsions:
REMARK  status: ('A' for Active; 'I' for Inactive)
REMARK    1  A    between atoms: C1_4  and  C2_5
REMARK    2  A    between atoms: C1_4  and  N2_9
REMARK    3  A    between atoms: N3_11  and  C4_13
REMARK    4  A    between atoms: C6_15  and  C7_16
ROOT
HETATM    1  N2  UNL     1       1.954  12.517  24.610  1.00  0.00    -0.285 N
ATOM      2  H2  UNL     1       1.723  13.226  25.306  1.00  0.00     0.188 HD
HETATM    3  N3  UNL     1       3.153  12.467  24.180  1.00  0.00    -0.292 N
ATOM      4  H3  UNL     1       3.458  11.786  23.485  1.00  0.00     0.187 HD
ENDROOT
BRANCH   1   5
HETATM    5  C1  UNL     1       0.935  11.651  24.182  1.00  0.00     0.115 C
HETATM    6  N1  UNL     1       1.169  10.404  23.944  1.00  0.00    -0.384 N
ATOM      7  H12 UNL     1       0.428   9.776  23.633  1.00  0.00     0.157 HD
ATOM      8  H11 UNL     1       2.122  10.067  24.080  1.00  0.00     0.157 HD
BRANCH   5   9
HETATM    9  C2  UNL     1      -0.418  12.129  23.989  1.00  0.00     0.085 C
HETATM   10  C3  UNL     1      -0.794  12.775  22.907  1.00  0.00     0.107 C
HETATM   11 CL1  UNL     1      -2.473  13.329  22.747  1.00  0.00    -0.071 Cl
HETATM   12 CL2  UNL     1       0.308  13.121  21.590  1.00  0.00    -0.071 Cl
ENDBRANCH   5   9
ENDBRANCH   1   5
BRANCH   3  13
HETATM   13  C4  UNL     1       4.052  13.455  24.756  1.00  0.00     0.089 A
HETATM   14  C5  UNL     1       5.418  13.422  24.735  1.00  0.00     0.057 A
HETATM   15  C6  UNL     1       6.076  14.444  25.331  1.00  0.00     0.050 A
HETATM   16  C8  UNL     1       5.291  15.421  25.901  1.00  0.00     0.070 A
HETATM   17  S1  UNL     1       3.704  14.889  25.592  1.00  0.00    -0.082 SA
BRANCH  15  18
HETATM   18  C7  UNL     1       7.565  14.570  25.403  1.00  0.00     0.209 C
HETATM   19  O1  UNL     1       8.238  14.489  24.351  1.00  0.00    -0.644 OA
HETATM   20  O2  UNL     1       8.238  14.772  26.569  1.00  0.00    -0.644 OA
ENDBRANCH  15  18
ENDBRANCH   3  13
TORSDOF 4
ENDMDL