MODEL 4
REMARK VINA RESULT: -7.093313045      2.059      3.046
REMARK  4 active torsions:
REMARK  status: ('A' for Active; 'I' for Inactive)
REMARK    1  A    between atoms: C4_4  and  C5_5
REMARK    2  A    between atoms: C5_5  and  C6_6
REMARK    3  A    between atoms: C7_7  and  O1_8
REMARK    4  A    between atoms: N2_14  and  C9_15
ROOT
HETATM    1  C6  UNL     1       4.769  11.260  24.038  1.00  0.00     0.070 A
HETATM    2  C7  UNL     1       3.411  11.244  24.271  1.00  0.00     0.166 A
HETATM    3  N1  UNL     1       2.932  10.040  23.963  1.00  0.00    -0.312 N
ATOM      4  H1  UNL     1       1.956   9.753  24.041  1.00  0.00     0.170 HD
HETATM    5  C8  UNL     1       3.953   9.253  23.530  1.00  0.00     0.182 A
HETATM    6  S1  UNL     1       3.764   7.685  23.055  1.00  0.00    -0.040 SA
HETATM    7  N2  UNL     1       5.065  10.006  23.581  1.00  0.00    -0.300 N
ENDROOT
BRANCH   1   8
HETATM    8  C5  UNL     1       5.660  12.419  24.283  1.00  0.00     0.089 C
BRANCH   8   9
HETATM    9  C4  UNL     1       4.883  13.583  24.815  1.00  0.00    -0.019 C
HETATM   10  C2  UNL     1       5.461  14.659  25.329  1.00  0.00    -0.091 C
HETATM   11  C1  UNL     1       6.942  14.720  25.382  1.00  0.00     0.042 C
HETATM   12  C3  UNL     1       4.644  15.789  25.847  1.00  0.00     0.042 C
ENDBRANCH   8   9
ENDBRANCH   1   8
BRANCH   2  13
HETATM   13  O1  UNL     1       2.672  12.339  24.755  1.00  0.00    -0.345 OA
ATOM     14  H1  UNL     1       2.788  12.729  25.613  1.00  0.00     0.219 HD
ENDBRANCH   2  13
BRANCH   7  15
HETATM   15  C9  UNL     1       6.396   9.605  23.252  1.00  0.00     0.109 C
HETATM   16  C10 UNL     1       7.373  10.661  23.795  1.00  0.00     0.056 C
HETATM   17  C11 UNL     1       6.840   8.309  23.892  1.00  0.00     0.056 C
HETATM   18 CL1  UNL     1       6.582   9.439  21.481  1.00  0.00    -0.096 Cl
ENDBRANCH   7  15
TORSDOF 4
ENDMDL