MODEL 1
REMARK VINA RESULT: -6.822058049      0.000      0.000
REMARK  4 active torsions:
REMARK  status: ('A' for Active; 'I' for Inactive)
REMARK    1  A    between atoms: C2_2  and  C4_5
REMARK    2  A    between atoms: C6_9  and  N1_10
REMARK    3  A    between atoms: N1_10  and  N2_12
REMARK    4  A    between atoms: C7_15  and  C8_16
ROOT
HETATM    1  C4  UNL     1       6.061  13.321  24.848  1.00  0.00     0.003 A
HETATM    2  C5  UNL     1       4.887  14.065  25.058  1.00  0.00     0.085 A
HETATM    3 CL2  UNL     1       4.757  15.687  25.762  1.00  0.00    -0.075 Cl
HETATM    4  S1  UNL     1       3.648  13.084  24.488  1.00  0.00    -0.058 SA
HETATM    5  C6  UNL     1       4.575  11.743  23.981  1.00  0.00     0.097 A
HETATM    6  C7  UNL     1       5.875  12.106  24.277  1.00  0.00    -0.008 A
ENDROOT
BRANCH   5   7
HETATM    7  N1  UNL     1       4.030  10.521  23.438  1.00  0.00    -0.300 N
ATOM      8  H1  UNL     1       4.396  10.173  22.552  1.00  0.00     0.187 HD
BRANCH   7   9
HETATM    9  N2  UNL     1       3.026   9.800  24.074  1.00  0.00    -0.344 N
ATOM     10  H22 UNL     1       3.248   9.370  24.971  1.00  0.00     0.176 HD
ATOM     11  H21 UNL     1       2.092   9.690  23.677  1.00  0.00     0.176 HD
ENDBRANCH   7   9
ENDBRANCH   5   7
BRANCH   6  12
HETATM   12  C8  UNL     1       6.965  11.111  23.929  1.00  0.00     0.022 A
HETATM   13  C9  UNL     1       6.710   9.643  23.979  1.00  0.00     0.010 A
HETATM   14  C10 UNL     1       6.956  10.326  22.677  1.00  0.00     0.010 A
ENDBRANCH   6  12
BRANCH   1  15
HETATM   15  C2  UNL     1       7.342  13.984  25.307  1.00  0.00     0.059 C
HETATM   16  C1  UNL     1       8.419  12.864  25.396  1.00  0.00     0.037 C
HETATM   17  C3  UNL     1       7.963  14.979  24.417  1.00  0.00     0.037 C
HETATM   18 CL1  UNL     1       7.212  14.621  26.954  1.00  0.00    -0.115 Cl
ENDBRANCH   1  15
TORSDOF 4
ENDMDL