MODEL 5
REMARK VINA RESULT: -6.705101923      4.672      5.734
REMARK  4 active torsions:
REMARK  status: ('A' for Active; 'I' for Inactive)
REMARK    1  A    between atoms: O1_1  and  C1_3
REMARK    2  A    between atoms: C4_6  and  O2_7
REMARK    3  A    between atoms: N1_9  and  C5_10
REMARK    4  A    between atoms: C5_10  and  C6_11
ROOT
HETATM    1  C1  UNL     1       0.621  11.410  23.667  1.00  0.00     0.151 A
HETATM    2  C2  UNL     1       0.769  10.198  24.322  1.00  0.00     0.008 A
HETATM    3  C3  UNL     1      -0.393   9.901  25.007  1.00  0.00     0.008 A
HETATM    4  C4  UNL     1      -1.243  10.956  24.753  1.00  0.00     0.151 A
HETATM    5  N1  UNL     1      -0.619  11.847  23.951  1.00  0.00    -0.307 N
HETATM    6  C7  UNL     1      -0.408   8.629  25.767  1.00  0.00     0.024 C
HETATM    7  C8  UNL     1       0.374   8.775  27.027  1.00  0.00     0.009 C
HETATM    8  C9  UNL     1       1.846   8.569  26.880  1.00  0.00     0.001 C
HETATM    9  C10 UNL     1       2.488   9.344  25.793  1.00  0.00     0.009 C
HETATM   10  C11 UNL     1       1.863   9.201  24.436  1.00  0.00     0.024 C
HETATM   11  C12 UNL     1       1.370   7.807  24.166  1.00  0.00     0.010 C
HETATM   12  C13 UNL     1       0.075   7.557  24.853  1.00  0.00     0.010 C
ENDROOT
BRANCH   5  13
HETATM   13  C5  UNL     1      -1.240  13.070  23.496  1.00  0.00     0.148 C
BRANCH  13  14
HETATM   14  C6  UNL     1      -1.837  12.849  22.099  1.00  0.00     0.135 C
HETATM   15 CL1  UNL     1      -0.714  13.424  20.850  1.00  0.00    -0.129 Cl
ENDBRANCH  13  14
ENDBRANCH   5  13
BRANCH   1  16
HETATM   16  O1  UNL     1       1.607  11.990  22.890  1.00  0.00    -0.345 OA
ATOM     17  H1  UNL     1       2.084  12.773  23.139  1.00  0.00     0.219 HD
ENDBRANCH   1  16
BRANCH   4  18
HETATM   18  O2  UNL     1      -2.532  11.016  25.283  1.00  0.00    -0.345 OA
ATOM     19  H2  UNL     1      -2.790  11.677  25.915  1.00  0.00     0.219 HD
ENDBRANCH   4  18
TORSDOF 4
ENDMDL