MODEL 2
REMARK VINA RESULT: -6.064387771      4.094      7.626
REMARK  4 active torsions:
REMARK  status: ('A' for Active; 'I' for Inactive)
REMARK    1  A    between atoms: C2_2  and  N1_4
REMARK    2  A    between atoms: N1_4  and  C4_6
REMARK    3  A    between atoms: C4_6  and  N2_8
REMARK    4  A    between atoms: N2_8  and  C5_10
ROOT
HETATM    1  N2  UNL     1       3.071  12.514  24.052  1.00  0.00    -0.331 N
ATOM      2  H2  UNL     1       3.597  11.822  23.516  1.00  0.00     0.168 HD
ENDROOT
BRANCH   1   3
HETATM    3  C4  UNL     1       1.704  12.342  24.044  1.00  0.00     0.172 C
HETATM    4  S1  UNL     1       1.169  10.956  24.838  1.00  0.00    -0.041 SA
BRANCH   3   5
HETATM    5  N1  UNL     1       0.746  13.169  23.465  1.00  0.00    -0.363 N
ATOM      6  H1  UNL     1       0.791  14.173  23.635  1.00  0.00     0.162 HD
BRANCH   5   7
HETATM    7  C2  UNL     1      -0.331  12.639  22.612  1.00  0.00     0.075 C
HETATM    8  C1  UNL     1      -0.203  13.316  21.276  1.00  0.00     0.032 C
HETATM    9  C3  UNL     1      -1.679  12.947  23.192  1.00  0.00     0.032 C
ENDBRANCH   5   7
ENDBRANCH   3   5
ENDBRANCH   1   3
BRANCH   1  10
HETATM   10  C5  UNL     1       3.879  13.529  24.706  1.00  0.00     0.065 A
HETATM   11  C6  UNL     1       3.346  14.643  25.285  1.00  0.00     0.082 A
HETATM   12  S2  UNL     1       4.710  15.543  25.793  1.00  0.00    -0.086 SA
HETATM   13  C7  UNL     1       5.927  14.492  25.260  1.00  0.00     0.098 A
HETATM   14 CL1  UNL     1       7.698  14.671  25.393  1.00  0.00    -0.074 Cl
HETATM   15  C8  UNL     1       5.245  13.455  24.695  1.00  0.00     0.089 A
HETATM   16 CL2  UNL     1       6.167  12.073  23.996  1.00  0.00    -0.080 Cl
ENDBRANCH   1  10
TORSDOF 4
ENDMDL