MODEL 2
REMARK VINA RESULT: -7.112543444      2.318      3.093
REMARK  4 active torsions:
REMARK  status: ('A' for Active; 'I' for Inactive)
REMARK    1  A    between atoms: C4_4  and  N1_5
REMARK    2  A    between atoms: N1_5  and  C5_7
REMARK    3  A    between atoms: C10_12  and  O1_13
REMARK    4  A    between atoms: C11_15  and  C12_16
ROOT
HETATM    1  N1  UNL     1       2.154  11.502  24.911  1.00  0.00    -0.381 N
ATOM      2  H1  UNL     1       1.865  11.499  25.888  1.00  0.00     0.160 HD
ENDROOT
BRANCH   1   3
HETATM    3  C4  UNL     1       3.485  11.846  24.611  1.00  0.00     0.063 A
HETATM    4  C3  UNL     1       4.410  11.017  24.015  1.00  0.00     0.064 A
HETATM    5  C2  UNL     1       5.575  11.741  23.905  1.00  0.00     0.051 A
HETATM    6  C1  UNL     1       6.882  11.335  23.341  1.00  0.00     0.077 C
HETATM    7  O2  UNL     1       5.332  12.916  24.408  1.00  0.00    -0.315 OA
HETATM    8  C11 UNL     1       4.121  13.042  24.840  1.00  0.00     0.112 A
BRANCH   8   9
HETATM    9  C12 UNL     1       3.564  14.269  25.461  1.00  0.00     0.237 C
HETATM   10 CL1  UNL     1       2.123  14.857  24.633  1.00  0.00    -0.101 Cl
HETATM   11 CL2  UNL     1       4.804  15.565  25.394  1.00  0.00    -0.101 Cl
ENDBRANCH   8   9
ENDBRANCH   1   3
BRANCH   1  12
HETATM   12  C5  UNL     1       1.172  11.152  23.905  1.00  0.00     0.110 C
HETATM   13  C6  UNL     1       0.143  12.217  23.687  1.00  0.00     0.028 C
HETATM   14  C7  UNL     1      -1.275  11.667  23.774  1.00  0.00     0.002 C
HETATM   15  C8  UNL     1      -1.519  11.070  25.143  1.00  0.00     0.003 C
HETATM   16  C9  UNL     1      -0.474  10.017  25.409  1.00  0.00     0.034 C
HETATM   17  C10 UNL     1       0.490   9.869  24.251  1.00  0.00     0.140 C
BRANCH  17  18
HETATM   18  O1  UNL     1       1.432   8.902  24.622  1.00  0.00    -0.394 OA
ATOM     19  H1  UNL     1       1.133   8.426  25.387  1.00  0.00     0.210 HD
ENDBRANCH  17  18
ENDBRANCH   1  12
TORSDOF 4
ENDMDL