MODEL 2
REMARK VINA RESULT: -7.656475218      4.525      5.222
REMARK  4 active torsions:
REMARK  status: ('A' for Active; 'I' for Inactive)
REMARK    1  A    between atoms: C4_5  and  N1_6
REMARK    2  A    between atoms: N1_6  and  N2_8
REMARK    3  A    between atoms: C5_10  and  N3_12
REMARK    4  A    between atoms: N4_14  and  C6_16
ROOT
HETATM    1  N2  UNL     1       7.123  11.215  22.931  1.00  0.00    -0.274 N
ATOM      2  H2  UNL     1       7.445  11.839  22.192  1.00  0.00     0.189 HD
HETATM    3  C5  UNL     1       6.658  10.081  22.617  1.00  0.00     0.208 C
HETATM    4 CL1  UNL     1       6.526   9.492  21.002  1.00  0.00    -0.042 Cl
ENDROOT
BRANCH   1   5
HETATM    5  N1  UNL     1       7.208  11.637  24.260  1.00  0.00    -0.299 N
ATOM      6  H1  UNL     1       7.776  11.138  24.944  1.00  0.00     0.187 HD
BRANCH   5   7
HETATM    7  C4  UNL     1       6.471  12.786  24.612  1.00  0.00     0.048 A
HETATM    8  C3  UNL     1       5.116  12.857  24.543  1.00  0.00     0.034 A
HETATM    9  C2  UNL     1       4.418  13.960  24.919  1.00  0.00     0.044 A
HETATM   10  C1  UNL     1       5.116  15.060  25.391  1.00  0.00     0.116 A
HETATM   11  F1  UNL     1       4.455  16.158  25.776  1.00  0.00    -0.206 F
HETATM   12  C12 UNL     1       6.505  14.986  25.459  1.00  0.00     0.044 A
HETATM   13  C11 UNL     1       7.206  13.890  25.087  1.00  0.00     0.034 A
ENDBRANCH   5   7
ENDBRANCH   1   5
BRANCH   3  14
HETATM   14  N3  UNL     1       6.253   9.276  23.745  1.00  0.00    -0.279 N
HETATM   15  N4  UNL     1       5.157   8.877  23.984  1.00  0.00    -0.329 N
ATOM     16  H4  UNL     1       5.085   8.324  24.837  1.00  0.00     0.180 HD
ATOM     17  H3  UNL     1       6.985   9.023  24.409  1.00  0.00     0.189 HD
BRANCH  15  18
HETATM   18  C6  UNL     1       3.936   9.040  23.285  1.00  0.00     0.099 C
HETATM   19  C7  UNL     1       3.283   7.672  23.132  1.00  0.00     0.026 C
HETATM   20  C8  UNL     1       2.062   7.649  23.962  1.00  0.00     0.002 C
HETATM   21  C9  UNL     1       1.880   9.029  24.480  1.00  0.00     0.002 C
HETATM   22  C10 UNL     1       2.971   9.915  24.040  1.00  0.00     0.026 C
ENDBRANCH  15  18
ENDBRANCH   3  14
TORSDOF 4
ENDMDL