MODEL 1
REMARK VINA RESULT: -8.862659173      0.000      0.000
REMARK  2 active torsions:
REMARK  status: ('A' for Active; 'I' for Inactive)
REMARK    1  A    between atoms: C4_4  and  C5_5
REMARK    2  A    between atoms: C11_15  and  N2_16
ROOT
HETATM    1  C1  UNL     1       2.046  12.184  23.665  1.00  0.00     0.050 C
HETATM    2  C2  UNL     1       3.458  12.293  24.061  1.00  0.00    -0.032 A
HETATM    3  C3  UNL     1       3.930  13.457  24.688  1.00  0.00     0.022 A
HETATM    4  C4  UNL     1       5.261  13.559  25.002  1.00  0.00     0.017 A
HETATM    5  C7  UNL     1       6.149  12.527  24.709  1.00  0.00     0.156 A
HETATM    6  F2  UNL     1       7.449  12.706  25.038  1.00  0.00    -0.203 F
HETATM    7  C8  UNL     1       5.678  11.421  24.115  1.00  0.00     0.125 A
HETATM    8  C9  UNL     1       4.328  11.262  23.771  1.00  0.00     0.072 A
HETATM    9  N1  UNL     1       4.196  10.032  23.249  1.00  0.00    -0.337 N
ATOM     10  H1  UNL     1       3.325   9.631  22.902  1.00  0.00     0.167 HD
HETATM   11  C10 UNL     1       5.395   9.405  23.252  1.00  0.00     0.158 A
HETATM   12  C11 UNL     1       6.070   8.239  22.974  1.00  0.00     0.110 A
HETATM   13  C12 UNL     1       7.370   8.447  23.355  1.00  0.00     0.142 A
HETATM   14  N4  UNL     1       7.500   9.712  23.854  1.00  0.00    -0.301 N
ATOM     15  H4  UNL     1       8.354  10.144  24.208  1.00  0.00     0.186 HD
HETATM   16  N5  UNL     1       6.306  10.266  23.787  1.00  0.00    -0.233 N
ENDROOT
BRANCH  12  17
HETATM   17  N2  UNL     1       5.496   7.025  22.398  1.00  0.00    -0.302 N
HETATM   18  N3  UNL     1       4.642   7.052  21.494  1.00  0.00    -0.345 N
ATOM     19  H32 UNL     1       4.341   7.965  21.154  1.00  0.00     0.176 HD
ATOM     20  H31 UNL     1       4.241   6.205  21.091  1.00  0.00     0.176 HD
ATOM     21  H2  UNL     1       5.808   6.120  22.750  1.00  0.00     0.186 HD
ENDBRANCH  12  17
BRANCH   4  22
HETATM   22  C5  UNL     1       5.785  14.797  25.553  1.00  0.00     0.202 C
HETATM   23  C6  UNL     1       4.778  15.908  25.714  1.00  0.00     0.050 C
HETATM   24  F1  UNL     1       6.659  15.298  24.496  1.00  0.00    -0.245 F
ENDBRANCH   4  22
TORSDOF 2
ENDMDL