MODEL 5
REMARK VINA RESULT: -7.985599880      1.954      2.903
REMARK  4 active torsions:
REMARK  status: ('A' for Active; 'I' for Inactive)
REMARK    1  A    between atoms: O1_1  and  C1_3
REMARK    2  A    between atoms: C2_6  and  C3_7
REMARK    3  A    between atoms: C6_13  and  C7_14
REMARK    4  A    between atoms: C7_14  and  C8_15
ROOT
HETATM    1  C1  UNL     1       5.047  14.262  25.075  1.00  0.00     0.154 A
HETATM    2  N1  UNL     1       6.131  14.924  25.517  1.00  0.00    -0.333 N
ATOM      3  H1  UNL     1       6.135  15.847  25.953  1.00  0.00     0.168 HD
HETATM    4  C2  UNL     1       7.215  14.153  25.283  1.00  0.00     0.111 A
HETATM    5  C4  UNL     1       6.786  12.984  24.681  1.00  0.00     0.118 A
HETATM    6  O2  UNL     1       7.190  11.856  24.198  1.00  0.00    -0.319 OA
HETATM    7  C5  UNL     1       6.186  11.147  23.745  1.00  0.00     0.150 A
HETATM    8  C6  UNL     1       5.025  11.852  23.938  1.00  0.00    -0.018 A
HETATM    9  C14 UNL     1       5.428  13.039  24.545  1.00  0.00     0.059 A
ENDROOT
BRANCH   8  10
HETATM   10  C7  UNL     1       3.622  11.576  23.640  1.00  0.00     0.046 C
BRANCH  10  11
HETATM   11  C8  UNL     1       2.713  11.396  24.786  1.00  0.00    -0.010 C
HETATM   12  C9  UNL     1       1.314  11.871  24.605  1.00  0.00     0.005 C
HETATM   13  C10 UNL     1       0.326  10.820  25.136  1.00  0.00     0.000 C
HETATM   14  C11 UNL     1       0.374   9.595  24.288  1.00  0.00     0.000 C
HETATM   15  C12 UNL     1       1.814   9.140  24.138  1.00  0.00     0.000 C
HETATM   16  C13 UNL     1       2.677   9.894  25.099  1.00  0.00     0.005 C
ENDBRANCH  10  11
ENDBRANCH   8  10
BRANCH   1  17
HETATM   17  O1  UNL     1       3.710  14.681  25.113  1.00  0.00    -0.345 OA
ATOM     18  H1  UNL     1       3.317  15.417  24.658  1.00  0.00     0.219 HD
ENDBRANCH   1  17
BRANCH   4  19
HETATM   19  C3  UNL     1       8.584  14.571  25.643  1.00  0.00     0.406 C
HETATM   20  F1  UNL     1       9.163  15.112  24.511  1.00  0.00    -0.207 F
HETATM   21  F2  UNL     1       9.349  13.439  25.956  1.00  0.00    -0.207 F
ENDBRANCH   4  19
TORSDOF 4
ENDMDL