MODEL 2
REMARK VINA RESULT: -8.078174561      0.141      1.292
REMARK  4 active torsions:
REMARK  status: ('A' for Active; 'I' for Inactive)
REMARK    1  A    between atoms: C2_2  and  C5_5
REMARK       I    between atoms: C5_5  and  N1_7
REMARK    2  A    between atoms: C8_10  and  C9_12
REMARK    3  A    between atoms: N2_13  and  C10_15
REMARK    4  A    between atoms: C16_25  and  C17_26
ROOT
HETATM    1  C17 UNL     1     -13.972  34.308   6.266  1.00  0.00     0.139 C
HETATM    2  C18 UNL     1     -15.261  33.825   5.884  1.00  0.00     0.112 C
HETATM    3  N5  UNL     1     -16.306  33.412   5.522  1.00  0.00    -0.191 NA
HETATM    4  C19 UNL     1     -12.934  33.789   5.339  1.00  0.00     0.112 C
HETATM    5  N6  UNL     1     -12.138  33.352   4.589  1.00  0.00    -0.191 NA
ENDROOT
BRANCH   1   6
HETATM    6  C16 UNL     1     -13.708  35.064   7.277  1.00  0.00     0.046 C
HETATM    7  C10 UNL     1     -12.711  36.115   7.498  1.00  0.00     0.024 C
HETATM    8  C11 UNL     1     -13.374  37.278   8.216  1.00  0.00     0.063 C
HETATM    9  C12 UNL     1     -13.836  36.845   9.619  1.00  0.00     0.048 C
HETATM   10  C13 UNL     1     -14.564  35.587   9.562  1.00  0.00    -0.012 A
HETATM   11  C14 UNL     1     -15.393  34.987  10.497  1.00  0.00     0.116 A
HETATM   12  C15 UNL     1     -14.533  34.749   8.493  1.00  0.00     0.070 A
HETATM   13  N3  UNL     1     -15.847  33.823  10.005  1.00  0.00    -0.311 N
HETATM   14  N4  UNL     1     -15.333  33.680   8.802  1.00  0.00    -0.300 N
ATOM     15  H3  UNL     1     -16.475  33.171  10.476  1.00  0.00     0.186 HD
ATOM     16  H4  UNL     1     -15.505  32.885   8.186  1.00  0.00     0.187 HD
BRANCH   7  17
HETATM   17  N2  UNL     1     -11.617  36.363   6.734  1.00  0.00    -0.369 N
HETATM   18  C9  UNL     1     -10.490  37.117   6.816  1.00  0.00     0.104 C
ATOM     19  H2  UNL     1     -11.650  35.841   5.859  1.00  0.00     0.165 HD
BRANCH  18  20
HETATM   20  C8  UNL     1      -9.389  36.776   7.803  1.00  0.00     0.138 C
HETATM   21  C7  UNL     1     -10.028  36.183   9.080  1.00  0.00     0.069 C
HETATM   22  C6  UNL     1      -8.883  35.903  10.028  1.00  0.00     0.129 C
HETATM   23  N1  UNL     1      -8.396  37.194  10.548  1.00  0.00    -0.351 N
HETATM   24  C5  UNL     1      -7.848  37.237  11.842  1.00  0.00     0.227 C
HETATM   25  C21 UNL     1      -8.558  38.298   9.644  1.00  0.00     0.129 C
HETATM   26  O1  UNL     1      -7.839  36.140  12.506  1.00  0.00    -0.273 OA
HETATM   27  C20 UNL     1      -8.523  37.891   8.201  1.00  0.00     0.069 C
HETATM   28  F1  UNL     1      -8.693  35.672   7.298  1.00  0.00    -0.237 F
BRANCH  24  29
HETATM   29  C2  UNL     1      -7.282  38.406  12.509  1.00  0.00     0.030 C
HETATM   30  C1  UNL     1      -5.924  38.772  11.894  1.00  0.00     0.025 C
HETATM   31  C3  UNL     1      -7.025  38.095  13.963  1.00  0.00     0.025 C
HETATM   32  C4  UNL     1      -8.206  39.608  12.475  1.00  0.00     0.025 C
ENDBRANCH  24  29
ENDBRANCH  18  20
ENDBRANCH   7  17
ENDBRANCH   1   6
TORSDOF 4
ENDMDL