MODEL 3
REMARK VINA RESULT: -6.806647461      3.105      8.925
REMARK  4 active torsions:
REMARK  status: ('A' for Active; 'I' for Inactive)
REMARK    1  A    between atoms: C4_7  and  C5_8
REMARK       I    between atoms: C5_8  and  N2_10
REMARK    2  A    between atoms: N2_10  and  C6_12
REMARK    3  A    between atoms: C9_15  and  C10_16
REMARK    4  A    between atoms: C14_21  and  O3_22
ROOT
HETATM    1  C6  UNL     1     -15.482  34.592   8.054  1.00  0.00     0.084 C
HETATM    2  C7  UNL     1     -14.455  34.428   6.950  1.00  0.00     0.025 C
HETATM    3  C8  UNL     1     -13.134  35.003   7.443  1.00  0.00     0.007 C
HETATM    4  C9  UNL     1     -13.212  36.540   7.405  1.00  0.00    -0.008 C
HETATM    5  C21 UNL     1     -14.448  36.891   8.207  1.00  0.00     0.007 C
HETATM    6  C22 UNL     1     -15.032  35.706   8.944  1.00  0.00     0.025 C
ENDROOT
BRANCH   4   7
HETATM    7  C10 UNL     1     -11.960  37.077   7.969  1.00  0.00     0.029 C
HETATM    8  C11 UNL     1     -12.102  38.476   8.546  1.00  0.00     0.283 C
HETATM    9  N3  UNL     1     -10.729  38.795   8.686  1.00  0.00     0.136 N
HETATM   10  C12 UNL     1     -10.286  38.526   7.299  1.00  0.00     0.238 C
HETATM   11  C15 UNL     1     -10.373  40.171   8.759  1.00  0.00     0.321 C
HETATM   12  C13 UNL     1      -8.847  38.774   7.472  1.00  0.00     0.074 C
HETATM   13  C17 UNL     1     -10.770  37.151   7.094  1.00  0.00    -0.004 C
HETATM   14  C14 UNL     1      -8.913  40.093   8.275  1.00  0.00     0.191 C
HETATM   15  C18 UNL     1     -10.919  36.862   5.636  1.00  0.00     0.012 C
HETATM   16  C20 UNL     1      -9.797  36.013   7.185  1.00  0.00     0.012 C
HETATM   17  C19 UNL     1      -9.543  36.179   5.695  1.00  0.00     0.002 C
HETATM   18  C16 UNL     1     -10.478  40.734  10.135  1.00  0.00     0.090 C
HETATM   19  F1  UNL     1     -11.024  40.950   7.810  1.00  0.00    -0.206 F
BRANCH  14  20
HETATM   20  O3  UNL     1      -8.092  40.064   9.379  1.00  0.00    -0.390 OA
ATOM     21  H3  UNL     1      -8.551  40.323  10.170  1.00  0.00     0.210 HD
ENDBRANCH  14  20
ENDBRANCH   4   7
BRANCH   1  22
HETATM   22  N2  UNL     1     -15.529  33.387   8.892  1.00  0.00    -0.351 N
HETATM   23  C5  UNL     1     -16.512  32.422   8.709  1.00  0.00     0.271 C
HETATM   24  O2  UNL     1     -17.358  32.660   7.769  1.00  0.00    -0.266 OA
ATOM     25  H2  UNL     1     -14.827  33.256   9.620  1.00  0.00     0.163 HD
BRANCH  23  26
HETATM   26  C4  UNL     1     -16.706  31.186   9.437  1.00  0.00     0.131 A
HETATM   27  C2  UNL     1     -16.426  30.919  10.751  1.00  0.00     0.082 A
HETATM   28  C1  UNL     1     -15.858  31.782  11.789  1.00  0.00     0.079 C
HETATM   29  O1  UNL     1     -16.770  29.650  10.983  1.00  0.00    -0.308 OA
HETATM   30  C3  UNL     1     -17.248  29.105   9.898  1.00  0.00     0.234 A
HETATM   31  N1  UNL     1     -17.221  30.028   8.928  1.00  0.00    -0.340 N
ATOM     32  H1  UNL     1     -17.534  29.890   7.967  1.00  0.00     0.167 HD
ENDBRANCH  23  26
ENDBRANCH   1  22
TORSDOF 4
ENDMDL