MODEL 5
REMARK VINA RESULT: -3.837089052      3.858      6.794
REMARK  4 active torsions:
REMARK  status: ('A' for Active; 'I' for Inactive)
REMARK    1  A    between atoms: C2_2  and  C3_3
REMARK    2  A    between atoms: C8_11  and  C9_12
REMARK    3  A    between atoms: C13_18  and  O3_19
REMARK    4  A    between atoms: N2_23  and  O4_25
ROOT
HETATM    1  C3  UNL     1     -16.076  33.063   5.799  1.00  0.00     0.019 C
HETATM    2  N1  UNL     1     -15.762  32.173   4.937  1.00  0.00    -0.382 N
ATOM      3  H1  UNL     1     -16.426  31.522   4.519  1.00  0.00     0.160 HD
HETATM    4  C4  UNL     1     -14.358  32.201   4.626  1.00  0.00     0.045 C
HETATM    5  C5  UNL     1     -13.752  32.916   5.794  1.00  0.00     0.054 C
HETATM    6  C6  UNL     1     -14.878  33.844   6.202  1.00  0.00     0.109 C
HETATM    7 BR1  UNL     1     -14.877  34.213   8.087  1.00  0.00    -0.085 Br
HETATM    8  C7  UNL     1     -14.154  33.000   3.385  1.00  0.00     0.048 C
HETATM    9  C8  UNL     1     -13.182  32.253   2.523  1.00  0.00     0.098 C
HETATM   10  C10 UNL     1     -12.892  30.920   3.194  1.00  0.00    -0.013 C
HETATM   11  C11 UNL     1     -13.164  29.817   2.187  1.00  0.00     0.017 C
HETATM   12  C12 UNL     1     -11.424  30.897   3.478  1.00  0.00     0.043 C
HETATM   13  C13 UNL     1     -10.970  29.989   4.555  1.00  0.00     0.124 C
HETATM   14  C14 UNL     1     -11.661  30.364   5.844  1.00  0.00     0.087 C
HETATM   15  C15 UNL     1     -13.122  30.290   5.603  1.00  0.00     0.024 C
HETATM   16  N2  UNL     1     -13.836  29.720   6.516  1.00  0.00    -0.275 N
ATOM     17  H2  UNL     1     -14.844  29.658   6.372  1.00  0.00     0.193 HD
HETATM   18  C17 UNL     1     -13.772  30.829   4.390  1.00  0.00     0.030 C
HETATM   19  C18 UNL     1     -14.959  29.913   4.109  1.00  0.00     0.025 C
ENDROOT
BRANCH   1  20
HETATM   20  C2  UNL     1     -17.438  33.261   6.298  1.00  0.00     0.015 C
HETATM   21  C1  UNL     1     -18.049  32.336   7.020  1.00  0.00     0.013 C
ENDBRANCH   1  20
BRANCH   9  22
HETATM   22  C9  UNL     1     -13.700  32.133   1.154  1.00  0.00     0.177 C
HETATM   23  O1  UNL     1     -12.924  32.158   0.140  1.00  0.00    -0.648 OA
HETATM   24  O2  UNL     1     -15.047  31.982   0.839  1.00  0.00    -0.648 OA
ENDBRANCH   9  22
BRANCH  16  25
HETATM   25  O4  UNL     1     -13.315  29.197   7.663  1.00  0.00    -0.285 OA
HETATM   26  C16 UNL     1     -14.150  28.802   8.736  1.00  0.00     0.237 C
ENDBRANCH  16  25
BRANCH  13  27
HETATM   27  O3  UNL     1     -11.016  28.646   4.284  1.00  0.00    -0.395 OA
ATOM     28  H3  UNL     1     -11.369  28.087   4.966  1.00  0.00     0.210 HD
ENDBRANCH  13  27
TORSDOF 4
ENDMDL