MODEL 4
REMARK VINA RESULT: -6.088940271      3.775      8.469
REMARK  6 active torsions:
REMARK  status: ('A' for Active; 'I' for Inactive)
REMARK    1  A    between atoms: N1_4  and  C4_5
REMARK    2  A    between atoms: C8_9  and  N2_10
REMARK    3  A    between atoms: N2_10  and  C9_12
REMARK    4  A    between atoms: C12_20  and  N5_21
REMARK    5  A    between atoms: C15_24  and  O1_25
REMARK    6  A    between atoms: C15_24  and  C16_27
ROOT
HETATM    1  C9  UNL     1     -14.472  34.853   7.283  1.00  0.00     0.132 A
HETATM    2  N3  UNL     1     -15.815  34.774   7.184  1.00  0.00    -0.337 N
ATOM      3  H3  UNL     1     -16.235  33.902   6.861  1.00  0.00     0.168 HD
HETATM    4  C10 UNL     1     -16.620  35.809   7.497  1.00  0.00     0.183 A
HETATM    5  N4  UNL     1     -16.124  36.983   7.925  1.00  0.00    -0.341 N
ATOM      6  H4  UNL     1     -16.735  37.765   8.161  1.00  0.00     0.167 HD
HETATM    7  C11 UNL     1     -14.781  37.081   8.029  1.00  0.00     0.135 A
HETATM    8 CL1  UNL     1     -14.088  38.594   8.585  1.00  0.00    -0.062 Cl
HETATM    9  C12 UNL     1     -13.922  36.050   7.721  1.00  0.00     0.113 A
ENDROOT
BRANCH   9  10
HETATM   10  N5  UNL     1     -12.524  36.239   7.860  1.00  0.00    -0.375 N
HETATM   11  C13 UNL     1     -11.919  35.940   9.142  1.00  0.00     0.126 C
HETATM   12  C14 UNL     1     -10.964  37.046   9.570  1.00  0.00     0.058 C
HETATM   13  C15 UNL     1      -9.935  37.170   8.471  1.00  0.00     0.067 C
HETATM   14  C20 UNL     1     -10.629  37.685   7.238  1.00  0.00     0.058 C
HETATM   15  C21 UNL     1     -11.701  36.712   6.782  1.00  0.00     0.126 C
BRANCH  13  16
HETATM   16  O1  UNL     1      -9.386  35.902   8.286  1.00  0.00    -0.389 OA
ATOM     17  H1  UNL     1     -10.113  35.300   8.178  1.00  0.00     0.210 HD
ENDBRANCH  13  16
BRANCH  13  18
HETATM   18  C16 UNL     1      -8.804  38.093   8.847  1.00  0.00    -0.020 C
HETATM   19  C17 UNL     1      -7.836  38.187   7.686  1.00  0.00     0.017 C
HETATM   20  C18 UNL     1      -8.119  37.686  10.121  1.00  0.00     0.017 C
HETATM   21  C19 UNL     1      -9.406  39.474   9.060  1.00  0.00     0.017 C
ENDBRANCH  13  18
ENDBRANCH   9  10
BRANCH   1  22
HETATM   22  N2  UNL     1     -13.691  33.896   6.995  1.00  0.00    -0.368 N
ATOM     23  H2  UNL     1     -13.036  33.610   7.723  1.00  0.00     0.161 HD
BRANCH  22  24
HETATM   24  C8  UNL     1     -13.629  33.176   5.770  1.00  0.00     0.117 C
HETATM   25  C2  UNL     1     -12.371  33.435   4.971  1.00  0.00     0.034 C
HETATM   26  C1  UNL     1     -12.592  34.412   3.858  1.00  0.00     0.014 C
HETATM   27  C3  UNL     1     -12.155  32.055   4.337  1.00  0.00     0.279 C
HETATM   28  N1  UNL     1     -12.515  31.188   5.414  1.00  0.00     0.094 N
HETATM   29  C7  UNL     1     -13.758  31.691   5.905  1.00  0.00     0.298 C
BRANCH  28  30
HETATM   30  C4  UNL     1     -12.543  29.804   5.045  1.00  0.00     0.215 C
HETATM   31  C5  UNL     1     -11.160  29.242   4.961  1.00  0.00     0.042 C
HETATM   32  C6  UNL     1     -13.412  28.948   5.905  1.00  0.00     0.042 C
ENDBRANCH  28  30
ENDBRANCH  22  24
ENDBRANCH   1  22
TORSDOF 6
ENDMDL