MODEL 3
REMARK VINA RESULT: -6.921301924      2.284      3.454
REMARK  6 active torsions:
REMARK  status: ('A' for Active; 'I' for Inactive)
REMARK    1  A    between atoms: N2_9  and  C6_10
REMARK    2  A    between atoms: C6_10  and  O2_12
REMARK    3  A    between atoms: O2_12  and  C7_13
REMARK    4  A    between atoms: C7_13  and  C8_14
REMARK    5  A    between atoms: C18_24  and  C19_25
REMARK    6  A    between atoms: C19_25  and  O3_26
ROOT
HETATM    1  O1  UNL     1     -15.296  32.175  11.702  1.00  0.00    -0.238 OA
HETATM    2  C1  UNL     1     -15.943  32.466  10.641  1.00  0.00     0.361 C
HETATM    3  N1  UNL     1     -16.361  31.521   9.656  1.00  0.00    -0.334 N
ATOM      4  H1  UNL     1     -16.353  30.506   9.751  1.00  0.00     0.164 HD
HETATM    5  C2  UNL     1     -16.806  32.285   8.474  1.00  0.00     0.166 C
HETATM    6  C3  UNL     1     -16.327  33.642   8.781  1.00  0.00     0.112 C
HETATM    7  C4  UNL     1     -17.116  34.778   8.171  1.00  0.00     0.062 C
HETATM    8  C5  UNL     1     -16.152  35.958   8.376  1.00  0.00     0.129 C
HETATM    9  N2  UNL     1     -14.919  35.410   8.870  1.00  0.00    -0.343 N
HETATM   10  C18 UNL     1     -14.934  34.001   8.380  1.00  0.00     0.147 C
HETATM   11  O4  UNL     1     -16.373  33.717  10.215  1.00  0.00    -0.289 OA
ENDROOT
BRANCH   9  12
HETATM   12  C6  UNL     1     -13.867  35.949   9.631  1.00  0.00     0.212 C
HETATM   13  S1  UNL     1     -13.455  35.230  11.069  1.00  0.00    -0.033 SA
BRANCH  12  14
HETATM   14  O2  UNL     1     -13.108  37.051   9.310  1.00  0.00    -0.326 OA
BRANCH  14  15
HETATM   15  C7  UNL     1     -12.649  37.435   8.055  1.00  0.00     0.187 C
BRANCH  15  16
HETATM   16  C8  UNL     1     -11.146  37.637   8.020  1.00  0.00    -0.017 C
HETATM   17  C9  UNL     1     -10.538  36.598   8.937  1.00  0.00     0.016 C
HETATM   18  C10 UNL     1      -9.023  36.664   8.857  1.00  0.00    -0.013 C
HETATM   19  C11 UNL     1      -8.649  36.389   7.418  1.00  0.00     0.009 C
HETATM   20  C15 UNL     1      -8.596  38.036   9.280  1.00  0.00     0.009 C
HETATM   21  C12 UNL     1      -9.191  37.478   6.546  1.00  0.00    -0.013 C
HETATM   22  C13 UNL     1      -8.752  38.841   6.988  1.00  0.00     0.009 C
HETATM   23  C17 UNL     1     -10.700  37.422   6.581  1.00  0.00     0.016 C
HETATM   24  C14 UNL     1      -9.237  39.094   8.409  1.00  0.00    -0.013 C
HETATM   25  C16 UNL     1     -10.738  38.994   8.502  1.00  0.00     0.016 C
ENDBRANCH  15  16
ENDBRANCH  14  15
ENDBRANCH  12  14
ENDBRANCH   9  12
BRANCH  10  26
HETATM   26  C19 UNL     1     -14.692  34.060   6.901  1.00  0.00     0.192 C
BRANCH  26  27
HETATM   27  O3  UNL     1     -13.362  34.287   6.594  1.00  0.00    -0.399 OA
ATOM     28  H3  UNL     1     -13.097  35.182   6.773  1.00  0.00     0.209 HD
ENDBRANCH  26  27
ENDBRANCH  10  26
TORSDOF 6
ENDMDL