MODEL 3
REMARK VINA RESULT: -7.760307790      1.884      2.383
REMARK  3 active torsions:
REMARK  status: ('A' for Active; 'I' for Inactive)
REMARK       I    between atoms: N1_2  and  C2_4
REMARK       I    between atoms: C2_4  and  N2_6
REMARK    1  A    between atoms: N2_6  and  C3_8
REMARK    2  A    between atoms: N3_11  and  C6_12
REMARK    3  A    between atoms: C8_18  and  C9_19
ROOT
HETATM    1  C6  UNL     1     -12.218  36.510   8.741  1.00  0.00     0.145 A
HETATM    2  N4  UNL     1     -11.870  37.484   7.867  1.00  0.00    -0.336 N
ATOM      3  H4  UNL     1     -12.562  37.855   7.217  1.00  0.00     0.168 HD
HETATM    4  C7  UNL     1     -10.619  37.959   7.855  1.00  0.00     0.182 A
HETATM    5  N5  UNL     1      -9.686  37.485   8.703  1.00  0.00    -0.351 N
ATOM      6  H5  UNL     1      -8.743  37.870   8.667  1.00  0.00     0.166 HD
HETATM    7  C8  UNL     1      -9.966  36.511   9.601  1.00  0.00     0.082 A
HETATM    8  C19 UNL     1     -11.269  36.037   9.592  1.00  0.00     0.185 A
HETATM    9  F1  UNL     1     -11.605  35.059  10.470  1.00  0.00    -0.200 F
ENDROOT
BRANCH   1  10
HETATM   10  N3  UNL     1     -13.556  36.079   8.682  1.00  0.00    -0.365 N
HETATM   11  C5  UNL     1     -14.000  35.288   7.568  1.00  0.00     0.126 C
HETATM   12  C4  UNL     1     -15.434  34.851   7.697  1.00  0.00     0.045 C
HETATM   13  C3  UNL     1     -15.888  34.528   9.076  1.00  0.00     0.089 C
HETATM   14  C21 UNL     1     -15.107  35.130  10.191  1.00  0.00     0.045 C
HETATM   15  C20 UNL     1     -14.470  36.431   9.740  1.00  0.00     0.126 C
BRANCH  13  16
HETATM   16  N2  UNL     1     -16.033  33.095   9.296  1.00  0.00    -0.338 N
HETATM   17  C2  UNL     1     -16.979  32.286   8.610  1.00  0.00     0.316 C
HETATM   18  N1  UNL     1     -17.052  30.901   8.885  1.00  0.00    -0.347 N
HETATM   19  O1  UNL     1     -17.770  32.754   7.753  1.00  0.00    -0.247 OA
HETATM   20  C1  UNL     1     -18.011  30.073   8.191  1.00  0.00     0.151 C
ATOM     21  H1  UNL     1     -16.426  30.485   9.574  1.00  0.00     0.163 HD
ATOM     22  H2  UNL     1     -15.422  32.648   9.980  1.00  0.00     0.164 HD
ENDBRANCH  13  16
ENDBRANCH   1  10
BRANCH   7  23
HETATM   23  C9  UNL     1      -8.949  35.973  10.548  1.00  0.00     0.174 C
HETATM   24  C10 UNL     1      -7.768  36.882  10.547  1.00  0.00     0.043 C
HETATM   25  C11 UNL     1      -7.052  36.965  11.865  1.00  0.00    -0.005 C
HETATM   26  C12 UNL     1      -6.214  38.223  11.857  1.00  0.00     0.014 C
HETATM   27  C17 UNL     1      -7.960  37.053  13.049  1.00  0.00     0.014 C
HETATM   28  C13 UNL     1      -6.715  39.108  12.951  1.00  0.00    -0.047 C
HETATM   29  C14 UNL     1      -5.577  39.275  13.955  1.00  0.00     0.015 C
HETATM   30  C15 UNL     1      -7.138  40.472  12.454  1.00  0.00     0.015 C
HETATM   31  C16 UNL     1      -7.913  38.452  13.575  1.00  0.00     0.015 C
HETATM   32  C18 UNL     1      -9.382  36.720  12.689  1.00  0.00     0.173 C
HETATM   33  O2  UNL     1      -9.467  35.676  11.777  1.00  0.00    -0.379 OA
ENDBRANCH   7  23
TORSDOF 3
ENDMDL