MODEL 3
REMARK VINA RESULT: -6.961109573      4.261      9.119
REMARK  6 active torsions:
REMARK  status: ('A' for Active; 'I' for Inactive)
REMARK    1  A    between atoms: C3_6  and  C4_7
REMARK       I    between atoms: C4_7  and  N2_9
REMARK    2  A    between atoms: C9_14  and  O2_15
REMARK    3  A    between atoms: O2_15  and  C10_16
REMARK    4  A    between atoms: C10_16  and  S1_18
REMARK    5  A    between atoms: S1_18  and  C11_19
REMARK    6  A    between atoms: C18_26  and  C19_27
ROOT
HETATM    1  C4  UNL     1     -13.215  36.972   8.300  1.00  0.00     0.251 C
HETATM    2  O1  UNL     1     -13.696  37.700   9.201  1.00  0.00    -0.271 OA
HETATM    3  N2  UNL     1     -11.857  37.102   7.977  1.00  0.00    -0.338 N
HETATM    4  C5  UNL     1     -10.941  36.324   7.159  1.00  0.00     0.090 C
HETATM    5  C6  UNL     1     -10.301  37.330   6.264  1.00  0.00     0.028 C
HETATM    6  C7  UNL     1     -10.327  38.588   7.108  1.00  0.00     0.030 C
HETATM    7  C8  UNL     1     -10.965  38.151   8.393  1.00  0.00     0.117 C
HETATM    8  C9  UNL     1      -9.879  37.282   9.093  1.00  0.00     0.157 C
HETATM    9  C15 UNL     1      -9.903  36.041   8.267  1.00  0.00     0.060 C
ENDROOT
BRANCH   1  10
HETATM   10  C3  UNL     1     -14.126  36.006   7.638  1.00  0.00     0.277 C
HETATM   11  N1  UNL     1     -14.044  34.684   8.234  1.00  0.00    -0.058 N
HETATM   12  C2  UNL     1     -14.771  33.781   7.366  1.00  0.00     0.195 C
ATOM     13  H12 UNL     1     -14.369  34.660   9.201  1.00  0.00     0.278 HD
ATOM     14  H11 UNL     1     -13.085  34.384   8.411  1.00  0.00     0.278 HD
HETATM   15  C1  UNL     1     -14.052  33.678   6.043  1.00  0.00     0.041 C
HETATM   16  C18 UNL     1     -16.201  34.191   7.207  1.00  0.00     0.105 C
HETATM   17  C17 UNL     1     -16.563  35.389   8.012  1.00  0.00     0.018 C
HETATM   18  C16 UNL     1     -15.523  36.442   8.165  1.00  0.00     0.043 C
BRANCH  16  19
HETATM   19  C19 UNL     1     -17.053  33.065   7.646  1.00  0.00     0.237 C
HETATM   20  N3  UNL     1     -16.624  31.972   8.442  1.00  0.00    -0.062 NA
HETATM   21  O4  UNL     1     -18.252  33.068   7.282  1.00  0.00    -0.276 OA
ENDBRANCH  16  19
ENDBRANCH   1  10
BRANCH   8  22
HETATM   22  O2  UNL     1      -8.691  38.005   9.020  1.00  0.00    -0.305 OA
BRANCH  22  23
HETATM   23  C10 UNL     1      -8.312  38.784  10.142  1.00  0.00     0.323 C
HETATM   24  O3  UNL     1      -8.767  39.961  10.212  1.00  0.00    -0.252 OA
BRANCH  23  25
HETATM   25  S1  UNL     1      -7.226  38.133  11.365  1.00  0.00    -0.053 SA
BRANCH  25  26
HETATM   26  C11 UNL     1      -7.958  36.947  12.467  1.00  0.00     0.007 C
HETATM   27  C12 UNL     1      -8.441  37.590  13.759  1.00  0.00     0.026 C
HETATM   28  C13 UNL     1      -6.783  36.053  12.966  1.00  0.00     0.026 C
HETATM   29  C14 UNL     1      -8.972  36.035  11.914  1.00  0.00     0.026 C
ENDBRANCH  25  26
ENDBRANCH  23  25
ENDBRANCH  22  23
ENDBRANCH   8  22
TORSDOF 6
ENDMDL