MODEL 5
REMARK VINA RESULT: -5.357153492      3.254      6.559
REMARK  5 active torsions:
REMARK  status: ('A' for Active; 'I' for Inactive)
REMARK    1  A    between atoms: C5_9  and  C6_10
REMARK    2  A    between atoms: C9_14  and  N4_15
REMARK       I    between atoms: N4_15  and  C10_17
REMARK    3  A    between atoms: C10_17  and  O2_19
REMARK    4  A    between atoms: O2_19  and  C11_20
REMARK    5  A    between atoms: C17_26  and  C19_28
ROOT
HETATM    1  C6  UNL     1     -11.631  36.617   9.507  1.00  0.00     0.096 C
HETATM    2  N3  UNL     1     -10.613  36.808   8.646  1.00  0.00    -0.381 N
HETATM    3  C7  UNL     1      -9.686  35.896   8.191  1.00  0.00     0.086 C
HETATM    4  C8  UNL     1      -9.452  36.045   6.703  1.00  0.00     0.050 C
HETATM    5  C9  UNL     1     -10.359  37.171   6.189  1.00  0.00     0.090 C
HETATM    6  C15 UNL     1     -10.007  38.406   6.971  1.00  0.00     0.051 C
HETATM    7  C16 UNL     1     -10.060  38.108   8.450  1.00  0.00     0.095 C
HETATM    8  C17 UNL     1      -8.679  37.940   8.999  1.00  0.00    -0.009 C
HETATM    9  C18 UNL     1      -7.655  38.799   8.293  1.00  0.00     0.018 C
HETATM   10  C20 UNL     1      -8.402  36.472   8.839  1.00  0.00     0.037 C
ENDROOT
BRANCH   1  11
HETATM   11  C5  UNL     1     -12.785  35.798   9.089  1.00  0.00     0.286 C
HETATM   12  N1  UNL     1     -13.376  36.276   7.845  1.00  0.00     0.097 N
HETATM   13  C1  UNL     1     -13.506  35.281   6.834  1.00  0.00     0.310 C
HETATM   14  C2  UNL     1     -14.630  36.909   8.080  1.00  0.00     0.300 C
HETATM   15  C3  UNL     1     -15.664  35.950   8.644  1.00  0.00     0.262 C
HETATM   16  N2  UNL     1     -15.038  35.046   9.592  1.00  0.00    -0.071 N
HETATM   17  C4  UNL     1     -13.834  35.668  10.157  1.00  0.00     0.273 C
ATOM     18  H22 UNL     1     -15.688  34.742  10.317  1.00  0.00     0.277 HD
ATOM     19  H21 UNL     1     -14.841  34.135   9.178  1.00  0.00     0.277 HD
ENDBRANCH   1  11
BRANCH   8  20
HETATM   20  C19 UNL     1      -8.717  38.250  10.485  1.00  0.00     0.126 C
HETATM   21 CL1  UNL     1      -8.061  36.855  11.384  1.00  0.00    -0.130 Cl
ENDBRANCH   8  20
BRANCH   5  22
HETATM   22  N4  UNL     1     -10.298  37.305   4.778  1.00  0.00    -0.332 N
HETATM   23  C10 UNL     1     -10.842  36.356   3.851  1.00  0.00     0.361 C
HETATM   24  O1  UNL     1     -11.428  35.313   4.236  1.00  0.00    -0.238 OA
ATOM     25  H4  UNL     1      -9.837  38.132   4.397  1.00  0.00     0.165 HD
BRANCH  23  26
HETATM   26  O2  UNL     1     -10.745  36.546   2.479  1.00  0.00    -0.294 OA
BRANCH  26  27
HETATM   27  C11 UNL     1     -11.841  36.380   1.584  1.00  0.00     0.061 C
HETATM   28  C12 UNL     1     -12.599  37.646   1.330  1.00  0.00     0.046 C
HETATM   29  C13 UNL     1     -11.256  35.907   0.269  1.00  0.00     0.046 C
HETATM   30  C14 UNL     1     -12.779  35.293   2.080  1.00  0.00     0.046 C
ENDBRANCH  26  27
ENDBRANCH  23  26
ENDBRANCH   5  22
TORSDOF 5
ENDMDL