MODEL 4
REMARK VINA RESULT: -4.809324557      7.569     10.572
REMARK  6 active torsions:
REMARK  status: ('A' for Active; 'I' for Inactive)
REMARK    1  A    between atoms: O1_2  and  C2_3
REMARK    2  A    between atoms: C2_3  and  C3_5
REMARK    3  A    between atoms: C9_11  and  C10_12
REMARK    4  A    between atoms: C12_15  and  C13_16
REMARK    5  A    between atoms: C13_16  and  O3_17
REMARK    6  A    between atoms: C22_28  and  O4_29
ROOT
HETATM    1  C10 UNL     1     -13.894  35.146   8.033  1.00  0.00     0.129 C
HETATM    2  C11 UNL     1     -14.605  36.383   7.887  1.00  0.00     0.059 C
HETATM    3  N1  UNL     1     -15.150  37.404   7.764  1.00  0.00    -0.197 NA
ENDROOT
BRANCH   1   4
HETATM    4  C9  UNL     1     -14.453  33.936   7.383  1.00  0.00     0.015 C
HETATM    5  C8  UNL     1     -14.516  33.723   5.960  1.00  0.00    -0.019 A
HETATM    6  C6  UNL     1     -13.854  32.830   5.031  1.00  0.00    -0.024 A
HETATM    7  C7  UNL     1     -13.645  34.242   5.044  1.00  0.00     0.022 A
HETATM    8  C14 UNL     1     -15.870  33.190   6.122  1.00  0.00    -0.029 C
HETATM    9  C5  UNL     1     -14.352  32.258   3.754  1.00  0.00     0.012 C
HETATM   10  C18 UNL     1     -13.366  31.707   5.847  1.00  0.00     0.036 C
HETATM   11  C4  UNL     1     -13.031  31.950   2.992  1.00  0.00     0.024 C
HETATM   12  C3  UNL     1     -12.461  30.700   3.671  1.00  0.00     0.086 C
HETATM   13  C19 UNL     1     -12.370  30.890   5.119  1.00  0.00     0.125 C
HETATM   14  C23 UNL     1     -11.011  30.536   3.189  1.00  0.00     0.055 C
HETATM   15  F1  UNL     1     -11.148  31.606   5.315  1.00  0.00    -0.241 F
HETATM   16  C20 UNL     1     -12.039  29.574   5.819  1.00  0.00     0.048 C
HETATM   17  C21 UNL     1     -10.906  28.904   5.131  1.00  0.00     0.035 C
HETATM   18  C22 UNL     1     -10.226  29.596   4.028  1.00  0.00     0.119 C
HETATM   19  C17 UNL     1     -14.551  31.016   6.422  1.00  0.00     0.009 C
HETATM   20  C16 UNL     1     -15.854  31.740   6.322  1.00  0.00     0.011 C
HETATM   21  C12 UNL     1     -15.988  34.139   7.252  1.00  0.00     0.024 C
HETATM   22  C15 UNL     1     -16.852  33.652   5.016  1.00  0.00     0.016 C
BRANCH  12  23
HETATM   23  C2  UNL     1     -13.174  29.561   3.117  1.00  0.00     0.270 C
HETATM   24  O2  UNL     1     -14.207  28.993   3.510  1.00  0.00    -0.264 OA
BRANCH  23  25
HETATM   25  O1  UNL     1     -12.622  28.995   1.950  1.00  0.00    -0.326 OA
HETATM   26  C1  UNL     1     -13.325  28.984   0.728  1.00  0.00     0.213 C
ENDBRANCH  23  25
ENDBRANCH  12  23
BRANCH  18  27
HETATM   27  O4  UNL     1      -9.696  28.606   3.170  1.00  0.00    -0.396 OA
ATOM     28  H4  UNL     1      -9.143  29.046   2.536  1.00  0.00     0.210 HD
ENDBRANCH  18  27
BRANCH  21  29
HETATM   29  C13 UNL     1     -16.747  33.944   8.474  1.00  0.00     0.170 C
BRANCH  29  30
HETATM   30  O3  UNL     1     -17.511  35.008   8.910  1.00  0.00    -0.400 OA
ATOM     31  H3  UNL     1     -18.186  34.817   9.551  1.00  0.00     0.209 HD
ENDBRANCH  29  30
ENDBRANCH  21  29
ENDBRANCH   1   4
TORSDOF 6
ENDMDL