MODEL 1
REMARK VINA RESULT: -7.683798494      0.000      0.000
REMARK  5 active torsions:
REMARK  status: ('A' for Active; 'I' for Inactive)
REMARK    1  A    between atoms: C2_2  and  O1_3
REMARK    2  A    between atoms: C2_2  and  C10_15
REMARK    3  A    between atoms: O1_3  and  C3_4
REMARK    4  A    between atoms: C6_8  and  O3_9
REMARK    5  A    between atoms: C13_19  and  O5_21
ROOT
HETATM    1  C1  UNL     1      -7.779  39.259   7.681  1.00  0.00     0.040 C
HETATM    2  C2  UNL     1      -8.100  38.448   8.902  1.00  0.00     0.127 C
ENDROOT
BRANCH   2   3
HETATM    3  O1  UNL     1      -8.212  39.348   9.971  1.00  0.00    -0.334 OA
BRANCH   3   4
HETATM    4  C3  UNL     1      -7.684  38.876  11.144  1.00  0.00     0.414 C
HETATM    5  O2  UNL     1      -7.083  39.973  11.800  1.00  0.00    -0.331 OA
HETATM    6  C4  UNL     1      -6.156  39.430  12.680  1.00  0.00     0.154 C
HETATM    7  C5  UNL     1      -5.449  40.576  13.381  1.00  0.00     0.042 C
HETATM    8  C6  UNL     1      -6.920  38.612  13.692  1.00  0.00     0.180 C
HETATM    9  C7  UNL     1      -7.999  37.780  13.082  1.00  0.00     0.087 C
HETATM   10  C8  UNL     1      -7.436  36.477  12.518  1.00  0.00     0.048 C
HETATM   11  C9  UNL     1      -8.981  37.417  14.191  1.00  0.00     0.048 C
HETATM   12  O4  UNL     1      -8.662  38.411  12.034  1.00  0.00    -0.326 OA
BRANCH   8  13
HETATM   13  O3  UNL     1      -6.057  37.812  14.428  1.00  0.00    -0.390 OA
ATOM     14  H3  UNL     1      -6.276  37.843  15.352  1.00  0.00     0.210 HD
ENDBRANCH   8  13
ENDBRANCH   3   4
ENDBRANCH   2   3
BRANCH   2  15
HETATM   15  C10 UNL     1      -9.441  37.758   8.819  1.00  0.00     0.023 C
HETATM   16  C11 UNL     1     -10.099  38.325   7.579  1.00  0.00     0.026 C
HETATM   17  C12 UNL     1     -11.463  37.746   7.324  1.00  0.00     0.092 C
HETATM   18 BR1  UNL     1     -12.819  38.543   8.456  1.00  0.00    -0.088 Br
HETATM   19  C13 UNL     1     -11.448  36.254   7.411  1.00  0.00     0.068 C
HETATM   20  C14 UNL     1     -11.873  35.658   6.068  1.00  0.00     0.047 C
HETATM   21  C15 UNL     1     -10.085  35.680   7.693  1.00  0.00     0.048 C
HETATM   22  C16 UNL     1      -9.426  36.297   8.913  1.00  0.00    -0.039 C
HETATM   23  C17 UNL     1     -10.228  35.824  10.138  1.00  0.00     0.015 C
HETATM   24  C18 UNL     1      -8.086  35.642   9.035  1.00  0.00     0.015 C
BRANCH  19  25
HETATM   25  O5  UNL     1     -12.402  35.767   8.335  1.00  0.00    -0.389 OA
ATOM     26  H5  UNL     1     -12.996  35.141   7.937  1.00  0.00     0.210 HD
ENDBRANCH  19  25
ENDBRANCH   2  15
TORSDOF 5
ENDMDL