MODEL 1
REMARK VINA RESULT: -6.148678838      0.000      0.000
REMARK  1 active torsions:
REMARK  status: ('A' for Active; 'I' for Inactive)
REMARK    1  A    between atoms: C2_2  and  N1_4
REMARK       I    between atoms: N1_4  and  C4_6
ROOT
HETATM    1  N1  UNL     1       2.535   0.132  47.156  1.00  0.00    -0.222 N
ATOM      2  H1  UNL     1       2.402  -0.141  46.182  1.00  0.00     0.178 HD
HETATM    3  C4  UNL     1       3.723   0.504  47.503  1.00  0.00     0.685 C
HETATM    4  N2  UNL     1       4.679   0.495  46.540  1.00  0.00    -0.141 N
ATOM      5  H2  UNL     1       4.383   0.103  45.646  1.00  0.00     0.189 HD
HETATM    6  C5  UNL     1       5.966   0.924  46.575  1.00  0.00     0.339 C
HETATM    7  O1  UNL     1       6.698   0.539  45.630  1.00  0.00    -0.246 OA
HETATM    8  N3  UNL     1       6.557   1.714  47.499  1.00  0.00    -0.294 N
ATOM      9  H3  UNL     1       7.500   2.027  47.269  1.00  0.00     0.171 HD
HETATM   10  C6  UNL     1       6.077   2.145  48.683  1.00  0.00     0.173 C
HETATM   11  S1  UNL     1       6.948   3.262  49.497  1.00  0.00    -0.054 SA
HETATM   12  C7  UNL     1       4.897   1.713  49.261  1.00  0.00     0.297 C
HETATM   13  O2  UNL     1       4.681   2.166  50.397  1.00  0.00    -0.264 OA
HETATM   14  N4  UNL     1       3.942   0.873  48.780  1.00  0.00    -0.153 N
ATOM     15  H4  UNL     1       3.313   0.470  49.474  1.00  0.00     0.187 HD
ENDROOT
BRANCH   1  16
HETATM   16  C2  UNL     1       1.397   0.068  48.005  1.00  0.00     0.091 C
HETATM   17  C1  UNL     1       1.009  -1.412  48.119  1.00  0.00     0.032 C
HETATM   18  C3  UNL     1       0.173   0.750  47.408  1.00  0.00     0.032 C
ENDBRANCH   1  16
TORSDOF 1
ENDMDL