MODEL 2
REMARK VINA RESULT: -6.775860090      1.545      3.253
REMARK  1 active torsions:
REMARK  status: ('A' for Active; 'I' for Inactive)
REMARK    1  A    between atoms: C2_2  and  N1_3
ROOT
HETATM    1  N1  UNL     1       1.473   0.981  45.146  1.00  0.00    -0.296 N
HETATM    2  C3  UNL     1       1.197  -0.282  44.760  1.00  0.00     0.330 A
HETATM    3  O1  UNL     1       0.852  -0.466  43.556  1.00  0.00    -0.246 OA
HETATM    4  N2  UNL     1       1.264  -1.335  45.562  1.00  0.00    -0.273 N
ATOM      5  H2  UNL     1       1.040  -2.262  45.198  1.00  0.00     0.173 HD
HETATM    6  C4  UNL     1       1.626  -1.195  46.856  1.00  0.00     0.278 A
HETATM    7  O2  UNL     1       1.702  -2.170  47.646  1.00  0.00    -0.265 OA
HETATM    8  C5  UNL     1       1.917   0.060  47.299  1.00  0.00     0.130 A
HETATM    9  N3  UNL     1       2.298   0.520  48.489  1.00  0.00    -0.352 N
ATOM     10  H3  UNL     1       2.435  -0.064  49.314  1.00  0.00     0.166 HD
HETATM   11  C6  UNL     1       2.476   1.844  48.469  1.00  0.00     0.032 A
HETATM   12  C7  UNL     1       2.902   2.690  49.631  1.00  0.00     0.070 C
HETATM   13  C8  UNL     1       2.191   2.243  47.193  1.00  0.00     0.098 A
HETATM   14  N4  UNL     1       2.246   3.571  46.698  1.00  0.00    -0.098 NA
HETATM   15  C9  UNL     1       1.838   1.148  46.436  1.00  0.00     0.097 A
ENDROOT
BRANCH   1  16
HETATM   16  C2  UNL     1       1.384   2.087  44.234  1.00  0.00     0.130 C
HETATM   17  C1  UNL     1       2.714   2.351  43.537  1.00  0.00     0.027 C
ENDBRANCH   1  16
TORSDOF 1
ENDMDL