MODEL 3
REMARK VINA RESULT: -6.021715014      2.284      5.675
REMARK  3 active torsions:
REMARK  status: ('A' for Active; 'I' for Inactive)
REMARK    1  A    between atoms: N1_2  and  C2_4
REMARK    2  A    between atoms: C3_7  and  C4_8
REMARK    3  A    between atoms: C8_18  and  N6_19
ROOT
HETATM    1  C2  UNL     1       4.779   1.329  48.919  1.00  0.00     0.694 A
HETATM    2  N2  UNL     1       4.130   0.670  47.943  1.00  0.00    -0.173 N
ATOM      3  H2  UNL     1       4.642  -0.039  47.419  1.00  0.00     0.186 HD
HETATM    4  C3  UNL     1       2.846   0.893  47.619  1.00  0.00     0.165 A
HETATM    5  N5  UNL     1       2.199   1.841  48.336  1.00  0.00    -0.173 N
ATOM      6  H5  UNL     1       1.222   2.040  48.122  1.00  0.00     0.186 HD
HETATM    7  C8  UNL     1       2.799   2.527  49.319  1.00  0.00     0.694 A
HETATM    8  N7  UNL     1       4.086   2.265  49.603  1.00  0.00    -0.022 N
ATOM      9  H7  UNL     1       4.549   2.783  50.349  1.00  0.00     0.203 HD
ENDROOT
BRANCH   4  10
HETATM   10  C4  UNL     1       2.156   0.169  46.559  1.00  0.00     0.101 A
HETATM   11  N3  UNL     1       2.133   0.456  45.246  1.00  0.00    -0.348 N
HETATM   12  C5  UNL     1       1.371  -0.472  44.597  1.00  0.00     0.181 A
ATOM     13  H3  UNL     1       2.609   1.244  44.805  1.00  0.00     0.167 HD
HETATM   14  N4  UNL     1       0.921  -1.339  45.513  1.00  0.00    -0.354 N
HETATM   15  C6  UNL     1       1.390  -0.964  46.716  1.00  0.00     0.037 A
ATOM     16  H4  UNL     1       0.324  -2.146  45.330  1.00  0.00     0.166 HD
HETATM   17  C7  UNL     1       1.121  -1.659  47.994  1.00  0.00     0.070 C
ENDBRANCH   4  10
BRANCH   1  18
HETATM   18  N1  UNL     1       6.004   1.115  49.226  1.00  0.00    -0.230 N
HETATM   19  C1  UNL     1       7.117   1.197  48.310  1.00  0.00     0.165 C
ATOM     20  H1  UNL     1       6.210   0.868  50.194  1.00  0.00     0.177 HD
ENDBRANCH   1  18
BRANCH   7  21
HETATM   21  N6  UNL     1       2.224   3.437  50.027  1.00  0.00    -0.230 N
HETATM   22  C9  UNL     1       2.513   4.845  49.857  1.00  0.00     0.165 C
ATOM     23  H6  UNL     1       1.542   3.155  50.731  1.00  0.00     0.177 HD
ENDBRANCH   7  21
TORSDOF 3
ENDMDL