MODEL 4
REMARK VINA RESULT: -5.784031923      2.497      4.018
REMARK  2 active torsions:
REMARK  status: ('A' for Active; 'I' for Inactive)
REMARK    1  A    between atoms: C2_2  and  N1_5
REMARK    2  A    between atoms: N1_5  and  C5_7
ROOT
HETATM    1  C5  UNL     1       3.577   2.022  46.575  1.00  0.00     0.695 A
HETATM    2  N2  UNL     1       2.897   0.888  46.531  1.00  0.00    -0.169 N
ATOM      3  H2  UNL     1       2.892   0.301  47.365  1.00  0.00     0.186 HD
HETATM    4  C6  UNL     1       2.212   0.460  45.454  1.00  0.00     0.185 A
HETATM    5  S1  UNL     1       1.318  -1.102  45.498  1.00  0.00    -0.012 SA
HETATM    6  N3  UNL     1       2.232   1.254  44.360  1.00  0.00    -0.169 N
ATOM      7  H3  UNL     1       1.726   0.968  43.522  1.00  0.00     0.186 HD
HETATM    8  C7  UNL     1       2.908   2.410  44.364  1.00  0.00     0.692 A
HETATM    9  N4  UNL     1       2.931   3.172  43.326  1.00  0.00    -0.234 N
ATOM     10  H41 UNL     1       3.446   4.052  43.328  1.00  0.00     0.174 HD
ATOM     11  H42 UNL     1       2.422   2.878  42.492  1.00  0.00     0.174 HD
HETATM   12  N5  UNL     1       3.589   2.803  45.482  1.00  0.00    -0.023 N
ATOM     13  H5  UNL     1       4.103   3.684  45.486  1.00  0.00     0.203 HD
ENDROOT
BRANCH   1  14
HETATM   14  N1  UNL     1       4.203   2.355  47.642  1.00  0.00    -0.217 N
ATOM     15  H1  UNL     1       5.193   2.116  47.696  1.00  0.00     0.178 HD
BRANCH  14  16
HETATM   16  C2  UNL     1       3.638   3.029  48.756  1.00  0.00     0.036 C
HETATM   17  C1  UNL     1       2.110   2.925  48.804  1.00  0.00     0.038 C
HETATM   18  C3  UNL     1       4.147   2.589  50.092  1.00  0.00     0.038 C
HETATM   19  C4  UNL     1       3.932   4.531  48.645  1.00  0.00     0.038 C
ENDBRANCH  14  16
ENDBRANCH   1  14
TORSDOF 2
ENDMDL