MODEL 3
REMARK VINA RESULT: -6.931238989      5.925      7.980
REMARK  3 active torsions:
REMARK  status: ('A' for Active; 'I' for Inactive)
REMARK    1  A    between atoms: C3_5  and  C4_6
REMARK    2  A    between atoms: C7_12  and  C8_13
REMARK    3  A    between atoms: N4_14  and  N5_16
ROOT
HETATM    1  C4  UNL     1       3.559   4.676  49.078  1.00  0.00    -0.014 C
HETATM    2  C5  UNL     1       4.205   5.271  49.907  1.00  0.00     0.021 C
HETATM    3  C6  UNL     1       4.948   5.987  50.887  1.00  0.00     0.152 C
HETATM    4  N2  UNL     1       5.537   6.570  51.698  1.00  0.00    -0.182 NA
ENDROOT
BRANCH   1   5
HETATM    5  C3  UNL     1       2.770   3.981  48.091  1.00  0.00     0.163 A
HETATM    6  N1  UNL     1       1.667   3.275  48.256  1.00  0.00    -0.337 N
HETATM    7  C2  UNL     1       1.232   2.786  47.089  1.00  0.00     0.035 A
ATOM      8  H1  UNL     1       1.208   3.123  49.154  1.00  0.00     0.168 HD
HETATM    9  C1  UNL     1       0.015   1.936  46.863  1.00  0.00     0.070 C
HETATM   10  C7  UNL     1       2.130   3.218  46.102  1.00  0.00     0.073 A
HETATM   11  N3  UNL     1       3.048   3.939  46.749  1.00  0.00    -0.332 N
ATOM     12  H3  UNL     1       3.845   4.395  46.307  1.00  0.00     0.168 HD
BRANCH  10  13
HETATM   13  C8  UNL     1       2.001   2.892  44.694  1.00  0.00     0.138 C
HETATM   14  N4  UNL     1       2.263   1.797  44.127  1.00  0.00    -0.308 N
ATOM     15  H4  UNL     1       2.115   1.737  43.120  1.00  0.00     0.186 HD
BRANCH  14  16
HETATM   16  N5  UNL     1       2.732   0.682  44.769  1.00  0.00    -0.276 N
HETATM   17  C9  UNL     1       2.136  -0.443  44.660  1.00  0.00     0.215 C
HETATM   18  N6  UNL     1       0.975  -0.544  43.866  1.00  0.00    -0.065 NA
HETATM   19  N7  UNL     1       2.636  -1.570  45.328  1.00  0.00    -0.065 NA
ATOM     20  H5  UNL     1       3.571   0.751  45.344  1.00  0.00     0.189 HD
ENDBRANCH  14  16
ENDBRANCH  10  13
ENDBRANCH   1   5
TORSDOF 3
ENDMDL