MODEL 1
REMARK VINA RESULT: -6.842770683      0.000      0.000
REMARK  2 active torsions:
REMARK  status: ('A' for Active; 'I' for Inactive)
REMARK    1  A    between atoms: C2_2  and  N1_3
REMARK    2  A    between atoms: N1_3  and  C3_5
ROOT
HETATM    1  C3  UNL     1       2.551   2.569  46.630  1.00  0.00     0.136 A
HETATM    2  N2  UNL     1       3.001   3.503  45.783  1.00  0.00    -0.282 N
ATOM      3  H2  UNL     1       3.344   4.407  46.108  1.00  0.00     0.188 HD
HETATM    4  N3  UNL     1       2.976   3.186  44.504  1.00  0.00    -0.263 N
ATOM      5  H3  UNL     1       3.317   3.888  43.847  1.00  0.00     0.190 HD
HETATM    6  C4  UNL     1       2.546   2.030  43.989  1.00  0.00     0.288 A
HETATM    7  O1  UNL     1       2.589   1.888  42.734  1.00  0.00    -0.264 OA
HETATM    8  C5  UNL     1       2.060   1.009  44.836  1.00  0.00     0.126 A
HETATM    9  N4  UNL     1       1.602  -0.178  44.507  1.00  0.00    -0.312 N
ATOM     10  H4  UNL     1       1.561  -0.469  43.530  1.00  0.00     0.170 HD
HETATM   11  C6  UNL     1       1.190  -0.993  45.478  1.00  0.00     0.289 A
HETATM   12  O2  UNL     1       0.717  -2.178  45.347  1.00  0.00    -0.260 OA
HETATM   13  S1  UNL     1       1.453  -0.070  46.893  1.00  0.00    -0.023 SA
HETATM   14  C7  UNL     1       2.085   1.331  46.159  1.00  0.00     0.087 A
ENDROOT
BRANCH   1  15
HETATM   15  N1  UNL     1       2.502   2.700  47.905  1.00  0.00    -0.374 N
ATOM     16  H1  UNL     1       1.830   2.164  48.454  1.00  0.00     0.161 HD
BRANCH  15  17
HETATM   17  C2  UNL     1       3.410   3.616  48.552  1.00  0.00     0.116 C
HETATM   18  C1  UNL     1       2.684   4.631  49.425  1.00  0.00     0.026 C
ENDBRANCH  15  17
ENDBRANCH   1  15
TORSDOF 2
ENDMDL