MODEL 2
REMARK VINA RESULT: -5.844511375      2.730      3.285
REMARK  2 active torsions:
REMARK  status: ('A' for Active; 'I' for Inactive)
REMARK    1  A    between atoms: C2_2  and  N1_3
REMARK       I    between atoms: N1_3  and  C3_5
REMARK       I    between atoms: C3_5  and  N2_6
REMARK       I    between atoms: C3_5  and  N4_10
REMARK    2  A    between atoms: N4_10  and  C5_12
ROOT
HETATM    1  N1  UNL     1       3.335   1.077  45.108  1.00  0.00    -0.226 N
ATOM      2  H1  UNL     1       4.035   0.403  44.797  1.00  0.00     0.177 HD
HETATM    3  C3  UNL     1       3.667   1.953  46.165  1.00  0.00     0.689 C
HETATM    4  N2  UNL     1       4.809   1.837  46.749  1.00  0.00    -0.126 N
ATOM      5  H2  UNL     1       5.067   2.460  47.514  1.00  0.00     0.197 HD
HETATM    6  C4  UNL     1       5.687   0.841  46.317  1.00  0.00     0.196 C
HETATM    7  N3  UNL     1       6.424   0.017  45.943  1.00  0.00    -0.171 NA
HETATM    8  N4  UNL     1       2.771   2.957  46.600  1.00  0.00    -0.168 N
ATOM      9  H4  UNL     1       2.017   3.283  45.993  1.00  0.00     0.186 HD
ENDROOT
BRANCH   1  10
HETATM   10  C2  UNL     1       2.056   1.090  44.453  1.00  0.00     0.133 C
HETATM   11  C1  UNL     1       1.314  -0.204  44.489  1.00  0.00     0.027 C
ENDBRANCH   1  10
BRANCH   8  12
HETATM   12  C5  UNL     1       2.930   3.461  47.806  1.00  0.00     0.181 A
HETATM   13  N5  UNL     1       3.622   4.553  48.147  1.00  0.00    -0.325 N
HETATM   14  C6  UNL     1       3.649   4.875  49.411  1.00  0.00     0.085 A
ATOM     15  H5  UNL     1       4.110   5.113  47.447  1.00  0.00     0.169 HD
HETATM   16  C7  UNL     1       4.393   6.093  49.922  1.00  0.00     0.089 C
HETATM   17  N6  UNL     1       2.994   4.106  50.275  1.00  0.00    -0.313 N
HETATM   18  S1  UNL     1       2.328   2.909  49.299  1.00  0.00     0.024 SA
ATOM     19  H6  UNL     1       2.914   4.216  51.287  1.00  0.00     0.175 HD
ENDBRANCH   8  12
TORSDOF 2
ENDMDL