MODEL 3
REMARK VINA RESULT: -5.971045801      2.530      3.262
REMARK  2 active torsions:
REMARK  status: ('A' for Active; 'I' for Inactive)
REMARK    1  A    between atoms: C2_2  and  C3_3
REMARK    2  A    between atoms: C8_18  and  N6_19
ROOT
HETATM    1  C3  UNL     1       1.883   1.243  46.399  1.00  0.00     0.077 A
HETATM    2  N1  UNL     1       2.444   2.261  47.072  1.00  0.00    -0.336 N
ATOM      3  H1  UNL     1       1.875   3.057  47.359  1.00  0.00     0.168 HD
HETATM    4  C4  UNL     1       3.759   2.232  47.368  1.00  0.00     0.151 A
HETATM    5  N2  UNL     1       4.590   3.080  48.016  1.00  0.00    -0.282 N
ATOM      6  H2  UNL     1       4.311   3.973  48.423  1.00  0.00     0.188 HD
HETATM    7  N3  UNL     1       5.816   2.585  48.044  1.00  0.00    -0.282 N
ATOM      8  H3  UNL     1       6.617   3.043  48.478  1.00  0.00     0.188 HD
HETATM    9  C5  UNL     1       5.861   1.392  47.420  1.00  0.00     0.146 A
HETATM   10  N4  UNL     1       6.876   0.613  47.247  1.00  0.00    -0.378 N
ATOM     11  H4  UNL     1       6.774  -0.272  46.752  1.00  0.00     0.160 HD
HETATM   12  C6  UNL     1       8.166   1.024  47.772  1.00  0.00     0.148 C
HETATM   13  C7  UNL     1       4.558   1.167  46.991  1.00  0.00     0.125 A
HETATM   14  N5  UNL     1       4.002   0.133  46.311  1.00  0.00    -0.335 N
ATOM     15  H5  UNL     1       4.567  -0.665  46.021  1.00  0.00     0.168 HD
HETATM   16  C8  UNL     1       2.687   0.185  46.027  1.00  0.00     0.128 A
ENDROOT
BRANCH  16  17
HETATM   17  N6  UNL     1       2.151  -0.793  45.380  1.00  0.00    -0.379 N
HETATM   18  C9  UNL     1       1.826  -2.059  45.977  1.00  0.00     0.147 C
ATOM     19  H6  UNL     1       1.946  -0.660  44.390  1.00  0.00     0.160 HD
ENDBRANCH  16  17
BRANCH   1  20
HETATM   20  C2  UNL     1       0.440   1.262  46.066  1.00  0.00     0.023 C
HETATM   21  C1  UNL     1      -0.436   1.367  47.016  1.00  0.00     0.013 C
ENDBRANCH   1  20
TORSDOF 2
ENDMDL