MODEL 3
REMARK VINA RESULT: -6.392717835      1.299      4.044
REMARK  3 active torsions:
REMARK  status: ('A' for Active; 'I' for Inactive)
REMARK    1  A    between atoms: C3_3  and  N1_4
REMARK    2  A    between atoms: N1_4  and  C4_6
REMARK    3  A    between atoms: C5_9  and  N3_10
ROOT
HETATM    1  C1  UNL     1       1.417  -2.657  47.830  1.00  0.00     0.014 C
HETATM    2  C2  UNL     1       1.224  -2.023  46.829  1.00  0.00    -0.098 C
HETATM    3  C3  UNL     1       0.992  -1.251  45.606  1.00  0.00     0.215 C
ENDROOT
BRANCH   3   4
HETATM    4  N1  UNL     1       0.783   0.139  45.849  1.00  0.00    -0.363 N
ATOM      5  H1  UNL     1      -0.034   0.384  46.409  1.00  0.00     0.162 HD
BRANCH   4   6
HETATM    6  C4  UNL     1       1.500   1.102  45.445  1.00  0.00     0.148 A
HETATM    7  N2  UNL     1       1.805   1.346  44.157  1.00  0.00    -0.175 N
HETATM    8  C5  UNL     1       2.571   2.381  43.779  1.00  0.00     0.679 A
ATOM      9  H2  UNL     1       1.439   0.719  43.440  1.00  0.00     0.186 HD
HETATM   10  N4  UNL     1       3.093   3.258  44.669  1.00  0.00    -0.174 N
HETATM   11  C6  UNL     1       2.809   3.048  45.981  1.00  0.00     0.153 A
ATOM     12  H4  UNL     1       3.673   4.042  44.368  1.00  0.00     0.186 HD
HETATM   13  N5  UNL     1       3.165   3.714  47.067  1.00  0.00    -0.330 N
HETATM   14  C10 UNL     1       2.018   1.978  46.374  1.00  0.00     0.125 A
HETATM   15  C7  UNL     1       2.616   3.087  48.110  1.00  0.00     0.081 A
ATOM     16  H5  UNL     1       3.749   4.549  47.101  1.00  0.00     0.168 HD
HETATM   17  C8  UNL     1       2.751   3.487  49.532  1.00  0.00     0.089 C
HETATM   18  N6  UNL     1       1.900   2.005  47.703  1.00  0.00    -0.335 N
HETATM   19  C9  UNL     1       1.164   1.080  48.542  1.00  0.00     0.158 C
BRANCH   8  20
HETATM   20  N3  UNL     1       2.846   2.589  42.529  1.00  0.00    -0.234 N
ATOM     21  H32 UNL     1       3.124   1.775  41.980  1.00  0.00     0.174 HD
ATOM     22  H31 UNL     1       2.784   3.523  42.125  1.00  0.00     0.174 HD
ENDBRANCH   8  20
ENDBRANCH   4   6
ENDBRANCH   3   4
TORSDOF 3
ENDMDL