MODEL 2
REMARK VINA RESULT: -6.395009784      1.099      1.099
REMARK  2 active torsions:
REMARK  status: ('A' for Active; 'I' for Inactive)
REMARK    1  A    between atoms: C2_2  and  N1_3
REMARK    2  A    between atoms: N1_3  and  C4_5
ROOT
HETATM    1  C4  UNL     1       2.638   3.787  48.099  1.00  0.00     0.682 A
HETATM    2  N2  UNL     1       3.153   3.605  46.875  1.00  0.00    -0.174 N
ATOM      3  H2  UNL     1       4.018   4.021  46.531  1.00  0.00     0.186 HD
HETATM    4  C5  UNL     1       2.351   2.788  46.171  1.00  0.00     0.158 A
HETATM    5  N3  UNL     1       2.372   2.269  44.909  1.00  0.00    -0.292 N
ATOM      6  H3  UNL     1       3.141   2.504  44.282  1.00  0.00     0.172 HD
HETATM    7  C6  UNL     1       1.392   1.451  44.484  1.00  0.00     0.328 A
HETATM    8  O1  UNL     1       1.471   1.010  43.313  1.00  0.00    -0.247 OA
HETATM    9  N4  UNL     1       0.381   1.141  45.306  1.00  0.00    -0.273 N
ATOM     10  H4  UNL     1      -0.352   0.521  44.962  1.00  0.00     0.173 HD
HETATM   11  C7  UNL     1       0.285   1.605  46.552  1.00  0.00     0.280 A
HETATM   12  O2  UNL     1      -0.657   1.323  47.340  1.00  0.00    -0.265 OA
HETATM   13  C8  UNL     1       1.307   2.454  46.992  1.00  0.00     0.161 A
HETATM   14  N5  UNL     1       1.505   3.075  48.157  1.00  0.00    -0.182 N
ATOM     15  H5  UNL     1       0.888   3.016  48.967  1.00  0.00     0.184 HD
ENDROOT
BRANCH   1  16
HETATM   16  N1  UNL     1       3.232   4.580  49.104  1.00  0.00    -0.222 N
HETATM   17  C3  UNL     1       4.674   4.665  49.124  1.00  0.00     0.168 C
BRANCH  16  18
HETATM   18  C2  UNL     1       2.446   5.257  50.087  1.00  0.00     0.136 C
HETATM   19  C1  UNL     1       3.176   6.407  50.739  1.00  0.00     0.027 C
ENDBRANCH  16  18
ENDBRANCH   1  16
TORSDOF 2
ENDMDL