MODEL 2
REMARK VINA RESULT: -5.358271623      1.838      3.531
REMARK  2 active torsions:
REMARK  status: ('A' for Active; 'I' for Inactive)
REMARK    1  A    between atoms: C2_2  and  C3_7
REMARK    2  A    between atoms: N1_3  and  O1_5
ROOT
HETATM    1  C3  UNL     1      23.171  -0.685 -22.550  1.00  0.00     0.188 C
HETATM    2  C4  UNL     1      22.550  -1.195 -21.323  1.00  0.00     0.104 C
HETATM    3  N2  UNL     1      22.070  -1.598 -20.346  1.00  0.00    -0.194 NA
HETATM    4  C5  UNL     1      22.798  -1.680 -23.641  1.00  0.00     0.062 C
HETATM    5  C6  UNL     1      21.320  -1.323 -23.807  1.00  0.00     0.031 C
HETATM    6  C7  UNL     1      21.374   0.170 -23.572  1.00  0.00     0.170 C
HETATM    7  O2  UNL     1      22.598   0.461 -23.018  1.00  0.00    -0.360 OA
ENDROOT
BRANCH   1   8
HETATM    8  C2  UNL     1      24.625  -0.669 -22.467  1.00  0.00     0.054 C
HETATM    9  C1  UNL     1      25.386  -1.878 -22.035  1.00  0.00     0.070 C
HETATM   10  N1  UNL     1      25.306   0.373 -22.756  1.00  0.00    -0.274 N
ATOM     11  H1  UNL     1      26.324   0.359 -22.688  1.00  0.00     0.193 HD
BRANCH  10  12
HETATM   12  O1  UNL     1      24.656   1.508 -23.157  1.00  0.00    -0.290 OA
ATOM     13  H1  UNL     1      25.055   2.064 -23.816  1.00  0.00     0.244 HD
ENDBRANCH  10  12
ENDBRANCH   1   8
TORSDOF 2
ENDMDL