MODEL 5
REMARK VINA RESULT: -4.199167428      3.344      4.105
REMARK  2 active torsions:
REMARK  status: ('A' for Active; 'I' for Inactive)
REMARK    1  A    between atoms: C1_4  and  C2_5
REMARK    2  A    between atoms: C6_10  and  O2_11
ROOT
HETATM    1  C2  UNL     1      23.433  -1.789 -21.184  1.00  0.00     0.086 C
HETATM    2  C3  UNL     1      23.098  -1.290 -22.515  1.00  0.00     0.028 C
HETATM    3  C4  UNL     1      23.901  -0.175 -22.972  1.00  0.00     0.029 C
HETATM    4  C5  UNL     1      23.187   1.180 -22.924  1.00  0.00     0.177 C
HETATM    5  O1  UNL     1      24.280   2.046 -23.037  1.00  0.00    -0.360 OA
HETATM    6  C6  UNL     1      25.243   1.580 -22.153  1.00  0.00     0.270 C
HETATM    7  C7  UNL     1      25.103   0.076 -22.154  1.00  0.00     0.109 C
HETATM    8  S1  UNL     1      24.550  -0.525 -20.508  1.00  0.00    -0.149 SA
ENDROOT
BRANCH   1   9
HETATM    9  C1  UNL     1      22.298  -2.070 -20.293  1.00  0.00     0.068 C
HETATM   10  N1  UNL     1      21.129  -1.611 -20.546  1.00  0.00    -0.410 N
ATOM     11  H12 UNL     1      21.001  -1.042 -21.383  1.00  0.00     0.155 HD
ATOM     12  H11 UNL     1      20.341  -1.806 -19.928  1.00  0.00     0.155 HD
ENDBRANCH   1   9
BRANCH   6  13
HETATM   13  O2  UNL     1      26.543   1.864 -22.603  1.00  0.00    -0.370 OA
ATOM     14  H2  UNL     1      26.967   2.519 -22.061  1.00  0.00     0.212 HD
ENDBRANCH   6  13
TORSDOF 2
ENDMDL