MODEL 3
REMARK VINA RESULT: -3.255250178      5.534      6.701
REMARK  2 active torsions:
REMARK  status: ('A' for Active; 'I' for Inactive)
REMARK    1  A    between atoms: C4_6  and  C6_8
REMARK    2  A    between atoms: C6_8  and  O3_9
ROOT
HETATM    1  C1  UNL     1      25.128   6.076 -22.003  1.00  0.00     0.061 C
HETATM    2  C2  UNL     1      25.728   4.726 -21.838  1.00  0.00     0.140 C
HETATM    3  C3  UNL     1      24.877   3.590 -22.238  1.00  0.00     0.061 C
HETATM    4  O1  UNL     1      27.028   4.649 -22.403  1.00  0.00    -0.217 OA
HETATM    5  O2  UNL     1      27.768   5.523 -21.820  1.00  0.00    -0.215 OA
HETATM    6  C4  UNL     1      28.003   5.123 -20.498  1.00  0.00     0.164 C
HETATM    7  C5  UNL     1      28.336   6.265 -19.609  1.00  0.00     0.064 C
HETATM    8  S1  UNL     1      26.286   4.583 -20.083  1.00  0.00    -0.086 SA
ENDROOT
BRANCH   6   9
HETATM    9  C6  UNL     1      28.959   3.981 -20.394  1.00  0.00     0.216 C
BRANCH   9  10
HETATM   10  O3  UNL     1      29.600   3.733 -21.592  1.00  0.00    -0.397 OA
ATOM     11  H3  UNL     1      30.271   3.067 -21.504  1.00  0.00     0.209 HD
ENDBRANCH   9  10
ENDBRANCH   6   9
TORSDOF 2
ENDMDL