MODEL 2
REMARK VINA RESULT: -4.153001841      2.598      4.588
REMARK  3 active torsions:
REMARK  status: ('A' for Active; 'I' for Inactive)
REMARK    1  A    between atoms: C2_2  and  N1_4
REMARK    2  A    between atoms: C4_6  and  O1_8
REMARK    3  A    between atoms: O1_8  and  C5_9
ROOT
HETATM    1  C5  UNL     1      23.079  -1.389 -23.506  1.00  0.00     0.301 C
HETATM    2  C6  UNL     1      21.719  -0.863 -23.507  1.00  0.00     0.085 C
HETATM    3  N2  UNL     1      20.643  -0.448 -23.525  1.00  0.00    -0.195 NA
ENDROOT
BRANCH   1   4
HETATM    4  O1  UNL     1      24.048  -0.430 -23.787  1.00  0.00    -0.316 OA
BRANCH   4   5
HETATM    5  C4  UNL     1      24.591   0.328 -22.754  1.00  0.00     0.190 C
HETATM    6  N1  UNL     1      24.967   1.525 -23.055  1.00  0.00    -0.361 N
ATOM      7  H1  UNL     1      24.868   1.887 -24.003  1.00  0.00     0.162 HD
HETATM    8  S1  UNL     1      24.756  -0.333 -21.093  1.00  0.00    -0.005 SA
BRANCH   6   9
HETATM    9  C2  UNL     1      25.535   2.335 -22.000  1.00  0.00     0.076 C
HETATM   10  C1  UNL     1      24.731   3.635 -21.957  1.00  0.00     0.032 C
HETATM   11  C3  UNL     1      26.975   2.646 -22.264  1.00  0.00     0.032 C
ENDBRANCH   6   9
ENDBRANCH   4   5
ENDBRANCH   1   4
TORSDOF 3
ENDMDL