MODEL 2
REMARK VINA RESULT: -4.472567853      1.200      2.317
REMARK  2 active torsions:
REMARK  status: ('A' for Active; 'I' for Inactive)
REMARK    1  A    between atoms: C2_2  and  C3_3
REMARK    2  A    between atoms: C3_3  and  O1_4
ROOT
HETATM    1  C1  UNL     1      23.997   0.347 -22.810  1.00  0.00     0.054 C
HETATM    2  C2  UNL     1      23.783  -1.077 -22.421  1.00  0.00     0.135 C
HETATM    3  C4  UNL     1      22.618  -1.117 -21.434  1.00  0.00     0.214 C
HETATM    4  O2  UNL     1      23.210  -0.956 -20.160  1.00  0.00    -0.350 OA
HETATM    5  C5  UNL     1      23.852  -2.161 -19.882  1.00  0.00     0.189 C
HETATM    6  C6  UNL     1      22.832  -3.081 -19.268  1.00  0.00     0.081 C
HETATM    7  C7  UNL     1      25.020  -1.979 -18.930  1.00  0.00     0.081 C
HETATM    8  O3  UNL     1      24.382  -2.670 -21.069  1.00  0.00    -0.201 OA
HETATM    9  O4  UNL     1      24.874  -1.627 -21.746  1.00  0.00    -0.223 OA
ENDROOT
BRANCH   2  10
HETATM   10  C3  UNL     1      23.478  -1.910 -23.646  1.00  0.00     0.207 C
BRANCH  10  11
HETATM   11  O1  UNL     1      23.526  -1.157 -24.811  1.00  0.00    -0.398 OA
ATOM     12  H1  UNL     1      24.259  -1.403 -25.363  1.00  0.00     0.209 HD
ENDBRANCH  10  11
ENDBRANCH   2  10
TORSDOF 2
ENDMDL