MODEL 4
REMARK VINA RESULT: -4.799106562      1.912      2.171
REMARK  2 active torsions:
REMARK  status: ('A' for Active; 'I' for Inactive)
REMARK    1  A    between atoms: C3_3  and  S1_4
REMARK    2  A    between atoms: S1_4  and  C4_5
ROOT
HETATM    1  C1  UNL     1      22.401  -1.956 -20.295  1.00  0.00     0.015 C
HETATM    2  C2  UNL     1      23.224  -1.123 -21.224  1.00  0.00     0.057 C
HETATM    3  C3  UNL     1      23.345  -1.784 -22.592  1.00  0.00     0.271 C
HETATM    4  N2  UNL     1      24.391  -0.960 -23.175  1.00  0.00    -0.032 N
ATOM      5  H21 UNL     1      24.066  -0.065 -23.541  1.00  0.00     0.281 HD
ATOM      6  H22 UNL     1      24.761  -1.312 -24.059  1.00  0.00     0.281 HD
HETATM    7  C5  UNL     1      25.384  -0.848 -22.110  1.00  0.00     0.352 A
HETATM    8  O1  UNL     1      25.283   0.233 -21.227  1.00  0.00    -0.347 OA
HETATM    9  C6  UNL     1      24.667  -1.005 -20.842  1.00  0.00     0.187 A
ENDROOT
BRANCH   3  10
HETATM   10  S1  UNL     1      21.779  -1.683 -23.448  1.00  0.00    -0.017 SA
BRANCH  10  11
HETATM   11  C4  UNL     1      21.368  -0.006 -23.745  1.00  0.00     0.135 C
HETATM   12  N1  UNL     1      21.409   1.104 -24.070  1.00  0.00    -0.184 NA
ENDBRANCH  10  11
ENDBRANCH   3  10
TORSDOF 2
ENDMDL