MODEL 1
REMARK VINA RESULT: -3.639043992      0.000      0.000
REMARK  2 active torsions:
REMARK  status: ('A' for Active; 'I' for Inactive)
REMARK    1  A    between atoms: S1_2  and  C2_3
REMARK    2  A    between atoms: N2_9  and  O1_10
ROOT
HETATM    1  C2  UNL     1      23.492  -0.938 -20.953  1.00  0.00     0.181 C
HETATM    2  C3  UNL     1      24.714  -0.999 -21.827  1.00  0.00     0.249 C
HETATM    3  C4  UNL     1      24.897  -2.362 -22.438  1.00  0.00     0.045 C
HETATM    4  N1  UNL     1      24.331  -0.093 -22.905  1.00  0.00     0.105 N
HETATM    5  C5  UNL     1      24.698   1.235 -22.493  1.00  0.00     0.312 C
HETATM    6  C6  UNL     1      22.912  -0.277 -23.073  1.00  0.00     0.393 C
HETATM    7  N2  UNL     1      22.384  -0.807 -21.848  1.00  0.00    -0.155 NA
ENDROOT
BRANCH   1   8
HETATM    8  S1  UNL     1      23.371  -2.293 -19.789  1.00  0.00    -0.149 SA
HETATM    9  C1  UNL     1      24.860  -2.276 -18.734  1.00  0.00     0.091 C
ENDBRANCH   1   8
BRANCH   7  10
HETATM   10  O1  UNL     1      21.641  -1.909 -21.992  1.00  0.00    -0.310 OA
ATOM     11  H1  UNL     1      21.441  -2.144 -22.891  1.00  0.00     0.237 HD
ENDBRANCH   7  10
TORSDOF 2
ENDMDL