MODEL 2
REMARK VINA RESULT: -4.770693134      2.138      4.013
REMARK  1 active torsions:
REMARK  status: ('A' for Active; 'I' for Inactive)
REMARK    1  A    between atoms: O1_1  and  N1_3
ROOT
HETATM    1  N1  UNL     1      22.915  -2.199 -19.288  1.00  0.00    -0.174 NA
HETATM    2  C1  UNL     1      24.259  -2.175 -19.744  1.00  0.00     0.149 C
HETATM    3  C2  UNL     1      24.442  -1.820 -21.182  1.00  0.00     0.188 C
HETATM    4  O2  UNL     1      23.730  -0.715 -21.594  1.00  0.00    -0.354 OA
HETATM    5  C3  UNL     1      22.580  -1.124 -22.208  1.00  0.00     0.165 C
HETATM    6  C4  UNL     1      22.674  -1.497 -23.664  1.00  0.00     0.069 C
HETATM    7  C5  UNL     1      21.249  -0.942 -23.801  1.00  0.00     0.011 C
HETATM    8  C6  UNL     1      21.603  -0.039 -22.610  1.00  0.00     0.069 C
HETATM    9  O3  UNL     1      21.943  -2.047 -21.391  1.00  0.00    -0.339 OA
HETATM   10  C7  UNL     1      21.973  -1.496 -20.089  1.00  0.00     0.291 C
ENDROOT
BRANCH   1  11
HETATM   11  O1  UNL     1      22.438  -3.423 -19.003  1.00  0.00    -0.311 OA
ATOM     12  H1  UNL     1      22.976  -3.932 -18.408  1.00  0.00     0.237 HD
ENDBRANCH   1  11
TORSDOF 1
ENDMDL