MODEL 3
REMARK VINA RESULT: -4.539056231      1.869      3.093
REMARK  2 active torsions:
REMARK  status: ('A' for Active; 'I' for Inactive)
REMARK    1  A    between atoms: C2_2  and  C3_4
REMARK    2  A    between atoms: N1_7  and  O2_8
ROOT
HETATM    1  C3  UNL     1      22.835  -0.570 -21.200  1.00  0.00     0.137 C
HETATM    2  S1  UNL     1      24.661  -0.813 -21.165  1.00  0.00    -0.138 SA
HETATM    3  C4  UNL     1      24.737  -1.729 -22.759  1.00  0.00     0.195 C
HETATM    4  N1  UNL     1      23.336  -1.894 -23.078  1.00  0.00    -0.185 NA
HETATM    5  C5  UNL     1      22.649  -0.693 -22.697  1.00  0.00     0.103 C
HETATM    6  C6  UNL     1      21.222  -0.801 -23.112  1.00  0.00     0.030 C
ENDROOT
BRANCH   1   7
HETATM    7  C2  UNL     1      22.245  -1.701 -20.485  1.00  0.00     0.138 C
HETATM    8  C1  UNL     1      23.081  -2.597 -19.648  1.00  0.00     0.092 C
HETATM    9  O1  UNL     1      21.050  -1.938 -20.558  1.00  0.00    -0.297 OA
ENDBRANCH   1   7
BRANCH   4  10
HETATM   10  O2  UNL     1      23.225  -1.991 -24.441  1.00  0.00    -0.312 OA
ATOM     11  H2  UNL     1      22.519  -1.417 -24.717  1.00  0.00     0.237 HD
ENDBRANCH   4  10
TORSDOF 2
ENDMDL