MODEL 3
REMARK VINA RESULT: -4.306164493      1.571      3.588
REMARK  2 active torsions:
REMARK  status: ('A' for Active; 'I' for Inactive)
REMARK    1  A    between atoms: C5_7  and  C7_9
REMARK    2  A    between atoms: C7_9  and  O3_10
ROOT
HETATM    1  C1  UNL     1      24.442  -0.812 -20.038  1.00  0.00     0.048 C
HETATM    2  C2  UNL     1      24.308  -1.218 -21.514  1.00  0.00     0.082 C
HETATM    3  C3  UNL     1      24.965  -2.605 -21.576  1.00  0.00     0.048 C
HETATM    4  C4  UNL     1      25.093  -0.240 -22.311  1.00  0.00     0.247 C
HETATM    5  O1  UNL     1      24.391   0.452 -23.259  1.00  0.00    -0.235 OA
HETATM    6  O2  UNL     1      23.117   0.507 -23.079  1.00  0.00    -0.199 OA
HETATM    7  C5  UNL     1      22.610  -0.772 -23.032  1.00  0.00     0.215 C
HETATM    8  C6  UNL     1      22.990  -1.529 -24.292  1.00  0.00     0.084 C
HETATM    9  O4  UNL     1      23.008  -1.385 -21.881  1.00  0.00    -0.339 OA
ENDROOT
BRANCH   7  10
HETATM   10  C7  UNL     1      21.076  -0.731 -23.021  1.00  0.00     0.235 C
BRANCH  10  11
HETATM   11  O3  UNL     1      20.547  -1.805 -23.704  1.00  0.00    -0.395 OA
ATOM     12  H3  UNL     1      19.617  -1.687 -23.856  1.00  0.00     0.209 HD
ENDBRANCH  10  11
ENDBRANCH   7  10
TORSDOF 2
ENDMDL