MODEL 3
REMARK VINA RESULT: -8.402162046      2.525      3.503
REMARK  13 active torsions:
REMARK  status: ('A' for Active; 'I' for Inactive)
REMARK    1  A    between atoms: O1_2  and  C2_3
REMARK    2  A    between atoms: C5_7  and  C6_8
REMARK    3  A    between atoms: C6_8  and  C7_9
REMARK    4  A    between atoms: C7_9  and  N1_10
REMARK    5  A    between atoms: N1_10  and  C8_12
REMARK    6  A    between atoms: C14_24  and  O2_25
REMARK    7  A    between atoms: N5_27  and  C15_28
REMARK    8  A    between atoms: C15_28  and  C16_29
REMARK    9  A    between atoms: C23_38  and  O3_39
REMARK   10  A    between atoms: O3_39  and  C24_40
REMARK   11  A    between atoms: C24_40  and  C25_41
REMARK   12  A    between atoms: C25_41  and  C26_42
REMARK   13  A    between atoms: C26_42  and  N6_43
ROOT
HETATM    1  C8  UNL     1      36.412 -28.010 -37.357  1.00  0.00     0.137 A
HETATM    2  N2  UNL     1      36.327 -28.737 -38.496  1.00  0.00    -0.337 N
ATOM      3  H2  UNL     1      36.333 -29.756 -38.449  1.00  0.00     0.168 HD
HETATM    4  C9  UNL     1      36.235 -28.124 -39.683  1.00  0.00     0.183 A
HETATM    5  N3  UNL     1      36.224 -26.787 -39.774  1.00  0.00    -0.336 N
ATOM      6  H3  UNL     1      36.153 -26.359 -40.698  1.00  0.00     0.168 HD
HETATM    7  C10 UNL     1      36.304 -25.989 -38.700  1.00  0.00     0.145 A
HETATM    8  C11 UNL     1      36.398 -26.637 -37.482  1.00  0.00     0.122 A
HETATM    9  N4  UNL     1      36.482 -25.862 -36.396  1.00  0.00    -0.350 N
ATOM     10  H4  UNL     1      36.551 -26.319 -35.487  1.00  0.00     0.166 HD
HETATM   11  C12 UNL     1      36.482 -24.530 -36.427  1.00  0.00     0.058 A
HETATM   12  C13 UNL     1      36.576 -23.684 -35.209  1.00  0.00     0.072 C
HETATM   13  C14 UNL     1      36.384 -23.938 -37.682  1.00  0.00     0.171 A
HETATM   14  N5  UNL     1      36.292 -24.626 -38.835  1.00  0.00    -0.284 N
ENDROOT
BRANCH   1  15
HETATM   15  N1  UNL     1      36.493 -28.656 -36.282  1.00  0.00    -0.354 N
ATOM     16  H1  UNL     1      37.450 -28.713 -35.935  1.00  0.00     0.166 HD
BRANCH  15  17
HETATM   17  C7  UNL     1      35.582 -29.317 -35.447  1.00  0.00     0.067 C
BRANCH  17  18
HETATM   18  C6  UNL     1      34.470 -28.426 -34.893  1.00  0.00     0.083 C
BRANCH  18  19
HETATM   19  C5  UNL     1      35.004 -27.666 -33.738  1.00  0.00    -0.049 A
HETATM   20  C4  UNL     1      34.345 -26.524 -33.347  1.00  0.00     0.029 A
HETATM   21  C3  UNL     1      34.784 -25.758 -32.277  1.00  0.00     0.047 A
HETATM   22  C2  UNL     1      35.931 -26.188 -31.598  1.00  0.00     0.118 A
HETATM   23 BR1  UNL     1      33.868 -24.177 -31.740  1.00  0.00    -0.048 Br
HETATM   24  C23 UNL     1      36.606 -27.317 -31.962  1.00  0.00     0.103 A
HETATM   25  C22 UNL     1      36.135 -28.054 -33.036  1.00  0.00     0.047 A
BRANCH  22  26
HETATM   26  O1  UNL     1      36.391 -25.438 -30.525  1.00  0.00    -0.352 OA
HETATM   27  C1  UNL     1      37.445 -24.491 -30.672  1.00  0.00     0.210 C
ENDBRANCH  22  26
BRANCH  24  28
HETATM   28  O3  UNL     1      37.745 -27.705 -31.254  1.00  0.00    -0.348 OA
BRANCH  28  29
HETATM   29  C24 UNL     1      37.869 -29.005 -30.714  1.00  0.00     0.181 C
BRANCH  29  30
HETATM   30  C25 UNL     1      38.293 -28.905 -29.274  1.00  0.00     0.072 C
BRANCH  30  31
HETATM   31  C26 UNL     1      37.211 -28.596 -28.315  1.00  0.00     0.070 C
BRANCH  31  32
HETATM   32  N6  UNL     1      37.182 -27.356 -27.680  1.00  0.00    -0.351 N
HETATM   33  C27 UNL     1      38.319 -26.536 -27.720  1.00  0.00     0.095 C
HETATM   34  C28 UNL     1      38.496 -25.541 -26.626  1.00  0.00     0.277 C
HETATM   35  N7  UNL     1      37.292 -25.206 -25.925  1.00  0.00    -0.066 N
HETATM   36  C29 UNL     1      36.525 -26.400 -25.589  1.00  0.00     0.277 C
ATOM     37  H72 UNL     1      37.486 -24.640 -25.099  1.00  0.00     0.277 HD
ATOM     38  H71 UNL     1      36.730 -24.534 -26.448  1.00  0.00     0.277 HD
HETATM   39  C30 UNL     1      36.071 -26.980 -26.909  1.00  0.00     0.095 C
ENDBRANCH  31  32
ENDBRANCH  30  31
ENDBRANCH  29  30
ENDBRANCH  28  29
ENDBRANCH  24  28
ENDBRANCH  18  19
ENDBRANCH  17  18
ENDBRANCH  15  17
ENDBRANCH   1  15
BRANCH  14  40
HETATM   40  C15 UNL     1      36.259 -24.052 -40.140  1.00  0.00     0.115 C
BRANCH  40  41
HETATM   41  C16 UNL     1      35.026 -23.512 -40.673  1.00  0.00     0.019 A
HETATM   42  C17 UNL     1      34.040 -24.428 -41.089  1.00  0.00     0.019 A
HETATM   43  C18 UNL     1      32.869 -23.968 -41.624  1.00  0.00     0.043 A
HETATM   44  C19 UNL     1      32.586 -22.635 -41.786  1.00  0.00     0.119 A
HETATM   45  F1  UNL     1      31.390 -22.223 -42.330  1.00  0.00    -0.206 F
HETATM   46  C20 UNL     1      33.539 -21.743 -41.385  1.00  0.00     0.085 A
HETATM   47  C21 UNL     1      34.746 -22.196 -40.834  1.00  0.00     0.131 A
HETATM   48  F2  UNL     1      35.617 -21.190 -40.482  1.00  0.00    -0.205 F
ENDBRANCH  40  41
ENDBRANCH  14  40
BRANCH  13  49
HETATM   49  O2  UNL     1      36.396 -22.558 -37.707  1.00  0.00    -0.344 OA
ATOM     50  H2  UNL     1      36.822 -22.155 -38.455  1.00  0.00     0.219 HD
ENDBRANCH  13  49
TORSDOF 13
ENDMDL