MODEL 1
REMARK VINA RESULT: -9.252679692      0.000      0.000
REMARK  16 active torsions:
REMARK  status: ('A' for Active; 'I' for Inactive)
REMARK    1  A    between atoms: C2_2  and  C3_3
REMARK    2  A    between atoms: C3_3  and  O1_4
REMARK    3  A    between atoms: C3_3  and  N1_6
REMARK    4  A    between atoms: C5_8  and  N2_9
REMARK    5  A    between atoms: C7_14  and  N4_15
REMARK    6  A    between atoms: N4_15  and  C8_17
REMARK    7  A    between atoms: C11_20  and  C12_21
REMARK    8  A    between atoms: C12_21  and  C13_22
REMARK    9  A    between atoms: C16_30  and  N6_31
REMARK   10  A    between atoms: N6_31  and  C17_33
REMARK   11  A    between atoms: C17_33  and  C18_34
REMARK   12  A    between atoms: C18_34  and  C19_35
REMARK   13  A    between atoms: C19_35  and  C20_36
REMARK   14  A    between atoms: C22_40  and  C23_41
REMARK   15  A    between atoms: C23_41  and  S1_42
REMARK   16  A    between atoms: S1_42  and  C24_44
ROOT
HETATM    1  C20 UNL     1      39.832 -21.943 -40.210  1.00  0.00     0.124 C
HETATM    2  C21 UNL     1      40.161 -21.210 -41.413  1.00  0.00     0.059 C
HETATM    3  N7  UNL     1      40.412 -20.604 -42.377  1.00  0.00    -0.197 NA
ENDROOT
BRANCH   1   4
HETATM    4  C19 UNL     1      41.084 -22.587 -39.634  1.00  0.00     0.016 C
BRANCH   4   5
HETATM    5  C18 UNL     1      41.055 -22.553 -38.116  1.00  0.00     0.021 C
BRANCH   5   6
HETATM    6  C17 UNL     1      40.445 -23.892 -37.674  1.00  0.00     0.138 C
BRANCH   6   7
HETATM    7  N6  UNL     1      39.234 -23.681 -36.953  1.00  0.00    -0.225 N
ATOM      8  H6  UNL     1      39.317 -23.140 -36.093  1.00  0.00     0.177 HD
BRANCH   7   9
HETATM    9  C16 UNL     1      38.059 -24.083 -37.248  1.00  0.00     0.701 A
HETATM   10  N2  UNL     1      37.180 -24.346 -36.243  1.00  0.00    -0.102 N
HETATM   11  C6  UNL     1      35.950 -24.765 -36.569  1.00  0.00     0.357 A
HETATM   12  O2  UNL     1      35.115 -25.016 -35.667  1.00  0.00    -0.245 OA
HETATM   13  N3  UNL     1      35.545 -24.938 -37.837  1.00  0.00    -0.140 N
HETATM   14  C7  UNL     1      36.440 -24.669 -38.796  1.00  0.00     0.701 A
ATOM     15  H3  UNL     1      34.602 -25.259 -38.058  1.00  0.00     0.189 HD
HETATM   16  N5  UNL     1      37.696 -24.242 -38.539  1.00  0.00    -0.022 N
ATOM     17  H5  UNL     1      38.350 -24.046 -39.296  1.00  0.00     0.203 HD
BRANCH  10  18
HETATM   18  C5  UNL     1      37.606 -24.164 -34.871  1.00  0.00     0.269 C
HETATM   19  C4  UNL     1      36.557 -23.493 -34.010  1.00  0.00     0.180 C
HETATM   20  N1  UNL     1      36.468 -23.943 -32.668  1.00  0.00    -0.351 N
HETATM   21  C30 UNL     1      37.286 -25.066 -32.158  1.00  0.00     0.112 C
HETATM   22  C22 UNL     1      38.442 -25.272 -33.064  1.00  0.00     0.158 C
HETATM   23  C31 UNL     1      36.355 -26.256 -32.081  1.00  0.00     0.035 C
HETATM   24  O3  UNL     1      37.898 -25.400 -34.366  1.00  0.00    -0.356 OA
BRANCH  20  25
HETATM   25  C3  UNL     1      35.596 -23.361 -31.732  1.00  0.00     0.137 C
BRANCH  25  26
HETATM   26  C2  UNL     1      34.173 -23.298 -31.738  1.00  0.00     0.045 C
HETATM   27  C1  UNL     1      33.239 -24.132 -31.414  1.00  0.00     0.015 C
ENDBRANCH  25  26
BRANCH  25  28
HETATM   28  O1  UNL     1      36.198 -22.796 -30.704  1.00  0.00    -0.346 OA
ATOM     29  H1  UNL     1      37.137 -22.670 -30.785  1.00  0.00     0.219 HD
ENDBRANCH  25  28
ENDBRANCH  20  25
BRANCH  22  30
HETATM   30  C23 UNL     1      39.245 -26.507 -32.840  1.00  0.00     0.148 C
BRANCH  30  31
HETATM   31  S1  UNL     1      40.855 -26.231 -32.168  1.00  0.00     0.052 S
HETATM   32  O4  UNL     1      41.915 -27.430 -32.695  1.00  0.00    -0.253 OA
BRANCH  31  33
HETATM   33  C24 UNL     1      41.390 -24.653 -32.750  1.00  0.00     0.031 A
HETATM   34  C25 UNL     1      41.370 -23.562 -31.901  1.00  0.00     0.021 A
HETATM   35  C26 UNL     1      41.780 -22.303 -32.307  1.00  0.00     0.001 A
HETATM   36  C27 UNL     1      42.233 -22.123 -33.620  1.00  0.00     0.000 A
HETATM   37  C28 UNL     1      42.258 -23.200 -34.473  1.00  0.00     0.001 A
HETATM   38  C29 UNL     1      41.840 -24.434 -34.029  1.00  0.00     0.021 A
ENDBRANCH  31  33
ENDBRANCH  30  31
ENDBRANCH  22  30
ENDBRANCH  10  18
BRANCH  14  39
HETATM   39  N4  UNL     1      36.092 -24.824 -40.029  1.00  0.00    -0.191 N
ATOM     40  H4  UNL     1      36.570 -25.521 -40.600  1.00  0.00     0.184 HD
BRANCH  39  41
HETATM   41  C8  UNL     1      35.050 -24.034 -40.609  1.00  0.00     0.049 A
HETATM   42  C9  UNL     1      33.886 -24.641 -41.075  1.00  0.00     0.030 A
HETATM   43  C10 UNL     1      32.888 -23.878 -41.631  1.00  0.00     0.009 A
HETATM   44  C11 UNL     1      33.032 -22.503 -41.731  1.00  0.00    -0.050 A
HETATM   45  C14 UNL     1      34.191 -21.923 -41.263  1.00  0.00     0.009 A
HETATM   46  C15 UNL     1      35.202 -22.670 -40.704  1.00  0.00     0.030 A
BRANCH  44  47
HETATM   47  C12 UNL     1      31.946 -21.696 -42.332  1.00  0.00     0.155 C
BRANCH  47  48
HETATM   48  C13 UNL     1      30.696 -21.853 -41.525  1.00  0.00     0.391 C
HETATM   49  F1  UNL     1      30.618 -23.088 -40.930  1.00  0.00    -0.171 F
HETATM   50  F2  UNL     1      30.656 -20.893 -40.532  1.00  0.00    -0.171 F
HETATM   51  F3  UNL     1      29.584 -21.644 -42.316  1.00  0.00    -0.171 F
ENDBRANCH  47  48
ENDBRANCH  44  47
ENDBRANCH  39  41
ENDBRANCH  14  39
ENDBRANCH   7   9
ENDBRANCH   6   7
ENDBRANCH   5   6
ENDBRANCH   4   5
ENDBRANCH   1   4
TORSDOF 16
ENDMDL