MODEL 2
REMARK VINA RESULT: -8.037695456      0.996      1.267
REMARK  12 active torsions:
REMARK  status: ('A' for Active; 'I' for Inactive)
REMARK    1  A    between atoms: C3_3  and  O1_4
REMARK    2  A    between atoms: O1_4  and  C4_5
REMARK    3  A    between atoms: C11_15  and  C12_16
REMARK    4  A    between atoms: C12_16  and  O3_17
REMARK    5  A    between atoms: O3_17  and  C13_18
REMARK    6  A    between atoms: C13_18  and  C14_19
REMARK    7  A    between atoms: C14_19  and  O4_20
REMARK    8  A    between atoms: C15_22  and  C16_23
REMARK    9  A    between atoms: C16_23  and  S1_24
REMARK   10  A    between atoms: S1_24  and  O7_27
REMARK   11  A    between atoms: O7_27  and  C17_28
REMARK   12  A    between atoms: C20_31  and  C21_32
ROOT
HETATM    1  C1  UNL     1      36.690 -28.039 -41.910  1.00  0.00     0.014 C
HETATM    2  C2  UNL     1      36.877 -28.058 -40.721  1.00  0.00    -0.091 C
HETATM    3  C3  UNL     1      37.094 -28.062 -39.258  1.00  0.00     0.261 C
ENDROOT
BRANCH   3   4
HETATM    4  O1  UNL     1      36.311 -27.074 -38.731  1.00  0.00    -0.369 OA
BRANCH   4   5
HETATM    5  C4  UNL     1      36.715 -26.579 -37.514  1.00  0.00     0.166 C
HETATM    6  C5  UNL     1      35.908 -27.063 -36.370  1.00  0.00     0.007 A
HETATM    7  C6  UNL     1      35.502 -28.405 -36.370  1.00  0.00     0.031 A
HETATM    8  C10 UNL     1      35.543 -26.275 -35.310  1.00  0.00     0.095 A
HETATM    9  C7  UNL     1      34.764 -28.887 -35.332  1.00  0.00     0.013 A
HETATM   10 BR1  UNL     1      34.236 -30.730 -35.385  1.00  0.00    -0.051 Br
HETATM   11  C8  UNL     1      34.407 -28.079 -34.278  1.00  0.00     0.041 A
HETATM   12  C9  UNL     1      34.788 -26.765 -34.247  1.00  0.00     0.046 A
HETATM   13 BR2  UNL     1      34.339 -25.587 -32.834  1.00  0.00    -0.048 Br
HETATM   14  O2  UNL     1      35.950 -24.953 -35.324  1.00  0.00    -0.341 OA
HETATM   15  C11 UNL     1      36.979 -24.488 -36.167  1.00  0.00     0.160 C
HETATM   16  C15 UNL     1      36.790 -25.039 -37.517  1.00  0.00     0.067 C
BRANCH  15  17
HETATM   17  C12 UNL     1      38.267 -24.701 -35.484  1.00  0.00     0.200 C
BRANCH  17  18
HETATM   18  O3  UNL     1      39.265 -23.778 -35.828  1.00  0.00    -0.387 OA
BRANCH  18  19
HETATM   19  C13 UNL     1      40.460 -24.377 -36.118  1.00  0.00     0.193 C
BRANCH  19  20
HETATM   20  C14 UNL     1      41.292 -23.671 -37.149  1.00  0.00     0.190 C
BRANCH  20  21
HETATM   21  O4  UNL     1      41.002 -22.322 -37.228  1.00  0.00    -0.399 OA
ATOM     22  H4  UNL     1      41.064 -21.887 -36.385  1.00  0.00     0.209 HD
ENDBRANCH  20  21
ENDBRANCH  19  20
ENDBRANCH  18  19
ENDBRANCH  17  18
ENDBRANCH  15  17
BRANCH  16  23
HETATM   23  C16 UNL     1      37.677 -24.602 -38.618  1.00  0.00     0.181 C
BRANCH  23  24
HETATM   24  S1  UNL     1      37.511 -22.918 -39.115  1.00  0.00     0.271 S
HETATM   25  O5  UNL     1      38.743 -22.109 -39.022  1.00  0.00    -0.198 OA
HETATM   26  O6  UNL     1      36.481 -22.283 -38.194  1.00  0.00    -0.198 OA
BRANCH  24  27
HETATM   27  O7  UNL     1      36.847 -22.808 -40.694  1.00  0.00    -0.230 OA
BRANCH  27  28
HETATM   28  C17 UNL     1      35.490 -22.778 -40.921  1.00  0.00     0.128 A
HETATM   29  C18 UNL     1      34.756 -21.623 -41.039  1.00  0.00     0.042 A
HETATM   30  C19 UNL     1      33.389 -21.634 -41.266  1.00  0.00     0.020 A
HETATM   31  C20 UNL     1      32.737 -22.826 -41.381  1.00  0.00     0.032 A
HETATM   32  C22 UNL     1      33.440 -24.009 -41.269  1.00  0.00     0.061 A
HETATM   33  C23 UNL     1      34.812 -23.969 -41.039  1.00  0.00     0.151 A
HETATM   34  F1  UNL     1      35.426 -25.181 -40.943  1.00  0.00    -0.203 F
BRANCH  31  35
HETATM   35  C21 UNL     1      31.288 -22.834 -41.623  1.00  0.00     0.265 C
HETATM   36  N1  UNL     1      30.504 -24.001 -41.453  1.00  0.00    -0.057 NA
HETATM   37  O8  UNL     1      30.718 -21.782 -41.992  1.00  0.00    -0.271 OA
ENDBRANCH  31  35
ENDBRANCH  27  28
ENDBRANCH  24  27
ENDBRANCH  23  24
ENDBRANCH  16  23
ENDBRANCH   4   5
ENDBRANCH   3   4
TORSDOF 12
ENDMDL