MODEL 5
REMARK VINA RESULT: -8.500551535      3.242      5.914
REMARK  12 active torsions:
REMARK  status: ('A' for Active; 'I' for Inactive)
REMARK    1  A    between atoms: C2_2  and  C3_3
REMARK    2  A    between atoms: C3_3  and  C4_4
REMARK    3  A    between atoms: C4_4  and  C5_5
REMARK    4  A    between atoms: C7_11  and  S1_12
REMARK    5  A    between atoms: S1_12  and  C8_13
REMARK    6  A    between atoms: C8_13  and  C9_14
REMARK    7  A    between atoms: C9_14  and  C10_15
REMARK    8  A    between atoms: C10_15  and  C11_16
REMARK    9  A    between atoms: C11_16  and  N3_17
REMARK   10  A    between atoms: N4_20  and  C14_21
REMARK   11  A    between atoms: C14_21  and  C15_23
REMARK       I    between atoms: N5_28  and  C19_29
REMARK   12  A    between atoms: C19_29  and  C20_31
ROOT
HETATM    1  N3  UNL     1      36.637 -29.241 -35.196  1.00  0.00     0.091 N
HETATM    2  C12 UNL     1      37.738 -28.303 -35.261  1.00  0.00     0.302 C
HETATM    3  C13 UNL     1      37.834 -27.379 -34.094  1.00  0.00     0.304 C
HETATM    4  N4  UNL     1      36.572 -26.754 -33.862  1.00  0.00     0.112 N
HETATM    5  C27 UNL     1      35.500 -27.712 -33.673  1.00  0.00     0.304 C
HETATM    6  C28 UNL     1      35.382 -28.659 -34.843  1.00  0.00     0.302 C
ENDROOT
BRANCH   1   7
HETATM    7  C11 UNL     1      36.581 -29.872 -36.504  1.00  0.00     0.272 C
BRANCH   7   8
HETATM    8  C10 UNL     1      36.377 -28.903 -37.616  1.00  0.00     0.031 C
BRANCH   8   9
HETATM    9  C9  UNL     1      36.763 -29.554 -38.920  1.00  0.00     0.012 C
BRANCH   9  10
HETATM   10  C8  UNL     1      37.571 -28.689 -39.831  1.00  0.00     0.082 C
BRANCH  10  11
HETATM   11  S1  UNL     1      37.906 -27.100 -38.972  1.00  0.00    -0.094 SA
BRANCH  11  12
HETATM   12  C7  UNL     1      36.905 -25.792 -39.686  1.00  0.00     0.148 A
HETATM   13  N2  UNL     1      35.600 -26.005 -39.945  1.00  0.00    -0.321 N
HETATM   14  C6  UNL     1      34.811 -25.031 -40.483  1.00  0.00     0.141 A
ATOM     15  H2  UNL     1      35.192 -26.916 -39.733  1.00  0.00     0.169 HD
HETATM   16  N1  UNL     1      33.526 -24.967 -40.833  1.00  0.00    -0.330 N
HETATM   17  C30 UNL     1      35.363 -23.802 -40.768  1.00  0.00     0.147 A
HETATM   18  C5  UNL     1      33.248 -23.753 -41.323  1.00  0.00     0.083 A
ATOM     19  H1  UNL     1      32.854 -25.729 -40.740  1.00  0.00     0.168 HD
HETATM   20  N8  UNL     1      34.382 -23.044 -41.280  1.00  0.00    -0.338 N
ATOM     21  H8  UNL     1      34.484 -22.078 -41.589  1.00  0.00     0.167 HD
HETATM   22  C29 UNL     1      36.696 -23.598 -40.499  1.00  0.00     0.278 A
HETATM   23  N7  UNL     1      37.442 -24.606 -39.959  1.00  0.00    -0.302 N
HETATM   24  O2  UNL     1      37.207 -22.478 -40.757  1.00  0.00    -0.265 OA
ATOM     25  H7  UNL     1      38.430 -24.446 -39.762  1.00  0.00     0.171 HD
BRANCH  18  26
HETATM   26  C4  UNL     1      31.941 -23.282 -41.822  1.00  0.00     0.076 C
BRANCH  26  27
HETATM   27  C3  UNL     1      31.676 -21.860 -41.395  1.00  0.00     0.007 C
BRANCH  27  28
HETATM   28  C2  UNL     1      30.238 -21.464 -41.639  1.00  0.00    -0.004 C
HETATM   29  C1  UNL     1      30.032 -20.046 -41.094  1.00  0.00     0.005 C
ENDBRANCH  27  28
ENDBRANCH  26  27
ENDBRANCH  18  26
ENDBRANCH  11  12
ENDBRANCH  10  11
ENDBRANCH   9  10
ENDBRANCH   8   9
ENDBRANCH   7   8
ENDBRANCH   1   7
BRANCH   4  30
HETATM   30  C14 UNL     1      36.222 -25.693 -34.744  1.00  0.00     0.341 C
HETATM   31 CL1  UNL     1      34.482 -25.589 -35.048  1.00  0.00    -0.090 Cl
BRANCH  30  32
HETATM   32  C15 UNL     1      36.783 -24.352 -34.454  1.00  0.00     0.138 C
HETATM   33  C16 UNL     1      35.626 -23.450 -33.980  1.00  0.00     0.067 C
HETATM   34  C17 UNL     1      35.780 -23.350 -32.479  1.00  0.00     0.190 C
HETATM   35  F1  UNL     1      34.634 -23.636 -31.784  1.00  0.00    -0.248 F
HETATM   36  C18 UNL     1      36.971 -24.162 -32.098  1.00  0.00     0.163 C
HETATM   37  N5  UNL     1      37.694 -24.228 -33.372  1.00  0.00    -0.340 N
HETATM   38  C19 UNL     1      39.106 -24.139 -33.433  1.00  0.00     0.254 C
HETATM   39  O1  UNL     1      39.671 -24.156 -34.543  1.00  0.00    -0.271 OA
BRANCH  38  40
HETATM   40  C20 UNL     1      39.943 -24.026 -32.199  1.00  0.00     0.317 C
HETATM   41  C21 UNL     1      40.140 -25.464 -31.689  1.00  0.00     0.085 C
HETATM   42  C22 UNL     1      41.627 -25.537 -31.294  1.00  0.00     0.206 C
HETATM   43  F2  UNL     1      42.272 -26.202 -32.294  1.00  0.00    -0.247 F
HETATM   44  C23 UNL     1      41.975 -24.094 -31.322  1.00  0.00     0.258 C
HETATM   45  C24 UNL     1      43.366 -23.747 -31.698  1.00  0.00     0.040 C
HETATM   46  N6  UNL     1      41.272 -23.706 -32.565  1.00  0.00     0.109 N
HETATM   47  C25 UNL     1      43.138 -22.399 -32.405  1.00  0.00     0.033 C
HETATM   48  C26 UNL     1      41.622 -22.336 -32.639  1.00  0.00     0.274 C
ENDBRANCH  38  40
ENDBRANCH  30  32
ENDBRANCH   4  30
TORSDOF 12
ENDMDL