MODEL 4
REMARK VINA RESULT: -8.032575247      3.492      7.168
REMARK  14 active torsions:
REMARK  status: ('A' for Active; 'I' for Inactive)
REMARK    1  A    between atoms: O1_1  and  C1_3
REMARK    2  A    between atoms: C1_3  and  C2_4
REMARK    3  A    between atoms: C1_3  and  C22_31
REMARK    4  A    between atoms: C2_4  and  N1_5
REMARK    5  A    between atoms: N2_8  and  C5_9
REMARK    6  A    between atoms: C5_9  and  C6_10
REMARK    7  A    between atoms: C6_10  and  C7_11
REMARK    8  A    between atoms: C7_11  and  O2_12
REMARK    9  A    between atoms: C7_11  and  C8_14
REMARK   10  A    between atoms: C7_11  and  C14_22
REMARK   11  A    between atoms: C8_14  and  C9_15
REMARK   12  A    between atoms: C9_15  and  N3_16
REMARK   13  A    between atoms: C22_31  and  N4_32
REMARK   14  A    between atoms: C24_39  and  C25_40
ROOT
HETATM    1  N1  UNL     1      39.112 -24.038 -36.395  1.00  0.00     0.094 N
HETATM    2  C3  UNL     1      37.849 -23.821 -37.117  1.00  0.00     0.302 C
HETATM    3  C4  UNL     1      37.922 -22.709 -38.114  1.00  0.00     0.302 C
HETATM    4  N2  UNL     1      38.722 -23.130 -39.285  1.00  0.00     0.092 N
HETATM    5  C20 UNL     1      39.685 -24.093 -38.727  1.00  0.00     0.302 C
HETATM    6  C21 UNL     1      40.103 -23.543 -37.366  1.00  0.00     0.302 C
ENDROOT
BRANCH   1   7
HETATM    7  C2  UNL     1      39.255 -25.449 -36.203  1.00  0.00     0.305 C
BRANCH   7   8
HETATM    8  C1  UNL     1      38.520 -26.056 -35.033  1.00  0.00     0.166 C
BRANCH   8   9
HETATM    9  O1  UNL     1      38.589 -25.202 -33.963  1.00  0.00    -0.392 OA
ATOM     10  H1  UNL     1      37.711 -25.017 -33.652  1.00  0.00     0.210 HD
ENDBRANCH   8   9
BRANCH   8  11
HETATM   11  C22 UNL     1      38.951 -27.453 -34.789  1.00  0.00     0.184 C
BRANCH  11  12
HETATM   12  N4  UNL     1      37.923 -28.469 -34.842  1.00  0.00    -0.272 N
HETATM   13  N5  UNL     1      38.063 -29.709 -35.535  1.00  0.00    -0.239 N
HETATM   14  N6  UNL     1      37.005 -30.385 -35.439  1.00  0.00    -0.277 N
ATOM     15  H5  UNL     1      38.900 -30.006 -36.036  1.00  0.00     0.208 HD
HETATM   16  C23 UNL     1      36.034 -29.673 -34.670  1.00  0.00     0.125 A
ATOM     17  H6  UNL     1      36.863 -31.307 -35.851  1.00  0.00     0.189 HD
HETATM   18 BR1  UNL     1      34.265 -30.197 -34.185  1.00  0.00    -0.027 Br
HETATM   19  C24 UNL     1      36.632 -28.496 -34.316  1.00  0.00     0.098 A
BRANCH  19  20
HETATM   20  C25 UNL     1      35.927 -27.496 -33.526  1.00  0.00    -0.005 A
HETATM   21  C26 UNL     1      36.270 -27.100 -32.252  1.00  0.00     0.015 A
HETATM   22  C27 UNL     1      35.561 -26.127 -31.598  1.00  0.00     0.024 A
HETATM   23  C28 UNL     1      34.484 -25.538 -32.224  1.00  0.00     0.034 A
HETATM   24 CL1  UNL     1      33.555 -24.275 -31.407  1.00  0.00    -0.084 Cl
HETATM   25  C29 UNL     1      34.087 -25.894 -33.503  1.00  0.00     0.024 A
HETATM   26  C30 UNL     1      34.825 -26.870 -34.118  1.00  0.00     0.015 A
ENDBRANCH  19  20
ENDBRANCH  11  12
ENDBRANCH   8  11
ENDBRANCH   7   8
ENDBRANCH   1   7
BRANCH   4  27
HETATM   27  C5  UNL     1      37.814 -23.808 -40.184  1.00  0.00     0.276 C
BRANCH  27  28
HETATM   28  C6  UNL     1      36.425 -23.332 -40.203  1.00  0.00     0.073 C
BRANCH  28  29
HETATM   29  C7  UNL     1      35.314 -24.315 -40.324  1.00  0.00     0.088 C
BRANCH  29  30
HETATM   30  O2  UNL     1      34.991 -24.776 -39.020  1.00  0.00    -0.385 OA
ATOM     31  H2  UNL     1      35.371 -25.639 -38.912  1.00  0.00     0.211 HD
ENDBRANCH  29  30
BRANCH  29  32
HETATM   32  C8  UNL     1      35.606 -25.544 -41.127  1.00  0.00     0.073 C
BRANCH  32  33
HETATM   33  C9  UNL     1      35.588 -26.807 -40.361  1.00  0.00     0.276 C
BRANCH  33  34
HETATM   34  N3  UNL     1      36.865 -27.480 -40.229  1.00  0.00     0.092 N
HETATM   35  C10 UNL     1      36.686 -28.932 -40.350  1.00  0.00     0.298 C
HETATM   36  C11 UNL     1      36.737 -29.594 -38.973  1.00  0.00     0.198 C
HETATM   37  O3  UNL     1      35.973 -28.851 -38.111  1.00  0.00    -0.388 OA
HETATM   38  C12 UNL     1      36.550 -27.602 -37.826  1.00  0.00     0.198 C
HETATM   39  C13 UNL     1      37.477 -27.190 -38.938  1.00  0.00     0.298 C
ENDBRANCH  33  34
ENDBRANCH  32  33
ENDBRANCH  29  32
BRANCH  29  40
HETATM   40  C14 UNL     1      34.136 -23.559 -40.844  1.00  0.00    -0.024 A
HETATM   41  C15 UNL     1      34.162 -22.210 -40.972  1.00  0.00     0.013 A
HETATM   42  C16 UNL     1      33.034 -21.568 -41.471  1.00  0.00     0.043 A
HETATM   43  C17 UNL     1      31.905 -22.255 -41.831  1.00  0.00     0.116 A
HETATM   44  F1  UNL     1      30.797 -21.605 -42.323  1.00  0.00    -0.206 F
HETATM   45  C18 UNL     1      31.892 -23.615 -41.696  1.00  0.00     0.043 A
HETATM   46  C19 UNL     1      33.006 -24.261 -41.203  1.00  0.00     0.013 A
ENDBRANCH  29  40
ENDBRANCH  28  29
ENDBRANCH  27  28
ENDBRANCH   4  27
TORSDOF 14
ENDMDL