MODEL 5
REMARK VINA RESULT: -8.512376987      3.035      6.274
REMARK  13 active torsions:
REMARK  status: ('A' for Active; 'I' for Inactive)
REMARK    1  A    between atoms: C5_5  and  C6_6
REMARK    2  A    between atoms: C7_11  and  N3_12
REMARK    3  A    between atoms: N3_12  and  C8_14
REMARK    4  A    between atoms: C8_14  and  C9_15
REMARK    5  A    between atoms: C9_15  and  C10_16
REMARK    6  A    between atoms: C10_16  and  N4_17
REMARK    7  A    between atoms: C17_25  and  N6_26
REMARK    8  A    between atoms: N7_29  and  C20_30
REMARK    9  A    between atoms: C20_30  and  C21_31
REMARK   10  A    between atoms: C21_31  and  C22_32
REMARK   11  A    between atoms: C22_32  and  C23_33
REMARK   12  A    between atoms: C27_40  and  C28_41
REMARK   13  A    between atoms: C28_41  and  N8_42
ROOT
HETATM    1  C6  UNL     1      36.272 -26.970 -39.055  1.00  0.00     0.085 A
HETATM    2  N1  UNL     1      36.235 -27.846 -40.138  1.00  0.00    -0.296 N
ATOM      3  H1  UNL     1      35.819 -27.517 -41.009  1.00  0.00     0.187 HD
HETATM    4  N2  UNL     1      36.701 -29.056 -40.098  1.00  0.00    -0.285 N
ATOM      5  H2  UNL     1      36.647 -29.651 -40.924  1.00  0.00     0.188 HD
HETATM    6  C7  UNL     1      37.257 -29.526 -38.957  1.00  0.00     0.121 A
HETATM    7  C16 UNL     1      37.301 -28.708 -37.865  1.00  0.00     0.081 A
HETATM    8  C17 UNL     1      36.794 -27.364 -37.883  1.00  0.00     0.063 A
ENDROOT
BRANCH   1   9
HETATM    9  C5  UNL     1      36.070 -25.600 -39.409  1.00  0.00    -0.005 A
HETATM   10  C4  UNL     1      35.037 -25.542 -40.402  1.00  0.00     0.014 A
HETATM   11  C3  UNL     1      34.626 -24.376 -40.942  1.00  0.00     0.008 A
HETATM   12  C2  UNL     1      35.187 -23.213 -40.552  1.00  0.00    -0.051 A
HETATM   13  C1  UNL     1      34.751 -21.977 -41.210  1.00  0.00     0.049 C
HETATM   14  C27 UNL     1      36.199 -23.204 -39.567  1.00  0.00    -0.019 A
HETATM   15  C26 UNL     1      36.595 -24.417 -39.035  1.00  0.00     0.026 A
BRANCH  14  16
HETATM   16  C28 UNL     1      36.748 -21.897 -39.283  1.00  0.00     0.071 C
BRANCH  16  17
HETATM   17  N8  UNL     1      38.145 -21.608 -39.549  1.00  0.00    -0.290 NA
HETATM   18  C29 UNL     1      38.868 -21.892 -38.278  1.00  0.00     0.114 C
HETATM   19  C30 UNL     1      39.627 -23.164 -38.256  1.00  0.00     0.137 C
HETATM   20  N9  UNL     1      40.944 -23.053 -38.896  1.00  0.00    -0.360 N
HETATM   21  C31 UNL     1      41.121 -22.317 -40.112  1.00  0.00     0.218 C
ATOM     22  H9  UNL     1      41.748 -23.509 -38.466  1.00  0.00     0.162 HD
HETATM   23  O1  UNL     1      42.328 -22.302 -40.467  1.00  0.00    -0.274 OA
HETATM   24  C32 UNL     1      40.098 -21.624 -40.934  1.00  0.00     0.117 C
HETATM   25  C33 UNL     1      38.747 -22.292 -40.631  1.00  0.00     0.104 C
ENDBRANCH  16  17
ENDBRANCH  14  16
ENDBRANCH   1   9
BRANCH   8  26
HETATM   26  N6  UNL     1      36.831 -26.637 -36.681  1.00  0.00    -0.376 N
HETATM   27  C18 UNL     1      37.845 -25.988 -35.964  1.00  0.00     0.153 C
HETATM   28  C19 UNL     1      37.370 -24.589 -35.542  1.00  0.00     0.292 C
HETATM   29  N7  UNL     1      36.361 -24.831 -34.494  1.00  0.00     0.091 N
HETATM   30  C24 UNL     1      35.207 -25.458 -35.162  1.00  0.00     0.292 C
HETATM   31  C25 UNL     1      35.508 -26.629 -35.979  1.00  0.00     0.153 C
BRANCH  29  32
HETATM   32  C20 UNL     1      35.867 -23.532 -34.046  1.00  0.00     0.273 C
BRANCH  32  33
HETATM   33  C21 UNL     1      35.803 -23.494 -32.536  1.00  0.00     0.039 C
BRANCH  33  34
HETATM   34  C22 UNL     1      34.489 -22.921 -32.049  1.00  0.00     0.119 C
BRANCH  34  35
HETATM   35  C23 UNL     1      33.764 -24.050 -31.310  1.00  0.00     0.387 C
HETATM   36  F1  UNL     1      33.453 -25.099 -32.146  1.00  0.00    -0.171 F
HETATM   37  F2  UNL     1      32.582 -23.476 -30.814  1.00  0.00    -0.171 F
HETATM   38  F3  UNL     1      34.507 -24.388 -30.216  1.00  0.00    -0.171 F
ENDBRANCH  34  35
ENDBRANCH  33  34
ENDBRANCH  32  33
ENDBRANCH  29  32
ENDBRANCH   8  26
BRANCH   6  39
HETATM   39  N3  UNL     1      37.796 -30.708 -38.957  1.00  0.00    -0.355 N
ATOM     40  H3  UNL     1      37.188 -31.456 -38.622  1.00  0.00     0.166 HD
BRANCH  39  41
HETATM   41  C8  UNL     1      39.076 -31.119 -39.342  1.00  0.00     0.064 C
BRANCH  41  42
HETATM   42  C9  UNL     1      40.158 -31.032 -38.305  1.00  0.00     0.074 C
BRANCH  42  43
HETATM   43  C10 UNL     1      40.923 -29.780 -38.309  1.00  0.00     0.277 C
BRANCH  43  44
HETATM   44  N4  UNL     1      40.749 -28.782 -39.289  1.00  0.00     0.092 N
HETATM   45  C11 UNL     1      40.487 -27.480 -38.671  1.00  0.00     0.302 C
HETATM   46  C12 UNL     1      41.660 -26.714 -38.218  1.00  0.00     0.302 C
HETATM   47  N5  UNL     1      42.525 -26.508 -39.373  1.00  0.00     0.087 N
HETATM   48  C13 UNL     1      43.557 -25.549 -39.161  1.00  0.00     0.310 C
HETATM   49  C14 UNL     1      43.025 -27.849 -39.687  1.00  0.00     0.302 C
HETATM   50  C15 UNL     1      41.891 -28.672 -40.195  1.00  0.00     0.302 C
ENDBRANCH  43  44
ENDBRANCH  42  43
ENDBRANCH  41  42
ENDBRANCH  39  41
ENDBRANCH   6  39
TORSDOF 13
ENDMDL