MODEL 3
REMARK VINA RESULT: -8.041442027      3.406      6.177
REMARK  14 active torsions:
REMARK  status: ('A' for Active; 'I' for Inactive)
REMARK    1  A    between atoms: C1_2  and  C2_4
REMARK    2  A    between atoms: C2_4  and  C3_5
REMARK    3  A    between atoms: C3_5  and  S1_6
REMARK    4  A    between atoms: S1_6  and  N1_9
REMARK    5  A    between atoms: C7_15  and  O6_16
REMARK    6  A    between atoms: C8_18  and  C9_19
REMARK    7  A    between atoms: C9_19  and  C10_20
REMARK    8  A    between atoms: C10_20  and  O7_21
REMARK    9  A    between atoms: O7_21  and  C11_22
REMARK   10  A    between atoms: C11_22  and  C12_23
REMARK   11  A    between atoms: C13_24  and  C14_25
REMARK   12  A    between atoms: C14_25  and  N2_26
REMARK   13  A    between atoms: C18_32  and  C19_33
REMARK   14  A    between atoms: C19_33  and  C20_34
ROOT
HETATM    1  N1  UNL     1      37.835 -24.183 -38.128  1.00  0.00    -0.280 N
HETATM    2  C4  UNL     1      38.848 -23.212 -37.991  1.00  0.00     0.100 C
HETATM    3  C5  UNL     1      39.998 -23.613 -38.893  1.00  0.00     0.169 C
HETATM    4 BR1  UNL     1      41.600 -22.686 -38.287  1.00  0.00    -0.077 Br
HETATM    5  C6  UNL     1      40.201 -25.062 -38.702  1.00  0.00     0.175 C
HETATM    6  O5  UNL     1      41.346 -25.355 -39.107  1.00  0.00    -0.293 OA
HETATM    7  C7  UNL     1      39.453 -26.154 -38.196  1.00  0.00     0.195 C
HETATM    8  C8  UNL     1      38.665 -26.014 -36.895  1.00  0.00     0.051 C
HETATM    9  C18 UNL     1      37.606 -25.027 -36.924  1.00  0.00     0.131 C
ENDROOT
BRANCH   8  10
HETATM   10  C9  UNL     1      39.509 -26.310 -35.717  1.00  0.00     0.036 C
BRANCH  10  11
HETATM   11  C10 UNL     1      39.374 -27.676 -35.095  1.00  0.00     0.169 C
BRANCH  11  12
HETATM   12  O7  UNL     1      38.239 -28.249 -35.727  1.00  0.00    -0.379 OA
BRANCH  12  13
HETATM   13  C11 UNL     1      38.648 -29.471 -36.235  1.00  0.00     0.261 C
BRANCH  13  14
HETATM   14  C12 UNL     1      38.007 -29.805 -37.506  1.00  0.00    -0.079 C
HETATM   15  C13 UNL     1      37.470 -30.089 -38.533  1.00  0.00    -0.084 C
BRANCH  15  16
HETATM   16  C14 UNL     1      36.791 -30.460 -39.796  1.00  0.00     0.223 C
BRANCH  16  17
HETATM   17  N2  UNL     1      37.094 -29.527 -40.845  1.00  0.00    -0.341 N
HETATM   18  C15 UNL     1      36.347 -28.490 -41.235  1.00  0.00     0.110 A
HETATM   19  C16 UNL     1      36.972 -27.828 -42.272  1.00  0.00     0.106 A
HETATM   20  N3  UNL     1      38.115 -28.492 -42.501  1.00  0.00    -0.361 N
HETATM   21  C17 UNL     1      38.181 -29.527 -41.626  1.00  0.00     0.183 A
ATOM     22  H3  UNL     1      38.811 -28.258 -43.209  1.00  0.00     0.166 HD
ENDBRANCH  16  17
ENDBRANCH  15  16
ENDBRANCH  13  14
ENDBRANCH  12  13
ENDBRANCH  11  12
ENDBRANCH  10  11
ENDBRANCH   8  10
BRANCH   7  23
HETATM   23  O6  UNL     1      38.579 -26.689 -39.166  1.00  0.00    -0.388 OA
ATOM     24  H6  UNL     1      37.711 -26.848 -38.813  1.00  0.00     0.210 HD
ENDBRANCH   7  23
BRANCH   9  25
HETATM   25  C19 UNL     1      37.153 -24.160 -35.857  1.00  0.00     0.011 C
BRANCH  25  26
HETATM   26  C20 UNL     1      36.168 -24.557 -34.855  1.00  0.00    -0.033 A
HETATM   27  C21 UNL     1      35.626 -25.812 -34.862  1.00  0.00     0.053 A
HETATM   28  C22 UNL     1      34.697 -26.229 -33.939  1.00  0.00     0.118 A
HETATM   29  F1  UNL     1      34.181 -27.491 -33.983  1.00  0.00    -0.206 F
HETATM   30  C23 UNL     1      34.290 -25.367 -32.971  1.00  0.00     0.066 A
HETATM   31  C24 UNL     1      34.805 -24.084 -32.915  1.00  0.00     0.037 A
HETATM   32 CL1  UNL     1      34.250 -23.007 -31.650  1.00  0.00    -0.084 Cl
HETATM   33  C25 UNL     1      35.740 -23.696 -33.861  1.00  0.00     0.035 A
ENDBRANCH  25  26
ENDBRANCH   9  25
BRANCH   1  34
HETATM   34  S1  UNL     1      36.414 -23.678 -38.891  1.00  0.00     0.233 S
HETATM   35  O3  UNL     1      35.229 -24.275 -38.187  1.00  0.00    -0.205 OA
HETATM   36  O4  UNL     1      36.333 -22.162 -38.863  1.00  0.00    -0.205 OA
BRANCH  34  37
HETATM   37  C3  UNL     1      36.319 -24.176 -40.585  1.00  0.00     0.174 C
BRANCH  37  38
HETATM   38  C2  UNL     1      35.052 -24.861 -40.944  1.00  0.00     0.130 C
BRANCH  38  39
HETATM   39  C1  UNL     1      34.021 -23.824 -41.283  1.00  0.00     0.173 C
HETATM   40  O1  UNL     1      34.371 -22.706 -41.732  1.00  0.00    -0.648 OA
HETATM   41  O2  UNL     1      32.690 -24.176 -41.073  1.00  0.00    -0.648 OA
ENDBRANCH  38  39
ENDBRANCH  37  38
ENDBRANCH  34  37
ENDBRANCH   1  34
TORSDOF 14
ENDMDL