MODEL 3
REMARK VINA RESULT: -7.874727524      2.224      6.101
REMARK  15 active torsions:
REMARK  status: ('A' for Active; 'I' for Inactive)
REMARK    1  A    between atoms: C2_2  and  C3_3
REMARK    2  A    between atoms: N1_5  and  C5_6
REMARK    3  A    between atoms: C5_6  and  C6_7
REMARK    4  A    between atoms: C6_7  and  C7_8
REMARK       I    between atoms: C7_8  and  N2_10
REMARK    5  A    between atoms: C9_12  and  O2_13
REMARK    6  A    between atoms: C11_16  and  C12_17
REMARK    7  A    between atoms: N3_22  and  C15_23
REMARK    8  A    between atoms: C15_23  and  C16_24
REMARK    9  A    between atoms: C17_25  and  C19_27
REMARK   10  A    between atoms: C19_27  and  C20_28
REMARK   11  A    between atoms: C19_27  and  O5_34
REMARK   12  A    between atoms: C20_28  and  C21_29
REMARK   13  A    between atoms: C21_29  and  C22_30
REMARK   14  A    between atoms: O5_34  and  C23_35
REMARK       I    between atoms: C23_35  and  N4_37
REMARK       I    between atoms: N5_40  and  C26_41
REMARK   15  A    between atoms: C26_41  and  O8_43
ROOT
HETATM    1  C15 UNL     1      34.638 -27.540 -34.364  1.00  0.00     0.300 C
ENDROOT
BRANCH   1   2
HETATM    2  N3  UNL     1      35.215 -27.548 -35.675  1.00  0.00     0.099 N
HETATM    3  C3  UNL     1      36.325 -26.690 -35.838  1.00  0.00     0.240 C
HETATM    4  C4  UNL     1      37.328 -27.305 -36.830  1.00  0.00     0.152 C
HETATM    5  N1  UNL     1      36.631 -27.996 -37.839  1.00  0.00    -0.408 N
HETATM    6  C13 UNL     1      35.986 -29.176 -37.354  1.00  0.00     0.147 C
HETATM    7  C14 UNL     1      35.635 -28.936 -35.905  1.00  0.00     0.292 C
BRANCH   3   8
HETATM    8  C2  UNL     1      36.015 -25.321 -36.388  1.00  0.00     0.033 C
HETATM    9  C1  UNL     1      36.750 -24.235 -35.680  1.00  0.00     0.007 C
ENDBRANCH   3   8
BRANCH   5  10
HETATM   10  C5  UNL     1      37.252 -28.107 -39.121  1.00  0.00     0.126 C
BRANCH  10  11
HETATM   11  C6  UNL     1      38.114 -26.871 -39.304  1.00  0.00     0.122 C
BRANCH  11  12
HETATM   12  C7  UNL     1      37.383 -25.836 -40.110  1.00  0.00     0.222 C
HETATM   13  O1  UNL     1      36.557 -26.202 -40.986  1.00  0.00    -0.273 OA
HETATM   14  N2  UNL     1      37.655 -24.476 -39.847  1.00  0.00    -0.335 N
HETATM   15  C8  UNL     1      38.589 -23.998 -38.844  1.00  0.00     0.158 C
HETATM   16  C11 UNL     1      37.074 -23.343 -40.511  1.00  0.00     0.190 C
HETATM   17  C9  UNL     1      38.001 -22.643 -38.455  1.00  0.00     0.138 C
HETATM   18  C10 UNL     1      37.608 -22.100 -39.796  1.00  0.00     0.070 C
BRANCH  17  19
HETATM   19  O2  UNL     1      38.958 -21.869 -37.819  1.00  0.00    -0.394 OA
ATOM     20  H2  UNL     1      39.049 -21.031 -38.257  1.00  0.00     0.210 HD
ENDBRANCH  17  19
BRANCH  16  21
HETATM   21  C12 UNL     1      35.607 -23.283 -40.470  1.00  0.00     0.197 C
HETATM   22  O3  UNL     1      35.042 -22.691 -41.447  1.00  0.00    -0.646 OA
HETATM   23  O4  UNL     1      34.816 -23.807 -39.472  1.00  0.00    -0.646 OA
ENDBRANCH  16  21
ENDBRANCH  11  12
ENDBRANCH  10  11
ENDBRANCH   5  10
ENDBRANCH   1   2
BRANCH   1  24
HETATM   24  C16 UNL     1      35.550 -28.176 -33.387  1.00  0.00     0.008 C
HETATM   25  C17 UNL     1      36.122 -27.579 -32.367  1.00  0.00    -0.057 C
HETATM   26  C18 UNL     1      37.023 -28.464 -31.502  1.00  0.00     0.046 C
BRANCH  25  27
HETATM   27  C19 UNL     1      36.014 -26.155 -31.975  1.00  0.00     0.162 C
BRANCH  27  28
HETATM   28  C20 UNL     1      34.695 -25.560 -32.453  1.00  0.00     0.046 C
BRANCH  28  29
HETATM   29  C21 UNL     1      34.164 -24.536 -31.485  1.00  0.00     0.120 C
BRANCH  29  30
HETATM   30  C22 UNL     1      34.624 -23.152 -31.902  1.00  0.00     0.388 C
HETATM   31  F1  UNL     1      35.049 -23.147 -33.240  1.00  0.00    -0.171 F
HETATM   32  F2  UNL     1      35.640 -22.757 -31.093  1.00  0.00    -0.171 F
HETATM   33  F3  UNL     1      33.554 -22.255 -31.868  1.00  0.00    -0.171 F
ENDBRANCH  29  30
ENDBRANCH  28  29
ENDBRANCH  27  28
BRANCH  27  34
HETATM   34  O5  UNL     1      37.104 -25.478 -32.622  1.00  0.00    -0.294 OA
BRANCH  34  35
HETATM   35  C23 UNL     1      38.290 -25.195 -31.948  1.00  0.00     0.363 C
HETATM   36  O6  UNL     1      38.152 -24.579 -30.860  1.00  0.00    -0.238 OA
HETATM   37  N4  UNL     1      39.541 -25.582 -32.472  1.00  0.00    -0.325 N
HETATM   38  C24 UNL     1      39.593 -26.310 -33.706  1.00  0.00     0.148 C
HETATM   39  C29 UNL     1      40.741 -25.242 -31.767  1.00  0.00     0.148 C
HETATM   40  C25 UNL     1      40.803 -25.963 -34.565  1.00  0.00     0.148 C
HETATM   41  N5  UNL     1      41.375 -24.762 -34.013  1.00  0.00    -0.325 N
HETATM   42  C26 UNL     1      41.447 -23.587 -34.790  1.00  0.00     0.362 C
HETATM   43  C28 UNL     1      41.871 -24.794 -32.665  1.00  0.00     0.148 C
HETATM   44  O7  UNL     1      41.946 -22.500 -34.337  1.00  0.00    -0.238 OA
BRANCH  42  45
HETATM   45  O8  UNL     1      40.985 -23.519 -36.097  1.00  0.00    -0.309 OA
HETATM   46  C27 UNL     1      41.879 -23.594 -37.221  1.00  0.00     0.215 C
ENDBRANCH  42  45
ENDBRANCH  34  35
ENDBRANCH  27  34
ENDBRANCH  25  27
ENDBRANCH   1  24
TORSDOF 15
ENDMDL