MODEL 2
REMARK VINA RESULT: -9.460321470      1.168      1.456
REMARK  12 active torsions:
REMARK  status: ('A' for Active; 'I' for Inactive)
REMARK    1  A    between atoms: N1_1  and  C1_5
REMARK    2  A    between atoms: C1_5  and  C2_6
REMARK    3  A    between atoms: C1_5  and  C13_25
REMARK    4  A    between atoms: C2_6  and  S1_8
REMARK    5  A    between atoms: S1_8  and  C3_9
REMARK    6  A    between atoms: C3_9  and  C4_10
REMARK    7  A    between atoms: C9_15  and  C10_16
REMARK    8  A    between atoms: N6_30  and  N7_31
REMARK    9  A    between atoms: N8_34  and  C17_35
REMARK   10  A    between atoms: C17_35  and  C18_36
REMARK   11  A    between atoms: N9_42  and  C21_43
REMARK   12  A    between atoms: C21_43  and  C22_44
ROOT
HETATM    1  C13 UNL     1      38.578 -24.410 -35.402  1.00  0.00     0.225 C
HETATM    2  C14 UNL     1      39.645 -24.515 -34.370  1.00  0.00     0.259 C
HETATM    3  O2  UNL     1      40.269 -23.492 -34.037  1.00  0.00    -0.270 OA
HETATM    4  N5  UNL     1      39.924 -25.752 -33.796  1.00  0.00    -0.260 N
ATOM      5  H5  UNL     1      40.847 -25.892 -33.385  1.00  0.00     0.186 HD
HETATM    6  N6  UNL     1      39.032 -26.792 -33.748  1.00  0.00    -0.038 NA
HETATM    7  C20 UNL     1      37.888 -26.613 -34.587  1.00  0.00     0.341 C
HETATM    8  O3  UNL     1      37.223 -27.612 -34.911  1.00  0.00    -0.250 OA
HETATM    9  N9  UNL     1      37.496 -25.332 -35.057  1.00  0.00    -0.295 N
ENDROOT
BRANCH   1  10
HETATM   10  C1  UNL     1      39.194 -24.642 -36.749  1.00  0.00     0.296 C
BRANCH  10  11
HETATM   11  N1  UNL     1      40.388 -23.937 -37.040  1.00  0.00    -0.065 N
ATOM     12  H13 UNL     1      41.044 -24.559 -37.511  1.00  0.00     0.275 HD
ATOM     13  H12 UNL     1      40.209 -23.256 -37.778  1.00  0.00     0.275 HD
ATOM     14  H11 UNL     1      40.858 -23.477 -36.260  1.00  0.00     0.275 HD
ENDBRANCH  10  11
BRANCH  10  15
HETATM   15  C2  UNL     1      38.136 -24.625 -37.776  1.00  0.00     0.219 C
HETATM   16  O1  UNL     1      37.899 -25.771 -38.249  1.00  0.00    -0.283 OA
BRANCH  15  17
HETATM   17  S1  UNL     1      37.187 -23.334 -38.431  1.00  0.00    -0.086 SA
BRANCH  17  18
HETATM   18  C3  UNL     1      36.994 -23.196 -40.195  1.00  0.00     0.121 C
BRANCH  18  19
HETATM   19  C4  UNL     1      35.599 -23.179 -40.676  1.00  0.00    -0.035 A
HETATM   20  C5  UNL     1      34.971 -21.949 -40.959  1.00  0.00     0.009 A
HETATM   21  C6  UNL     1      33.677 -21.844 -41.384  1.00  0.00     0.001 A
HETATM   22  C7  UNL     1      32.934 -22.989 -41.550  1.00  0.00     0.001 A
HETATM   23  C8  UNL     1      33.519 -24.186 -41.281  1.00  0.00     0.016 A
HETATM   24  C9  UNL     1      34.858 -24.309 -40.841  1.00  0.00     0.016 A
BRANCH  24  25
HETATM   25  C10 UNL     1      35.379 -25.633 -40.580  1.00  0.00     0.130 A
HETATM   26  N2  UNL     1      36.160 -26.215 -41.540  1.00  0.00    -0.349 N
HETATM   27  C11 UNL     1      36.677 -27.427 -41.392  1.00  0.00     0.108 A
ATOM     28  H2  UNL     1      36.351 -25.700 -42.399  1.00  0.00     0.167 HD
HETATM   29  C12 UNL     1      36.420 -28.127 -40.231  1.00  0.00     0.124 A
HETATM   30  N3  UNL     1      35.653 -27.552 -39.291  1.00  0.00    -0.309 N
HETATM   31  N4  UNL     1      35.171 -26.348 -39.499  1.00  0.00    -0.285 N
ATOM     32  H3  UNL     1      35.447 -28.047 -38.423  1.00  0.00     0.186 HD
ATOM     33  H4  UNL     1      34.592 -25.939 -38.767  1.00  0.00     0.188 HD
ENDBRANCH  24  25
ENDBRANCH  18  19
ENDBRANCH  17  18
ENDBRANCH  15  17
ENDBRANCH  10  15
ENDBRANCH   1  10
BRANCH   9  34
HETATM   34  C21 UNL     1      36.151 -24.928 -35.141  1.00  0.00     0.107 C
BRANCH  34  35
HETATM   35  C22 UNL     1      35.413 -24.549 -33.948  1.00  0.00    -0.020 A
HETATM   36  C23 UNL     1      35.447 -23.288 -33.440  1.00  0.00     0.014 A
HETATM   37  C24 UNL     1      34.709 -22.978 -32.322  1.00  0.00     0.024 A
HETATM   38  C25 UNL     1      33.926 -23.925 -31.697  1.00  0.00     0.034 A
HETATM   39 CL3  UNL     1      32.983 -23.511 -30.263  1.00  0.00    -0.084 Cl
HETATM   40  C26 UNL     1      33.868 -25.214 -32.189  1.00  0.00     0.024 A
HETATM   41  C27 UNL     1      34.621 -25.478 -33.304  1.00  0.00     0.014 A
ENDBRANCH  34  35
ENDBRANCH   9  34
BRANCH   6  42
HETATM   42  N7  UNL     1      38.649 -27.001 -32.419  1.00  0.00    -0.254 N
HETATM   43  C15 UNL     1      39.004 -28.012 -31.611  1.00  0.00     0.131 A
HETATM   44  C16 UNL     1      38.407 -27.844 -30.381  1.00  0.00     0.110 A
HETATM   45  N8  UNL     1      37.688 -26.719 -30.456  1.00  0.00    -0.348 N
HETATM   46  C19 UNL     1      37.833 -26.208 -31.685  1.00  0.00     0.205 A
BRANCH  45  47
HETATM   47  C17 UNL     1      36.892 -26.149 -29.401  1.00  0.00     0.165 C
BRANCH  47  48
HETATM   48  C18 UNL     1      37.424 -26.601 -28.057  1.00  0.00     0.196 C
HETATM   49 CL1  UNL     1      36.167 -26.646 -26.824  1.00  0.00    -0.106 Cl
HETATM   50 CL2  UNL     1      38.670 -25.434 -27.508  1.00  0.00    -0.106 Cl
ENDBRANCH  47  48
ENDBRANCH  45  47
ENDBRANCH   6  42
TORSDOF 12
ENDMDL