MODEL 2
REMARK VINA RESULT: -9.301794738      3.110      6.352
REMARK  12 active torsions:
REMARK  status: ('A' for Active; 'I' for Inactive)
REMARK    1  A    between atoms: C8_10  and  C9_11
REMARK       I    between atoms: C9_11  and  N2_13
REMARK    2  A    between atoms: N2_13  and  C10_14
REMARK    3  A    between atoms: C10_14  and  C11_15
REMARK    4  A    between atoms: C12_17  and  C13_18
REMARK    5  A    between atoms: C13_18  and  O3_19
REMARK    6  A    between atoms: C15_21  and  O4_22
REMARK    7  A    between atoms: O4_22  and  C16_23
REMARK    8  A    between atoms: C16_23  and  C17_24
REMARK    9  A    between atoms: C23_30  and  O5_31
REMARK   10  A    between atoms: O5_31  and  C24_32
REMARK   11  A    between atoms: C24_32  and  C25_33
REMARK   12  A    between atoms: C31_41  and  O6_42
ROOT
HETATM    1  C1  UNL     1      33.602 -23.704 -31.432  1.00  0.00     0.098 C
HETATM    2  C2  UNL     1      34.610 -24.373 -31.675  1.00  0.00    -0.169 C
HETATM    3  C3  UNL     1      35.808 -25.160 -32.010  1.00  0.00     0.083 C
HETATM    4  C4  UNL     1      35.419 -26.300 -32.923  1.00  0.00     0.037 C
HETATM    5  C5  UNL     1      36.325 -25.694 -30.634  1.00  0.00     0.208 C
HETATM    6  F1  UNL     1      35.430 -25.314 -29.684  1.00  0.00    -0.246 F
HETATM    7  C6  UNL     1      37.645 -24.930 -30.421  1.00  0.00     0.134 C
HETATM    8  N1  UNL     1      38.142 -24.919 -31.812  1.00  0.00    -0.281 NA
HETATM    9  C7  UNL     1      38.498 -26.270 -32.099  1.00  0.00     0.116 C
HETATM   10  C8  UNL     1      36.984 -24.398 -32.479  1.00  0.00     0.093 C
ENDROOT
BRANCH  10  11
HETATM   11  C9  UNL     1      37.166 -24.049 -33.904  1.00  0.00     0.334 C
HETATM   12  O1  UNL     1      36.170 -23.514 -34.469  1.00  0.00    -0.250 OA
HETATM   13  N2  UNL     1      38.334 -24.321 -34.530  1.00  0.00    -0.380 NA
BRANCH  13  14
HETATM   14  C10 UNL     1      39.484 -24.569 -35.274  1.00  0.00     0.194 C
BRANCH  14  15
HETATM   15  C11 UNL     1      39.537 -25.276 -36.579  1.00  0.00     0.205 C
HETATM   16  O2  UNL     1      39.938 -24.596 -37.679  1.00  0.00    -0.367 OA
HETATM   17  C12 UNL     1      38.952 -24.204 -38.553  1.00  0.00     0.177 C
HETATM   18  C15 UNL     1      37.930 -25.236 -38.966  1.00  0.00     0.184 C
HETATM   19  C23 UNL     1      37.914 -26.441 -38.109  1.00  0.00     0.191 C
HETATM   20  C31 UNL     1      38.233 -25.992 -36.649  1.00  0.00     0.185 C
BRANCH  17  21
HETATM   21  C13 UNL     1      38.234 -23.015 -37.901  1.00  0.00     0.201 C
BRANCH  21  22
HETATM   22  O3  UNL     1      38.948 -21.854 -38.171  1.00  0.00    -0.393 OA
HETATM   23  C14 UNL     1      39.232 -21.824 -39.527  1.00  0.00     0.201 C
ENDBRANCH  21  22
ENDBRANCH  17  21
BRANCH  18  24
HETATM   24  O4  UNL     1      36.781 -24.530 -39.202  1.00  0.00    -0.376 OA
BRANCH  24  25
HETATM   25  C16 UNL     1      36.200 -24.683 -40.434  1.00  0.00     0.207 C
BRANCH  25  26
HETATM   26  C17 UNL     1      35.189 -23.700 -40.795  1.00  0.00    -0.035 A
HETATM   27  C18 UNL     1      35.339 -22.386 -40.800  1.00  0.00     0.009 A
HETATM   28  C19 UNL     1      34.296 -21.512 -41.148  1.00  0.00     0.001 A
HETATM   29  C20 UNL     1      33.097 -22.035 -41.501  1.00  0.00     0.000 A
HETATM   30  C21 UNL     1      32.878 -23.394 -41.522  1.00  0.00     0.001 A
HETATM   31  C22 UNL     1      33.921 -24.200 -41.168  1.00  0.00     0.009 A
ENDBRANCH  25  26
ENDBRANCH  24  25
ENDBRANCH  18  24
BRANCH  19  32
HETATM   32  O5  UNL     1      36.908 -27.262 -38.074  1.00  0.00    -0.351 OA
BRANCH  32  33
HETATM   33  C24 UNL     1      36.313 -28.220 -38.595  1.00  0.00     0.149 C
BRANCH  33  34
HETATM   34  C25 UNL     1      36.627 -29.283 -39.534  1.00  0.00     0.024 A
HETATM   35  C26 UNL     1      36.752 -30.654 -39.263  1.00  0.00     0.018 A
HETATM   36  C27 UNL     1      37.325 -31.530 -40.138  1.00  0.00     0.020 A
HETATM   37  C28 UNL     1      37.786 -31.117 -41.329  1.00  0.00     0.013 A
HETATM   38 BR1  UNL     1      38.616 -32.322 -42.599  1.00  0.00    -0.051 Br
HETATM   39  C29 UNL     1      37.688 -29.767 -41.687  1.00  0.00     0.062 A
HETATM   40  C30 UNL     1      37.136 -28.902 -40.809  1.00  0.00     0.129 A
HETATM   41  F2  UNL     1      37.067 -27.592 -41.214  1.00  0.00    -0.205 F
ENDBRANCH  33  34
ENDBRANCH  32  33
ENDBRANCH  19  32
BRANCH  20  42
HETATM   42  O6  UNL     1      38.399 -27.185 -35.850  1.00  0.00    -0.390 OA
ATOM     43  H6  UNL     1      37.549 -27.355 -35.462  1.00  0.00     0.210 HD
ENDBRANCH  20  42
ENDBRANCH  14  15
ENDBRANCH  13  14
ENDBRANCH  10  11
TORSDOF 12
ENDMDL