MODEL 2
REMARK VINA RESULT: -7.037478951      0.573      2.283
REMARK  6 active torsions:
REMARK  status: ('A' for Active; 'I' for Inactive)
REMARK    1  A    between atoms: O1_1  and  C1_3
REMARK    2  A    between atoms: C4_6  and  O2_7
REMARK    3  A    between atoms: N1_9  and  C5_10
REMARK    4  A    between atoms: C5_10  and  C6_11
REMARK    5  A    between atoms: C6_11  and  C7_12
REMARK    6  A    between atoms: C7_12  and  N2_13
ROOT
HETATM    1  C1  UNL     1      65.646  19.890  24.505  1.00  0.00     0.151 A
HETATM    2  C2  UNL     1      65.762  20.876  23.558  1.00  0.00     0.004 A
HETATM    3  C3  UNL     1      64.510  21.436  23.444  1.00  0.00     0.008 A
HETATM    4  C4  UNL     1      63.663  20.783  24.318  1.00  0.00     0.151 A
HETATM    5  N1  UNL     1      64.377  19.825  24.972  1.00  0.00    -0.308 N
HETATM    6  C9  UNL     1      64.301  22.538  22.495  1.00  0.00     0.024 C
HETATM    7  C10 UNL     1      65.005  23.797  22.982  1.00  0.00     0.010 C
HETATM    8  C11 UNL     1      66.418  23.725  22.482  1.00  0.00     0.005 C
HETATM    9  C12 UNL     1      66.521  22.380  21.754  1.00  0.00    -0.009 C
HETATM   10  C13 UNL     1      66.927  21.351  22.748  1.00  0.00     0.048 C
HETATM   11  C14 UNL     1      65.109  22.221  21.246  1.00  0.00     0.014 C
ENDROOT
BRANCH   5  12
HETATM   12  C5  UNL     1      63.934  18.893  25.974  1.00  0.00     0.135 C
BRANCH  12  13
HETATM   13  C6  UNL     1      62.688  18.170  25.522  1.00  0.00     0.041 C
BRANCH  13  14
HETATM   14  C7  UNL     1      62.373  16.970  26.338  1.00  0.00     0.141 C
BRANCH  14  15
HETATM   15  N2  UNL     1      61.469  17.205  27.421  1.00  0.00    -0.299 N
HETATM   16  C8  UNL     1      60.970  16.571  28.499  1.00  0.00     0.199 A
HETATM   17  N3  UNL     1      60.133  17.439  29.095  1.00  0.00    -0.308 N
HETATM   18  S1  UNL     1      60.526  18.517  27.882  1.00  0.00     0.071 SA
ATOM     19  H3  UNL     1      59.530  17.439  29.917  1.00  0.00     0.176 HD
ENDBRANCH  14  15
ENDBRANCH  13  14
ENDBRANCH  12  13
ENDBRANCH   5  12
BRANCH   1  20
HETATM   20  O1  UNL     1      66.727  19.086  24.899  1.00  0.00    -0.345 OA
ATOM     21  H1  UNL     1      66.620  18.185  25.180  1.00  0.00     0.219 HD
ENDBRANCH   1  20
BRANCH   4  22
HETATM   22  O2  UNL     1      62.305  21.048  24.508  1.00  0.00    -0.345 OA
ATOM     23  H2  UNL     1      61.693  21.356  23.850  1.00  0.00     0.219 HD
ENDBRANCH   4  22
TORSDOF 6
ENDMDL