MODEL 4
REMARK VINA RESULT: -6.292083631      1.027      2.606
REMARK  6 active torsions:
REMARK  status: ('A' for Active; 'I' for Inactive)
REMARK    1  A    between atoms: C2_2  and  C4_4
REMARK    2  A    between atoms: C4_4  and  C5_5
REMARK    3  A    between atoms: C5_5  and  C6_7
REMARK    4  A    between atoms: C6_7  and  N1_8
REMARK    5  A    between atoms: C7_9  and  O2_10
REMARK    6  A    between atoms: C10_14  and  O3_15
ROOT
HETATM    1  N1  UNL     1      65.580  22.202  24.098  1.00  0.00    -0.301 N
HETATM    2  C7  UNL     1      64.622  23.077  23.848  1.00  0.00     0.152 A
HETATM    3  C8  UNL     1      64.951  23.793  22.733  1.00  0.00     0.009 A
HETATM    4  C9  UNL     1      66.181  23.312  22.292  1.00  0.00     0.018 A
HETATM    5  C10 UNL     1      66.544  22.326  23.159  1.00  0.00     0.152 A
HETATM    6  C11 UNL     1      66.732  23.962  21.074  1.00  0.00     0.085 C
HETATM    7  C12 UNL     1      66.741  25.457  21.330  1.00  0.00     0.021 C
HETATM    8  C13 UNL     1      65.401  25.970  21.753  1.00  0.00     0.011 C
HETATM    9  C14 UNL     1      64.358  24.894  21.923  1.00  0.00     0.033 C
HETATM   10  C15 UNL     1      63.905  24.301  20.606  1.00  0.00     0.084 C
HETATM   11  S1  UNL     1      65.443  23.706  19.789  1.00  0.00    -0.159 SA
ENDROOT
BRANCH   1  12
HETATM   12  C6  UNL     1      65.644  21.241  25.167  1.00  0.00     0.211 C
BRANCH  12  13
HETATM   13  C5  UNL     1      65.467  19.852  24.732  1.00  0.00     0.145 C
HETATM   14  O1  UNL     1      66.478  19.160  24.522  1.00  0.00    -0.296 OA
BRANCH  13  15
HETATM   15  C4  UNL     1      64.161  19.195  24.521  1.00  0.00     0.084 C
BRANCH  15  16
HETATM   16  C2  UNL     1      63.251  19.239  25.722  1.00  0.00    -0.016 C
HETATM   17  C1  UNL     1      62.699  17.891  26.108  1.00  0.00     0.010 C
HETATM   18  C3  UNL     1      62.073  20.159  25.461  1.00  0.00     0.010 C
ENDBRANCH  15  16
ENDBRANCH  13  15
ENDBRANCH  12  13
ENDBRANCH   1  12
BRANCH   2  19
HETATM   19  O2  UNL     1      63.474  23.254  24.580  1.00  0.00    -0.345 OA
ATOM     20  H2  UNL     1      62.989  22.577  25.037  1.00  0.00     0.219 HD
ENDBRANCH   2  19
BRANCH   5  21
HETATM   21  O3  UNL     1      67.727  21.614  23.029  1.00  0.00    -0.345 OA
ATOM     22  H3  UNL     1      68.459  21.558  23.633  1.00  0.00     0.219 HD
ENDBRANCH   5  21
TORSDOF 6
ENDMDL