MODEL 5
REMARK VINA RESULT: -6.485963974      4.544      7.966
REMARK  6 active torsions:
REMARK  status: ('A' for Active; 'I' for Inactive)
REMARK       I    between atoms: C2_2  and  N1_4
REMARK    1  A    between atoms: N1_4  and  C3_6
REMARK    2  A    between atoms: C3_6  and  O2_10
REMARK    3  A    between atoms: O2_10  and  N3_11
REMARK    4  A    between atoms: C4_13  and  C5_14
REMARK    5  A    between atoms: C9_19  and  S2_20
REMARK    6  A    between atoms: S2_20  and  C10_21
ROOT
HETATM    1  N3  UNL     1      65.334  21.461  23.939  1.00  0.00    -0.268 N
ATOM      2  H3  UNL     1      65.111  22.398  24.273  1.00  0.00     0.194 HD
HETATM    3  C4  UNL     1      64.425  20.581  24.022  1.00  0.00     0.128 C
ENDROOT
BRANCH   1   4
HETATM    4  O2  UNL     1      66.579  21.257  23.443  1.00  0.00    -0.202 OA
BRANCH   4   5
HETATM    5  C3  UNL     1      67.045  21.883  22.293  1.00  0.00     0.243 C
HETATM    6  N2  UNL     1      66.521  21.470  21.180  1.00  0.00    -0.364 N
ATOM      7  H22 UNL     1      66.862  21.930  20.337  1.00  0.00     0.159 HD
ATOM      8  H21 UNL     1      65.816  20.733  21.170  1.00  0.00     0.159 HD
BRANCH   5   9
HETATM    9  N1  UNL     1      68.019  22.902  22.309  1.00  0.00    -0.292 N
HETATM   10  C2  UNL     1      67.666  24.256  22.170  1.00  0.00     0.220 C
HETATM   11  C1  UNL     1      68.706  25.302  22.191  1.00  0.00     0.117 C
HETATM   12  O1  UNL     1      66.469  24.589  22.027  1.00  0.00    -0.274 OA
ATOM     13  H1  UNL     1      69.001  22.652  22.424  1.00  0.00     0.172 HD
ENDBRANCH   5   9
ENDBRANCH   4   5
ENDBRANCH   1   4
BRANCH   3  14
HETATM   14  C5  UNL     1      63.085  20.908  24.584  1.00  0.00     0.006 A
HETATM   15  C6  UNL     1      62.442  22.050  24.293  1.00  0.00     0.029 A
HETATM   16  C7  UNL     1      61.218  22.252  24.863  1.00  0.00    -0.019 A
HETATM   17  C8  UNL     1      60.296  23.436  24.704  1.00  0.00     0.056 C
HETATM   18  S1  UNL     1      60.988  20.848  25.789  1.00  0.00    -0.087 SA
HETATM   19  C9  UNL     1      62.445  20.040  25.436  1.00  0.00     0.053 A
BRANCH  19  20
HETATM   20  S2  UNL     1      63.047  18.445  26.006  1.00  0.00    -0.118 SA
BRANCH  20  21
HETATM   21  C10 UNL     1      61.673  17.295  26.241  1.00  0.00     0.045 C
HETATM   22  C11 UNL     1      62.244  15.894  26.242  1.00  0.00     0.021 C
HETATM   23  C12 UNL     1      60.922  17.535  27.512  1.00  0.00     0.021 C
ENDBRANCH  20  21
ENDBRANCH  19  20
ENDBRANCH   3  14
TORSDOF 6
ENDMDL