MODEL 5
REMARK VINA RESULT: -6.499092696      2.049      2.838
REMARK  5 active torsions:
REMARK  status: ('A' for Active; 'I' for Inactive)
REMARK    1  A    between atoms: C4_10  and  N4_11
REMARK    2  A    between atoms: C6_17  and  S2_18
REMARK    3  A    between atoms: S2_18  and  C7_19
REMARK    4  A    between atoms: C7_19  and  C8_20
REMARK    5  A    between atoms: C8_20  and  C9_21
ROOT
HETATM    1  N1  UNL     1      60.172  22.815  26.780  1.00  0.00    -0.190 NA
HETATM    2  C1  UNL     1      60.102  23.199  25.691  1.00  0.00     0.120 C
HETATM    3  C2  UNL     1      60.015  23.658  24.340  1.00  0.00     0.148 A
HETATM    4  N2  UNL     1      58.884  24.136  23.795  1.00  0.00    -0.337 N
ATOM      5  H2  UNL     1      58.041  24.176  24.367  1.00  0.00     0.167 HD
HETATM    6  C3  UNL     1      58.824  24.570  22.497  1.00  0.00     0.122 A
HETATM    7  S1  UNL     1      57.626  25.218  21.476  1.00  0.00     0.008 SA
HETATM    8  N3  UNL     1      58.533  25.427  20.079  1.00  0.00    -0.309 N
ATOM      9  H3  UNL     1      58.224  25.798  19.180  1.00  0.00     0.176 HD
HETATM   10  C4  UNL     1      59.742  24.998  20.414  1.00  0.00     0.135 A
HETATM   11  C5  UNL     1      59.918  24.542  21.683  1.00  0.00     0.113 A
HETATM   12  N5  UNL     1      61.085  24.051  22.241  1.00  0.00    -0.343 N
ATOM     13  H5  UNL     1      61.930  24.010  21.672  1.00  0.00     0.167 HD
HETATM   14  C6  UNL     1      61.133  23.631  23.505  1.00  0.00     0.108 A
ENDROOT
BRANCH  14  15
HETATM   15  S2  UNL     1      62.639  23.006  24.199  1.00  0.00    -0.109 SA
BRANCH  15  16
HETATM   16  C7  UNL     1      62.714  21.242  24.378  1.00  0.00     0.081 C
BRANCH  16  17
HETATM   17  C8  UNL     1      64.033  20.591  24.228  1.00  0.00     0.015 C
BRANCH  17  18
HETATM   18  C9  UNL     1      65.070  21.268  23.429  1.00  0.00    -0.014 C
HETATM   19  C10 UNL     1      66.276  21.722  24.229  1.00  0.00     0.005 C
HETATM   20  C11 UNL     1      67.357  21.985  23.172  1.00  0.00     0.000 C
HETATM   21  C12 UNL     1      66.740  21.581  21.845  1.00  0.00     0.000 C
HETATM   22  C13 UNL     1      65.718  20.523  22.324  1.00  0.00     0.005 C
ENDBRANCH  17  18
ENDBRANCH  16  17
ENDBRANCH  15  16
ENDBRANCH  14  15
BRANCH  10  23
HETATM   23  N4  UNL     1      60.738  25.018  19.532  1.00  0.00    -0.383 N
ATOM     24  H42 UNL     1      60.711  24.461  18.678  1.00  0.00     0.157 HD
ATOM     25  H41 UNL     1      61.562  25.599  19.691  1.00  0.00     0.157 HD
ENDBRANCH  10  23
TORSDOF 5
ENDMDL