MODEL 3
REMARK VINA RESULT: -6.768407168      3.405      4.991
REMARK  5 active torsions:
REMARK  status: ('A' for Active; 'I' for Inactive)
REMARK    1  A    between atoms: C1_2  and  C2_4
REMARK    2  A    between atoms: N1_5  and  C3_7
REMARK    3  A    between atoms: C4_8  and  C5_9
REMARK    4  A    between atoms: C11_16  and  N2_17
REMARK    5  A    between atoms: C12_20  and  O5_21
ROOT
HETATM    1  C3  UNL     1      65.238  22.760  22.195  1.00  0.00     0.086 A
HETATM    2  C4  UNL     1      63.993  23.263  22.025  1.00  0.00     0.043 A
HETATM    3  S1  UNL     1      64.184  24.241  20.603  1.00  0.00    -0.060 SA
HETATM    4  C11 UNL     1      65.830  23.956  20.304  1.00  0.00     0.179 A
HETATM    5  C12 UNL     1      66.196  23.106  21.318  1.00  0.00     0.134 A
ENDROOT
BRANCH   1   6
HETATM    6  N1  UNL     1      65.527  21.877  23.321  1.00  0.00    -0.357 N
HETATM    7  C2  UNL     1      65.415  20.616  23.215  1.00  0.00     0.173 C
ATOM      8  H1  UNL     1      65.825  22.280  24.209  1.00  0.00     0.165 HD
BRANCH   7   9
HETATM    9  C1  UNL     1      65.713  19.771  24.357  1.00  0.00     0.214 C
HETATM   10  O1  UNL     1      66.885  19.431  24.667  1.00  0.00    -0.643 OA
HETATM   11  O2  UNL     1      64.685  19.285  25.183  1.00  0.00    -0.643 OA
ENDBRANCH   7   9
ENDBRANCH   1   6
BRANCH   2  12
HETATM   12  C5  UNL     1      62.725  23.078  22.779  1.00  0.00    -0.042 C
HETATM   13  C6  UNL     1      61.662  22.662  22.106  1.00  0.00    -0.018 C
HETATM   14  C7  UNL     1      60.324  22.429  22.697  1.00  0.00     0.028 C
HETATM   15  C8  UNL     1      60.260  23.044  24.089  1.00  0.00     0.004 C
HETATM   16  C9  UNL     1      61.493  22.582  24.822  1.00  0.00     0.005 C
HETATM   17  C10 UNL     1      62.684  23.333  24.212  1.00  0.00     0.040 C
ENDBRANCH   2  12
BRANCH   5  18
HETATM   18  O5  UNL     1      67.544  22.650  21.379  1.00  0.00    -0.356 OA
ATOM     19  H5  UNL     1      68.181  22.770  20.685  1.00  0.00     0.218 HD
ENDBRANCH   5  18
BRANCH   4  20
HETATM   20  N2  UNL     1      66.675  24.470  19.244  1.00  0.00    -0.105 N
HETATM   21  O3  UNL     1      67.755  25.018  19.532  1.00  0.00    -0.531 OA
HETATM   22  O4  UNL     1      66.312  24.366  17.935  1.00  0.00    -0.531 OA
ENDBRANCH   4  20
TORSDOF 5
ENDMDL