MODEL 4
REMARK VINA RESULT: -6.717083907      2.988      4.328
REMARK  6 active torsions:
REMARK  status: ('A' for Active; 'I' for Inactive)
REMARK    1  A    between atoms: C1_2  and  C2_3
REMARK    2  A    between atoms: C1_2  and  O2_10
REMARK    3  A    between atoms: C3_4  and  C4_5
REMARK    4  A    between atoms: O2_10  and  C8_11
REMARK    5  A    between atoms: N1_13  and  O3_15
REMARK    6  A    between atoms: C13_20  and  O4_21
ROOT
HETATM    1  C8  UNL     1      65.619  23.450  21.409  1.00  0.00     0.208 C
HETATM    2  C9  UNL     1      66.289  23.946  20.186  1.00  0.00     0.042 C
HETATM    3  N1  UNL     1      65.871  23.724  19.003  1.00  0.00    -0.275 N
ATOM      4  H1  UNL     1      65.025  23.172  18.859  1.00  0.00     0.193 HD
HETATM    5  C10 UNL     1      67.536  24.757  20.396  1.00  0.00     0.057 C
HETATM    6  C11 UNL     1      68.461  24.081  21.379  1.00  0.00     0.008 C
HETATM    7  C12 UNL     1      67.743  23.568  22.590  1.00  0.00     0.035 C
HETATM    8  C13 UNL     1      66.655  22.599  22.152  1.00  0.00     0.153 C
ENDROOT
BRANCH   1   9
HETATM    9  O2  UNL     1      64.476  22.699  21.153  1.00  0.00    -0.304 OA
BRANCH   9  10
HETATM   10  C1  UNL     1      63.196  23.265  21.194  1.00  0.00     0.283 C
HETATM   11  O1  UNL     1      62.857  23.927  20.185  1.00  0.00    -0.260 OA
BRANCH  10  12
HETATM   12  C2  UNL     1      62.310  23.101  22.325  1.00  0.00     0.083 C
HETATM   13  C3  UNL     1      62.664  22.302  23.311  1.00  0.00     0.025 C
BRANCH  13  14
HETATM   14  C4  UNL     1      61.771  22.119  24.481  1.00  0.00     0.005 A
HETATM   15  C5  UNL     1      60.950  23.044  25.065  1.00  0.00     0.019 A
HETATM   16  C6  UNL     1      60.232  22.646  26.119  1.00  0.00     0.008 A
HETATM   17  C7  UNL     1      60.374  21.350  26.532  1.00  0.00     0.050 A
HETATM   18  S1  UNL     1      61.514  20.726  25.424  1.00  0.00    -0.102 SA
ENDBRANCH  13  14
ENDBRANCH  10  12
ENDBRANCH   9  10
ENDBRANCH   1   9
BRANCH   8  19
HETATM   19  O4  UNL     1      67.201  21.636  21.295  1.00  0.00    -0.393 OA
ATOM     20  H4  UNL     1      66.625  20.882  21.233  1.00  0.00     0.210 HD
ENDBRANCH   8  19
BRANCH   3  21
HETATM   21  O3  UNL     1      66.554  24.222  17.920  1.00  0.00    -0.290 OA
ATOM     22  H3  UNL     1      67.068  25.017  18.001  1.00  0.00     0.244 HD
ENDBRANCH   3  21
TORSDOF 6
ENDMDL