MODEL 4
REMARK VINA RESULT: -5.980598825      4.542      5.687
REMARK  7 active torsions:
REMARK  status: ('A' for Active; 'I' for Inactive)
REMARK    1  A    between atoms: C2_2  and  N1_4
REMARK    2  A    between atoms: N1_4  and  N2_5
REMARK    3  A    between atoms: N1_4  and  C9_23
REMARK    4  A    between atoms: N2_5  and  N3_7
REMARK    5  A    between atoms: N3_7  and  C4_9
REMARK    6  A    between atoms: C6_13  and  C7_14
REMARK    7  A    between atoms: C7_14  and  O1_15
ROOT
HETATM    1  C4  UNL     1      62.151  22.511  23.051  1.00  0.00     0.167 A
HETATM    2  N4  UNL     1      61.749  23.338  22.103  1.00  0.00    -0.331 N
ATOM      3  H4  UNL     1      62.425  23.725  21.445  1.00  0.00     0.168 HD
HETATM    4  C5  UNL     1      60.499  23.660  22.006  1.00  0.00     0.096 A
HETATM    5  C6  UNL     1      59.685  24.464  21.186  1.00  0.00     0.078 A
HETATM    6  N5  UNL     1      58.425  24.358  21.635  1.00  0.00    -0.299 N
ATOM      7  H5  UNL     1      57.626  24.841  21.222  1.00  0.00     0.186 HD
HETATM    8  N6  UNL     1      58.344  23.564  22.661  1.00  0.00    -0.291 N
ATOM      9  H6  UNL     1      57.501  23.319  23.181  1.00  0.00     0.187 HD
HETATM   10  C8  UNL     1      59.618  23.123  22.905  1.00  0.00     0.121 A
HETATM   11  S1  UNL     1      60.682  22.159  23.862  1.00  0.00    -0.031 SA
ENDROOT
BRANCH   1  12
HETATM   12  N3  UNL     1      63.486  22.029  23.332  1.00  0.00    -0.265 N
ATOM     13  H3  UNL     1      63.740  21.042  23.325  1.00  0.00     0.190 HD
BRANCH  12  14
HETATM   14  N2  UNL     1      64.318  22.974  23.591  1.00  0.00    -0.242 N
ATOM     15  H2  UNL     1      64.180  23.550  24.421  1.00  0.00     0.208 HD
BRANCH  14  16
HETATM   16  N1  UNL     1      65.415  23.227  22.749  1.00  0.00    -0.301 N
BRANCH  16  17
HETATM   17  C2  UNL     1      65.319  24.366  21.875  1.00  0.00     0.096 C
HETATM   18  C1  UNL     1      64.707  24.127  20.547  1.00  0.00     0.033 C
HETATM   19  C3  UNL     1      64.589  25.495  22.566  1.00  0.00     0.033 C
ENDBRANCH  16  17
BRANCH  16  20
HETATM   20  C9  UNL     1      66.520  22.332  22.835  1.00  0.00     0.039 C
HETATM   21  C10 UNL     1      66.618  21.606  24.151  1.00  0.00     0.039 C
HETATM   22  C11 UNL     1      66.376  21.259  21.775  1.00  0.00     0.039 C
HETATM   23  C12 UNL     1      67.788  23.083  22.487  1.00  0.00     0.039 C
ENDBRANCH  16  20
ENDBRANCH  14  16
ENDBRANCH  12  14
ENDBRANCH   1  12
BRANCH   5  24
HETATM   24  C7  UNL     1      60.133  25.292  20.025  1.00  0.00     0.225 C
BRANCH  24  25
HETATM   25  O1  UNL     1      61.233  24.709  19.449  1.00  0.00    -0.395 OA
ATOM     26  H1  UNL     1      61.593  25.295  18.794  1.00  0.00     0.209 HD
ENDBRANCH  24  25
ENDBRANCH   5  24
TORSDOF 7
ENDMDL