MODEL 4
REMARK VINA RESULT: -7.082900042      3.466      5.508
REMARK  5 active torsions:
REMARK  status: ('A' for Active; 'I' for Inactive)
REMARK    1  A    between atoms: N1_1  and  C1_4
REMARK    2  A    between atoms: C2_7  and  C3_8
REMARK    3  A    between atoms: C3_8  and  S1_9
REMARK    4  A    between atoms: S1_9  and  C4_10
REMARK    5  A    between atoms: C5_15  and  C6_16
ROOT
HETATM    1  C4  UNL     1      67.114  23.805  21.920  1.00  0.00     0.203 A
HETATM    2  N3  UNL     1      67.883  22.865  21.302  1.00  0.00    -0.272 N
ATOM      3  H3  UNL     1      68.726  23.020  20.750  1.00  0.00     0.189 HD
HETATM    4  N4  UNL     1      67.302  21.707  21.571  1.00  0.00    -0.281 N
ATOM      5  H4  UNL     1      67.641  20.802  21.246  1.00  0.00     0.189 HD
HETATM    6  C5  UNL     1      66.215  21.879  22.321  1.00  0.00     0.145 A
HETATM    7  O1  UNL     1      66.130  23.178  22.516  1.00  0.00    -0.272 OA
ENDROOT
BRANCH   1   8
HETATM    8  S1  UNL     1      67.365  25.559  21.936  1.00  0.00    -0.079 SA
BRANCH   8   9
HETATM    9  C3  UNL     1      65.869  26.365  21.342  1.00  0.00     0.140 C
BRANCH   9  10
HETATM   10  C2  UNL     1      64.637  25.625  21.624  1.00  0.00     0.037 A
HETATM   11  N2  UNL     1      64.105  24.742  20.758  1.00  0.00    -0.195 N
HETATM   12  C1  UNL     1      62.984  24.054  20.990  1.00  0.00     0.675 A
ATOM     13  H2  UNL     1      64.587  24.588  19.872  1.00  0.00     0.184 HD
HETATM   14  N5  UNL     1      62.361  24.275  22.175  1.00  0.00    -0.202 N
HETATM   15  C13 UNL     1      62.818  25.132  23.090  1.00  0.00     0.108 A
ATOM     16  H5  UNL     1      61.502  23.762  22.375  1.00  0.00     0.183 HD
HETATM   17  C12 UNL     1      63.979  25.832  22.829  1.00  0.00     0.044 A
BRANCH  12  18
HETATM   18  N1  UNL     1      62.475  23.203  20.152  1.00  0.00    -0.234 N
ATOM     19  H12 UNL     1      61.669  23.475  19.589  1.00  0.00     0.174 HD
ATOM     20  H11 UNL     1      62.835  22.258  20.016  1.00  0.00     0.174 HD
ENDBRANCH  12  18
ENDBRANCH   9  10
ENDBRANCH   8   9
ENDBRANCH   1   8
BRANCH   6  21
HETATM   21  C6  UNL     1      65.281  20.851  22.843  1.00  0.00     0.062 C
HETATM   22  C7  UNL     1      64.245  21.554  23.686  1.00  0.00     0.013 C
HETATM   23  C8  UNL     1      63.515  20.603  24.600  1.00  0.00     0.001 C
HETATM   24  C9  UNL     1      64.456  19.941  25.546  1.00  0.00     0.000 C
HETATM   25  C10 UNL     1      65.827  19.729  25.027  1.00  0.00     0.001 C
HETATM   26  C11 UNL     1      65.947  19.720  23.534  1.00  0.00     0.013 C
ENDBRANCH   6  21
TORSDOF 5
ENDMDL