MODEL 4
REMARK VINA RESULT: -6.523959292      1.521      2.631
REMARK  4 active torsions:
REMARK  status: ('A' for Active; 'I' for Inactive)
REMARK    1  A    between atoms: C5_6  and  C6_7
REMARK    2  A    between atoms: C6_7  and  C7_9
REMARK    3  A    between atoms: C7_9  and  S2_10
REMARK    4  A    between atoms: S2_10  and  C8_11
ROOT
HETATM    1  C7  UNL     1      62.614  23.146  21.767  1.00  0.00     0.165 C
ENDROOT
BRANCH   1   2
HETATM    2  C6  UNL     1      62.996  23.158  23.170  1.00  0.00     0.170 C
HETATM    3  O1  UNL     1      63.046  24.231  23.807  1.00  0.00    -0.291 OA
BRANCH   2   4
HETATM    4  C5  UNL     1      63.336  21.892  23.880  1.00  0.00     0.030 A
HETATM    5  C3  UNL     1      62.351  21.218  24.561  1.00  0.00    -0.006 A
HETATM    6  S1  UNL     1      63.167  19.869  25.200  1.00  0.00    -0.099 SA
HETATM    7  C4  UNL     1      60.895  21.593  24.700  1.00  0.00     0.057 C
HETATM    8  C2  UNL     1      64.728  20.181  24.599  1.00  0.00    -0.014 A
HETATM    9  C1  UNL     1      66.002  19.386  24.772  1.00  0.00     0.057 C
HETATM   10  C10 UNL     1      64.566  21.350  23.904  1.00  0.00    -0.034 A
HETATM   11  C11 UNL     1      65.747  22.000  23.189  1.00  0.00     0.050 C
ENDBRANCH   2   4
ENDBRANCH   1   2
BRANCH   1  12
HETATM   12  S2  UNL     1      61.876  24.701  21.213  1.00  0.00    -0.096 SA
BRANCH  12  13
HETATM   13  C8  UNL     1      60.085  24.483  21.294  1.00  0.00     0.130 A
HETATM   14  N1  UNL     1      59.202  24.393  20.324  1.00  0.00    -0.286 N
HETATM   15  N2  UNL     1      57.967  24.240  20.577  1.00  0.00    -0.279 N
ATOM     16  H1  UNL     1      59.513  24.449  19.354  1.00  0.00     0.188 HD
HETATM   17  C9  UNL     1      57.582  24.169  21.857  1.00  0.00     0.159 A
ATOM     18  H2  UNL     1      57.284  24.171  19.823  1.00  0.00     0.189 HD
HETATM   19  N3  UNL     1      56.365  24.013  22.324  1.00  0.00    -0.379 N
HETATM   20  S3  UNL     1      59.069  24.334  22.680  1.00  0.00    -0.027 SA
ATOM     21  H32 UNL     1      55.476  23.915  21.832  1.00  0.00     0.158 HD
ATOM     22  H31 UNL     1      56.071  23.960  23.300  1.00  0.00     0.158 HD
ENDBRANCH  12  13
ENDBRANCH   1  12
TORSDOF 4
ENDMDL