MODEL 3
REMARK VINA RESULT: -7.768949056      2.567      3.159
REMARK  5 active torsions:
REMARK  status: ('A' for Active; 'I' for Inactive)
REMARK    1  A    between atoms: C3_3  and  C4_4
REMARK    2  A    between atoms: C6_6  and  C7_7
REMARK    3  A    between atoms: N1_8  and  O1_10
REMARK    4  A    between atoms: C9_15  and  N2_16
REMARK    5  A    between atoms: N2_16  and  N3_18
ROOT
HETATM    1  C1  UNL     1      59.818  23.630  26.397  1.00  0.00     0.012 C
HETATM    2  C2  UNL     1      60.341  23.124  25.418  1.00  0.00    -0.113 C
HETATM    3  C3  UNL     1      60.934  22.524  24.236  1.00  0.00     0.136 C
ENDROOT
BRANCH   3   4
HETATM    4  C4  UNL     1      61.875  21.454  24.605  1.00  0.00     0.007 A
HETATM    5  C5  UNL     1      61.407  20.438  25.449  1.00  0.00     0.031 A
HETATM    6  C6  UNL     1      62.270  19.436  25.794  1.00  0.00     0.058 A
HETATM    7  C8  UNL     1      63.578  19.436  25.313  1.00  0.00     0.301 A
HETATM    8  O2  UNL     1      64.385  18.505  25.629  1.00  0.00    -0.259 OA
HETATM    9  O3  UNL     1      63.949  20.403  24.537  1.00  0.00    -0.256 OA
HETATM   10  C9  UNL     1      63.174  21.398  24.165  1.00  0.00     0.173 A
BRANCH   6  11
HETATM   11  C7  UNL     1      61.834  18.360  26.658  1.00  0.00     0.131 C
HETATM   12  N1  UNL     1      61.829  17.123  26.439  1.00  0.00    -0.280 N
ATOM     13  H1  UNL     1      61.465  16.594  27.231  1.00  0.00     0.193 HD
BRANCH  12  14
HETATM   14  O1  UNL     1      62.179  16.340  25.433  1.00  0.00    -0.290 OA
ATOM     15  H1  UNL     1      62.995  16.113  25.001  1.00  0.00     0.244 HD
ENDBRANCH  12  14
ENDBRANCH   6  11
BRANCH  10  16
HETATM   16  N2  UNL     1      63.642  22.429  23.313  1.00  0.00    -0.279 N
ATOM     17  H2  UNL     1      63.020  23.186  23.031  1.00  0.00     0.189 HD
BRANCH  16  18
HETATM   18  N3  UNL     1      64.945  22.398  22.869  1.00  0.00    -0.307 N
HETATM   19  C10 UNL     1      65.707  23.356  22.554  1.00  0.00     0.004 C
HETATM   20  C11 UNL     1      65.302  24.765  22.611  1.00  0.00     0.054 C
HETATM   21  C16 UNL     1      67.069  22.876  22.121  1.00  0.00     0.054 C
HETATM   22  C12 UNL     1      65.643  25.492  21.314  1.00  0.00     0.006 C
HETATM   23  C13 UNL     1      67.044  25.990  21.414  1.00  0.00     0.000 C
HETATM   24  C14 UNL     1      68.090  24.925  21.214  1.00  0.00     0.000 C
HETATM   25  C15 UNL     1      68.123  23.930  22.350  1.00  0.00     0.006 C
ATOM     26  H3  UNL     1      65.354  21.467  22.783  1.00  0.00     0.186 HD
ENDBRANCH  16  18
ENDBRANCH  10  16
ENDBRANCH   3   4
TORSDOF 5
ENDMDL