MODEL 2
REMARK VINA RESULT: -5.592378160      1.121      1.164
REMARK  10 active torsions:
REMARK  status: ('A' for Active; 'I' for Inactive)
REMARK    1  A    between atoms: C2_2  and  N1_4
REMARK    2  A    between atoms: C2_2  and  N2_8
REMARK    3  A    between atoms: N2_8  and  C4_10
REMARK    4  A    between atoms: C4_10  and  C5_11
REMARK    5  A    between atoms: C4_10  and  C12_23
REMARK    6  A    between atoms: C5_11  and  N3_12
REMARK    7  A    between atoms: N3_12  and  C6_15
REMARK    8  A    between atoms: C6_15  and  C7_16
REMARK    9  A    between atoms: C12_23  and  O1_24
REMARK   10  A    between atoms: O1_24  and  C13_25
ROOT
HETATM    1  C4  UNL     1      19.515  -5.979   8.596  1.00  0.00     0.129 C
ENDROOT
BRANCH   1   2
HETATM    2  N2  UNL     1      18.971  -6.594   9.708  1.00  0.00    -0.384 N
ATOM      3  H2  UNL     1      18.400  -6.012  10.321  1.00  0.00     0.156 HD
BRANCH   2   4
HETATM    4  C2  UNL     1      19.122  -7.920  10.074  1.00  0.00     0.184 C
HETATM    5  C1  UNL     1      17.798  -8.624  10.393  1.00  0.00     0.070 C
HETATM    6  C3  UNL     1      19.916  -7.946  11.397  1.00  0.00     0.070 C
BRANCH   4   7
HETATM    7  N1  UNL     1      19.829  -8.780   9.158  1.00  0.00    -0.054 N
ATOM      8  H13 UNL     1      20.750  -9.060   9.495  1.00  0.00     0.277 HD
ATOM      9  H12 UNL     1      19.429  -9.716   9.091  1.00  0.00     0.277 HD
ATOM     10  H11 UNL     1      19.858  -8.287   8.265  1.00  0.00     0.277 HD
ENDBRANCH   4   7
ENDBRANCH   2   4
ENDBRANCH   1   2
BRANCH   1  11
HETATM   11  C5  UNL     1      20.168  -4.668   8.896  1.00  0.00     0.259 C
BRANCH  11  12
HETATM   12  N3  UNL     1      19.830  -4.135  10.212  1.00  0.00    -0.068 N
ATOM     13  H32 UNL     1      19.094  -4.690  10.650  1.00  0.00     0.277 HD
ATOM     14  H31 UNL     1      20.585  -4.305  10.876  1.00  0.00     0.277 HD
BRANCH  12  15
HETATM   15  C6  UNL     1      19.476  -2.751  10.184  1.00  0.00     0.289 C
BRANCH  15  16
HETATM   16  C7  UNL     1      20.129  -2.061  11.308  1.00  0.00     0.034 A
HETATM   17  C8  UNL     1      20.162  -2.608  12.580  1.00  0.00     0.027 A
HETATM   18  C9  UNL     1      20.767  -1.972  13.642  1.00  0.00     0.003 A
HETATM   19  C10 UNL     1      21.369  -0.755  13.472  1.00  0.00     0.017 A
HETATM   20  C11 UNL     1      21.330  -0.210  12.178  1.00  0.00     0.088 A
HETATM   21  N4  UNL     1      20.726  -0.866  11.165  1.00  0.00    -0.368 N
ATOM     22  H4  UNL     1      20.722  -0.432  10.242  1.00  0.00     0.165 HD
ENDBRANCH  15  16
ENDBRANCH  12  15
ENDBRANCH  11  12
ENDBRANCH   1  11
BRANCH   1  23
HETATM   23  C12 UNL     1      18.436  -5.789   7.529  1.00  0.00     0.206 C
BRANCH  23  24
HETATM   24  O1  UNL     1      18.097  -7.040   7.009  1.00  0.00    -0.304 OA
BRANCH  24  25
HETATM   25  C13 UNL     1      18.777  -7.555   5.901  1.00  0.00     0.372 C
HETATM   26  N5  UNL     1      19.912  -8.383   5.971  1.00  0.00    -0.032 NA
HETATM   27  O2  UNL     1      18.320  -7.240   4.771  1.00  0.00    -0.242 OA
ENDBRANCH  24  25
ENDBRANCH  23  24
ENDBRANCH   1  23
TORSDOF 10
ENDMDL