MODEL 1
REMARK VINA RESULT: -6.278766930      0.000      0.000
REMARK  10 active torsions:
REMARK  status: ('A' for Active; 'I' for Inactive)
REMARK    1  A    between atoms: C1_4  and  C2_5
REMARK    2  A    between atoms: C2_5  and  N2_6
REMARK    3  A    between atoms: C2_5  and  C11_19
REMARK    4  A    between atoms: N2_6  and  N3_7
REMARK       I    between atoms: N3_7  and  C3_9
REMARK    5  A    between atoms: C3_9  and  C4_11
REMARK    6  A    between atoms: C4_11  and  O2_12
REMARK    7  A    between atoms: O2_12  and  C5_13
REMARK    8  A    between atoms: C11_19  and  C12_21
REMARK    9  A    between atoms: C12_21  and  C13_22
REMARK   10  A    between atoms: C13_22  and  N4_23
ROOT
HETATM    1  C2  UNL     1      18.568  -6.989   6.492  1.00  0.00     0.206 C
ENDROOT
BRANCH   1   2
HETATM    2  C1  UNL     1      17.634  -7.700   5.560  1.00  0.00     0.083 C
HETATM    3  N1  UNL     1      17.506  -7.268   4.385  1.00  0.00    -0.409 N
ATOM      4  H12 UNL     1      18.035  -6.448   4.088  1.00  0.00     0.155 HD
ATOM      5  H11 UNL     1      16.870  -7.751   3.751  1.00  0.00     0.155 HD
ENDBRANCH   1   2
BRANCH   1   6
HETATM    6  N2  UNL     1      18.035  -7.039   7.825  1.00  0.00    -0.121 NA
BRANCH   6   7
HETATM    7  N3  UNL     1      17.835  -5.705   8.248  1.00  0.00    -0.271 N
HETATM    8  C3  UNL     1      18.589  -5.212   9.367  1.00  0.00     0.257 C
HETATM    9  O1  UNL     1      19.411  -5.961   9.950  1.00  0.00    -0.270 OA
ATOM     10  H3  UNL     1      17.167  -5.104   7.767  1.00  0.00     0.185 HD
BRANCH   8  11
HETATM   11  C4  UNL     1      18.392  -3.829   9.826  1.00  0.00     0.279 C
BRANCH  11  12
HETATM   12  O2  UNL     1      19.638  -3.202  10.058  1.00  0.00    -0.342 OA
BRANCH  12  13
HETATM   13  C5  UNL     1      20.005  -2.714  11.305  1.00  0.00     0.069 A
HETATM   14  C6  UNL     1      19.833  -3.509  12.415  1.00  0.00     0.037 A
HETATM   15  C7  UNL     1      20.190  -3.058  13.690  1.00  0.00     0.003 A
HETATM   16  C8  UNL     1      20.725  -1.790  13.842  1.00  0.00     0.000 A
HETATM   17  C9  UNL     1      20.906  -0.979  12.744  1.00  0.00     0.003 A
HETATM   18  C10 UNL     1      20.542  -1.457  11.490  1.00  0.00     0.037 A
ENDBRANCH  12  13
ENDBRANCH  11  12
ENDBRANCH   8  11
ENDBRANCH   6   7
ENDBRANCH   1   6
BRANCH   1  19
HETATM   19  C11 UNL     1      19.861  -7.718   6.372  1.00  0.00     0.154 C
HETATM   20  O3  UNL     1      20.018  -8.744   5.745  1.00  0.00    -0.296 OA
BRANCH  19  21
HETATM   21  C12 UNL     1      21.041  -7.148   7.070  1.00  0.00     0.107 C
BRANCH  21  22
HETATM   22  C13 UNL     1      21.304  -5.710   6.623  1.00  0.00     0.237 C
BRANCH  22  23
HETATM   23  N4  UNL     1      22.734  -5.515   6.599  1.00  0.00    -0.079 N
ATOM     24  H43 UNL     1      23.177  -5.720   7.494  1.00  0.00     0.274 HD
ATOM     25  H42 UNL     1      23.221  -6.219   6.044  1.00  0.00     0.274 HD
ATOM     26  H41 UNL     1      22.910  -4.563   6.277  1.00  0.00     0.274 HD
ENDBRANCH  22  23
ENDBRANCH  21  22
ENDBRANCH  19  21
ENDBRANCH   1  19
TORSDOF 10
ENDMDL