MODEL 3
REMARK VINA RESULT: -4.989402328      2.348      5.111
REMARK  8 active torsions:
REMARK  status: ('A' for Active; 'I' for Inactive)
REMARK    1  A    between atoms: C1_2  and  C2_3
REMARK    2  A    between atoms: C2_3  and  N1_4
REMARK    3  A    between atoms: N1_4  and  C3_7
REMARK    4  A    between atoms: C3_7  and  C4_8
REMARK       I    between atoms: C4_8  and  N2_10
REMARK    5  A    between atoms: N2_10  and  C5_12
REMARK    6  A    between atoms: C5_12  and  C6_13
REMARK    7  A    between atoms: C6_13  and  N3_14
REMARK    8  A    between atoms: N3_14  and  C7_16
ROOT
HETATM    1  N3  UNL     1      19.454  -7.461  10.714  1.00  0.00    -0.386 N
ATOM      2  H3  UNL     1      20.274  -7.905  10.302  1.00  0.00     0.159 HD
ENDROOT
BRANCH   1   3
HETATM    3  C6  UNL     1      18.145  -8.038  10.494  1.00  0.00     0.139 C
BRANCH   3   4
HETATM    4  C5  UNL     1      17.499  -7.502   9.242  1.00  0.00     0.142 C
BRANCH   4   5
HETATM    5  N2  UNL     1      18.274  -7.930   8.097  1.00  0.00    -0.358 N
HETATM    6  C4  UNL     1      18.625  -7.016   7.053  1.00  0.00     0.243 C
HETATM    7  O2  UNL     1      18.238  -5.833   7.180  1.00  0.00    -0.272 OA
ATOM      8  H2  UNL     1      18.576  -8.903   8.032  1.00  0.00     0.162 HD
BRANCH   6   9
HETATM    9  C3  UNL     1      19.414  -7.543   5.912  1.00  0.00     0.335 C
BRANCH   9  10
HETATM   10  N1  UNL     1      20.648  -6.825   5.684  1.00  0.00    -0.061 N
ATOM     11  H12 UNL     1      20.483  -5.888   5.318  1.00  0.00     0.278 HD
ATOM     12  H11 UNL     1      21.170  -7.204   4.894  1.00  0.00     0.278 HD
BRANCH  10  13
HETATM   13  C2  UNL     1      21.428  -6.803   6.880  1.00  0.00     0.301 C
BRANCH  13  14
HETATM   14  C1  UNL     1      22.050  -5.467   7.133  1.00  0.00     0.258 C
HETATM   15  O1  UNL     1      21.378  -4.480   6.854  1.00  0.00    -0.305 OA
ENDBRANCH  13  14
ENDBRANCH  10  13
ENDBRANCH   9  10
ENDBRANCH   6   9
ENDBRANCH   4   5
ENDBRANCH   3   4
ENDBRANCH   1   3
BRANCH   1  16
HETATM   16  C7  UNL     1      19.611  -6.290  11.493  1.00  0.00     0.060 A
HETATM   17  C8  UNL     1      19.730  -6.387  12.865  1.00  0.00     0.048 A
HETATM   18  C9  UNL     1      19.895  -5.249  13.632  1.00  0.00     0.092 A
HETATM   19  N4  UNL     1      19.940  -4.037  13.038  1.00  0.00    -0.350 N
HETATM   20  C10 UNL     1      19.828  -3.885  11.700  1.00  0.00     0.135 A
ATOM     21  H4  UNL     1      20.062  -3.208  13.619  1.00  0.00     0.166 HD
HETATM   22  N5  UNL     1      19.842  -2.790  10.921  1.00  0.00    -0.337 N
HETATM   23  C12 UNL     1      19.663  -5.027  10.947  1.00  0.00     0.104 A
HETATM   24  C11 UNL     1      19.684  -3.241   9.663  1.00  0.00     0.182 A
ATOM     25  H5  UNL     1      19.949  -1.820  11.220  1.00  0.00     0.168 HD
HETATM   26  N6  UNL     1      19.577  -4.581   9.665  1.00  0.00    -0.347 N
ATOM     27  H6  UNL     1      19.450  -5.167   8.840  1.00  0.00     0.167 HD
ENDBRANCH   1  16
TORSDOF 8
ENDMDL