MODEL 3
REMARK VINA RESULT: -5.699806556      2.067      2.754
REMARK  9 active torsions:
REMARK  status: ('A' for Active; 'I' for Inactive)
REMARK    1  A    between atoms: C2_2  and  C4_4
REMARK    2  A    between atoms: C4_4  and  C5_5
REMARK    3  A    between atoms: C5_5  and  O1_6
REMARK    4  A    between atoms: C5_5  and  C6_8
REMARK    5  A    between atoms: C6_8  and  C7_9
REMARK    6  A    between atoms: C6_8  and  N5_17
REMARK    7  A    between atoms: C7_9  and  C8_10
REMARK    8  A    between atoms: N5_17  and  C9_19
REMARK    9  A    between atoms: C9_19  and  C10_20
ROOT
HETATM    1  C6  UNL     1      18.085  -6.263   9.001  1.00  0.00     0.112 C
ENDROOT
BRANCH   1   2
HETATM    2  C5  UNL     1      18.505  -4.856   8.729  1.00  0.00     0.141 C
BRANCH   2   3
HETATM    3  C4  UNL     1      19.700  -4.443   9.506  1.00  0.00     0.037 C
BRANCH   3   4
HETATM    4  C2  UNL     1      19.320  -3.647  10.754  1.00  0.00    -0.020 C
HETATM    5  C1  UNL     1      19.953  -2.290  10.764  1.00  0.00     0.009 C
HETATM    6  C3  UNL     1      19.669  -4.362  12.026  1.00  0.00     0.009 C
ENDBRANCH   3   4
ENDBRANCH   2   3
BRANCH   2   7
HETATM    7  O1  UNL     1      18.443  -4.456   7.412  1.00  0.00    -0.394 OA
ATOM      8  H1  UNL     1      17.906  -3.698   7.215  1.00  0.00     0.210 HD
ENDBRANCH   2   7
ENDBRANCH   1   2
BRANCH   1   9
HETATM    9  C7  UNL     1      19.369  -7.097   9.061  1.00  0.00     0.106 C
BRANCH   9  10
HETATM   10  C8  UNL     1      19.785  -7.624   7.765  1.00  0.00     0.108 A
HETATM   11  N1  UNL     1      19.023  -8.240   6.839  1.00  0.00    -0.274 N
HETATM   12  N2  UNL     1      19.761  -8.574   5.793  1.00  0.00    -0.007 NA
ATOM     13  H1  UNL     1      18.023  -8.421   6.931  1.00  0.00     0.185 HD
HETATM   14  N3  UNL     1      20.997  -8.173   6.050  1.00  0.00    -0.007 NA
HETATM   15  N4  UNL     1      21.022  -7.597   7.240  1.00  0.00    -0.274 N
ATOM     16  H4  UNL     1      21.847  -7.198   7.688  1.00  0.00     0.185 HD
ENDBRANCH   9  10
ENDBRANCH   1   9
BRANCH   1  17
HETATM   17  N5  UNL     1      17.249  -6.459  10.087  1.00  0.00    -0.410 N
ATOM     18  H5  UNL     1      17.605  -6.297  11.029  1.00  0.00     0.154 HD
BRANCH  17  19
HETATM   19  C9  UNL     1      15.908  -6.881   9.913  1.00  0.00     0.156 C
BRANCH  19  20
HETATM   20  C10 UNL     1      15.877  -8.378   9.714  1.00  0.00    -0.007 A
HETATM   21  C11 UNL     1      16.478  -9.357  10.458  1.00  0.00     0.117 A
HETATM   22  N6  UNL     1      16.169 -10.547   9.898  1.00  0.00    -0.312 N
HETATM   23  N7  UNL     1      15.407 -10.307   8.849  1.00  0.00    -0.312 N
ATOM     24  H6  UNL     1      16.471 -11.464  10.227  1.00  0.00     0.186 HD
HETATM   25  C12 UNL     1      15.203  -8.991   8.701  1.00  0.00     0.117 A
ATOM     26  H7  UNL     1      15.025 -11.025   8.233  1.00  0.00     0.186 HD
ENDBRANCH  19  20
ENDBRANCH  17  19
ENDBRANCH   1  17
TORSDOF 9
ENDMDL