MODEL 1
REMARK VINA RESULT: -5.515077157      0.000      0.000
REMARK  9 active torsions:
REMARK  status: ('A' for Active; 'I' for Inactive)
REMARK    1  A    between atoms: N1_1  and  C1_4
REMARK    2  A    between atoms: C3_8  and  C4_9
REMARK    3  A    between atoms: C4_9  and  C5_10
REMARK    4  A    between atoms: C4_9  and  C7_15
REMARK    5  A    between atoms: C5_10  and  C6_11
REMARK    6  A    between atoms: C6_11  and  N3_12
REMARK    7  A    between atoms: C7_15  and  N4_16
REMARK    8  A    between atoms: N4_16  and  C8_19
REMARK    9  A    between atoms: C8_19  and  C9_20
ROOT
HETATM    1  C4  UNL     1      19.846  -4.843   8.505  1.00  0.00     0.051 C
ENDROOT
BRANCH   1   2
HETATM    2  C3  UNL     1      19.155  -6.113   8.970  1.00  0.00     0.005 A
HETATM    3  C2  UNL     1      19.507  -6.730  10.131  1.00  0.00     0.117 A
HETATM    4  N2  UNL     1      18.815  -7.854  10.493  1.00  0.00    -0.202 N
HETATM    5  C1  UNL     1      17.803  -8.331   9.699  1.00  0.00     0.676 A
ATOM      6  H2  UNL     1      19.054  -8.340  11.357  1.00  0.00     0.183 HD
HETATM    7  N6  UNL     1      17.482  -7.696   8.556  1.00  0.00    -0.179 N
HETATM    8  C12 UNL     1      18.134  -6.568   8.143  1.00  0.00     0.140 A
ATOM      9  H6  UNL     1      16.728  -8.069   7.980  1.00  0.00     0.185 HD
HETATM   10  N5  UNL     1      17.771  -5.940   6.916  1.00  0.00    -0.082 NA
BRANCH   5  11
HETATM   11  N1  UNL     1      17.193  -9.407  10.080  1.00  0.00    -0.234 N
ATOM     12  H12 UNL     1      17.590 -10.335   9.933  1.00  0.00     0.174 HD
ATOM     13  H11 UNL     1      16.294  -9.302  10.551  1.00  0.00     0.174 HD
ENDBRANCH   5  11
ENDBRANCH   1   2
BRANCH   1  14
HETATM   14  C5  UNL     1      21.244  -5.236   8.113  1.00  0.00     0.037 C
BRANCH  14  15
HETATM   15  C6  UNL     1      21.492  -5.509   6.662  1.00  0.00     0.202 C
BRANCH  15  16
HETATM   16  N3  UNL     1      21.121  -6.920   6.370  1.00  0.00    -0.156 N
HETATM   17  O1  UNL     1      21.533  -7.864   7.030  1.00  0.00    -0.537 OA
HETATM   18  O2  UNL     1      20.286  -7.071   5.312  1.00  0.00    -0.537 OA
ENDBRANCH  15  16
ENDBRANCH  14  15
ENDBRANCH   1  14
BRANCH   1  19
HETATM   19  C7  UNL     1      19.935  -3.931   9.729  1.00  0.00     0.241 C
BRANCH  19  20
HETATM   20  N4  UNL     1      18.782  -3.134   9.854  1.00  0.00    -0.074 N
ATOM     21  H42 UNL     1      18.488  -2.789   8.939  1.00  0.00     0.277 HD
ATOM     22  H41 UNL     1      17.975  -3.710  10.091  1.00  0.00     0.277 HD
BRANCH  20  23
HETATM   23  C8  UNL     1      18.912  -2.031  10.794  1.00  0.00     0.237 C
BRANCH  23  24
HETATM   24  C9  UNL     1      20.215  -2.246  11.519  1.00  0.00     0.011 A
HETATM   25  C10 UNL     1      20.436  -1.883  12.938  1.00  0.00     0.007 A
HETATM   26  C11 UNL     1      20.878  -0.913  11.903  1.00  0.00     0.007 A
ENDBRANCH  23  24
ENDBRANCH  20  23
ENDBRANCH  19  20
ENDBRANCH   1  19
TORSDOF 9
ENDMDL