MODEL 1
REMARK VINA RESULT: -6.053771727      0.000      0.000
REMARK  9 active torsions:
REMARK  status: ('A' for Active; 'I' for Inactive)
REMARK    1  A    between atoms: C2_2  and  C3_3
REMARK    2  A    between atoms: C2_2  and  C4_6
REMARK    3  A    between atoms: C4_6  and  C5_7
REMARK    4  A    between atoms: C4_6  and  N2_10
REMARK    5  A    between atoms: C5_7  and  C6_8
REMARK    6  A    between atoms: N2_10  and  C7_13
REMARK    7  A    between atoms: C7_13  and  O3_14
REMARK    8  A    between atoms: C7_13  and  C8_16
REMARK    9  A    between atoms: C11_19  and  C12_20
ROOT
HETATM    1  N2  UNL     1      19.227  -8.035   8.146  1.00  0.00    -0.037 N
ATOM      2  H21 UNL     1      19.533  -8.370   7.232  1.00  0.00     0.281 HD
ATOM      3  H22 UNL     1      18.345  -8.543   8.211  1.00  0.00     0.281 HD
ENDROOT
BRANCH   1   4
HETATM    4  C4  UNL     1      19.018  -6.602   8.145  1.00  0.00     0.208 C
BRANCH   4   5
HETATM    5  C2  UNL     1      20.245  -5.838   8.341  1.00  0.00     0.102 C
HETATM    6  C1  UNL     1      20.016  -4.568   9.169  1.00  0.00     0.021 C
BRANCH   5   7
HETATM    7  C3  UNL     1      21.157  -5.537   7.263  1.00  0.00     0.236 C
HETATM    8  N1  UNL     1      21.839  -6.661   6.700  1.00  0.00    -0.062 NA
HETATM    9  O1  UNL     1      21.454  -4.449   6.734  1.00  0.00    -0.276 OA
ENDBRANCH   5   7
ENDBRANCH   4   5
BRANCH   4  10
HETATM   10  C5  UNL     1      18.069  -6.302   7.066  1.00  0.00     0.103 C
BRANCH  10  11
HETATM   11  C6  UNL     1      17.971  -7.226   5.932  1.00  0.00     0.233 C
HETATM   12  O2  UNL     1      18.886  -7.317   5.148  1.00  0.00    -0.307 OA
ENDBRANCH  10  11
ENDBRANCH   4  10
ENDBRANCH   1   4
BRANCH   1  13
HETATM   13  C7  UNL     1      20.128  -8.420   9.171  1.00  0.00     0.377 C
BRANCH  13  14
HETATM   14  O3  UNL     1      20.442  -9.797   8.872  1.00  0.00    -0.365 OA
ATOM     15  H3  UNL     1      20.739  -9.779   7.970  1.00  0.00     0.212 HD
ENDBRANCH  13  14
BRANCH  13  16
HETATM   16  C8  UNL     1      19.429  -8.521  10.505  1.00  0.00     0.109 A
HETATM   17  C9  UNL     1      19.594  -7.825  11.654  1.00  0.00     0.040 A
HETATM   18  C10 UNL     1      18.683  -8.336  12.577  1.00  0.00     0.045 A
HETATM   19  C11 UNL     1      18.002  -9.328  11.936  1.00  0.00     0.140 A
HETATM   20  O5  UNL     1      18.473  -9.402  10.722  1.00  0.00    -0.305 OA
BRANCH  19  21
HETATM   21  C12 UNL     1      16.943 -10.169  12.469  1.00  0.00     0.288 C
HETATM   22  N3  UNL     1      16.952 -11.554  12.140  1.00  0.00    -0.055 NA
HETATM   23  O4  UNL     1      16.024  -9.744  13.199  1.00  0.00    -0.269 OA
ENDBRANCH  19  21
ENDBRANCH  13  16
ENDBRANCH   1  13
TORSDOF 9
ENDMDL