MODEL 5
REMARK VINA RESULT: -5.273173247      2.198      3.021
REMARK  9 active torsions:
REMARK  status: ('A' for Active; 'I' for Inactive)
REMARK    1  A    between atoms: C2_2  and  C3_3
REMARK    2  A    between atoms: C3_3  and  N1_4
REMARK       I    between atoms: N1_4  and  C4_6
REMARK    3  A    between atoms: C4_6  and  C5_8
REMARK    4  A    between atoms: C5_8  and  N2_9
REMARK    5  A    between atoms: N2_9  and  C6_11
REMARK    6  A    between atoms: C12_18  and  N4_19
REMARK    7  A    between atoms: N4_19  and  C13_21
REMARK    8  A    between atoms: C13_21  and  C14_22
REMARK    9  A    between atoms: C14_22  and  N5_23
ROOT
HETATM    1  C6  UNL     1      19.467  -7.293  11.094  1.00  0.00     0.055 A
HETATM    2  C7  UNL     1      19.509  -7.773  12.382  1.00  0.00     0.033 A
HETATM    3  C8  UNL     1      19.742  -6.926  13.430  1.00  0.00     0.025 A
HETATM    4  C9  UNL     1      19.943  -5.576  13.252  1.00  0.00     0.046 A
HETATM    5  C10 UNL     1      20.188  -4.673  14.341  1.00  0.00     0.099 C
HETATM    6  N3  UNL     1      20.407  -3.947  15.227  1.00  0.00    -0.191 NA
HETATM    7  C11 UNL     1      19.893  -5.124  11.934  1.00  0.00     0.054 A
HETATM    8  C12 UNL     1      19.661  -5.949  10.857  1.00  0.00     0.056 A
ENDROOT
BRANCH   8   9
HETATM    9  N4  UNL     1      19.601  -5.394   9.552  1.00  0.00    -0.386 N
ATOM     10  H4  UNL     1      18.785  -5.635   8.989  1.00  0.00     0.159 HD
BRANCH   9  11
HETATM   11  C13 UNL     1      20.565  -4.535   8.948  1.00  0.00     0.147 C
BRANCH  11  12
HETATM   12  C14 UNL     1      20.657  -4.772   7.457  1.00  0.00     0.249 C
BRANCH  12  13
HETATM   13  N5  UNL     1      22.046  -5.106   7.110  1.00  0.00    -0.078 N
ATOM     14  H53 UNL     1      22.561  -4.302   6.752  1.00  0.00     0.274 HD
ATOM     15  H52 UNL     1      22.619  -5.286   7.935  1.00  0.00     0.274 HD
ATOM     16  H51 UNL     1      22.047  -5.890   6.458  1.00  0.00     0.274 HD
ENDBRANCH  12  13
ENDBRANCH  11  12
ENDBRANCH   9  11
ENDBRANCH   8   9
BRANCH   1  17
HETATM   17  N2  UNL     1      19.226  -8.221  10.046  1.00  0.00    -0.379 N
ATOM     18  H2  UNL     1      18.274  -8.502   9.812  1.00  0.00     0.160 HD
BRANCH  17  19
HETATM   19  C5  UNL     1      20.344  -8.758   9.319  1.00  0.00     0.222 C
BRANCH  19  20
HETATM   20  C4  UNL     1      20.342  -8.328   7.902  1.00  0.00     0.235 C
HETATM   21  N1  UNL     1      19.093  -8.104   7.265  1.00  0.00    -0.356 N
ATOM     22  H1  UNL     1      18.248  -8.244   7.819  1.00  0.00     0.162 HD
HETATM   23  O1  UNL     1      21.450  -8.181   7.333  1.00  0.00    -0.272 OA
BRANCH  21  24
HETATM   24  C3  UNL     1      18.933  -7.699   5.912  1.00  0.00     0.149 C
BRANCH  24  25
HETATM   25  C2  UNL     1      17.542  -7.762   5.415  1.00  0.00    -0.018 C
HETATM   26  C1  UNL     1      17.114  -7.138   4.338  1.00  0.00     0.008 C
ENDBRANCH  24  25
ENDBRANCH  21  24
ENDBRANCH  19  20
ENDBRANCH  17  19
ENDBRANCH   1  17
TORSDOF 9
ENDMDL