MODEL 5
REMARK VINA RESULT: -5.144429197      1.595      2.233
REMARK  9 active torsions:
REMARK  status: ('A' for Active; 'I' for Inactive)
REMARK    1  A    between atoms: N1_1  and  C1_5
REMARK    2  A    between atoms: C1_5  and  C2_6
REMARK    3  A    between atoms: C2_6  and  N2_7
REMARK    4  A    between atoms: N2_7  and  C3_10
REMARK    5  A    between atoms: C3_10  and  C4_11
REMARK    6  A    between atoms: C5_12  and  C6_13
REMARK    7  A    between atoms: C6_13  and  N3_14
REMARK       I    between atoms: N3_14  and  C7_16
REMARK    8  A    between atoms: C7_16  and  C8_18
REMARK    9  A    between atoms: C12_24  and  N5_25
ROOT
HETATM    1  N3  UNL     1      19.565  -4.470   9.671  1.00  0.00    -0.352 N
ATOM      2  H3  UNL     1      19.371  -3.781   8.944  1.00  0.00     0.163 HD
HETATM    3  C7  UNL     1      19.511  -5.819   9.335  1.00  0.00     0.271 C
HETATM    4  O1  UNL     1      19.784  -6.641  10.289  1.00  0.00    -0.266 OA
ENDROOT
BRANCH   1   5
HETATM    5  C6  UNL     1      19.881  -3.996  10.996  1.00  0.00     0.150 C
BRANCH   5   6
HETATM    6  C5  UNL     1      19.872  -2.500  10.976  1.00  0.00    -0.010 C
HETATM    7  C4  UNL     1      20.479  -1.784  11.909  1.00  0.00    -0.002 C
BRANCH   7   8
HETATM    8  C3  UNL     1      20.421  -0.299  11.814  1.00  0.00     0.259 C
BRANCH   8   9
HETATM    9  N2  UNL     1      21.711   0.273  11.580  1.00  0.00    -0.070 N
ATOM     10  H22 UNL     1      21.846   0.450  10.585  1.00  0.00     0.277 HD
ATOM     11  H21 UNL     1      22.441  -0.421  11.735  1.00  0.00     0.277 HD
BRANCH   9  12
HETATM   12  C2  UNL     1      21.980   1.465  12.345  1.00  0.00     0.259 C
BRANCH  12  13
HETATM   13  C1  UNL     1      23.037   1.224  13.387  1.00  0.00     0.257 C
BRANCH  13  14
HETATM   14  N1  UNL     1      24.350   1.348  12.769  1.00  0.00    -0.078 N
ATOM     15  H13 UNL     1      24.915   0.507  12.885  1.00  0.00     0.274 HD
ATOM     16  H12 UNL     1      24.300   1.347  11.750  1.00  0.00     0.274 HD
ATOM     17  H11 UNL     1      24.812   2.181  13.134  1.00  0.00     0.274 HD
ENDBRANCH  13  14
ENDBRANCH  12  13
ENDBRANCH   9  12
ENDBRANCH   8   9
ENDBRANCH   7   8
ENDBRANCH   5   6
ENDBRANCH   1   5
BRANCH   3  18
HETATM   18  C8  UNL     1      19.203  -6.426   8.069  1.00  0.00     0.134 A
HETATM   19  N4  UNL     1      17.985  -7.060   7.999  1.00  0.00    -0.359 N
HETATM   20  C9  UNL     1      17.555  -7.689   6.904  1.00  0.00     0.088 A
ATOM     21  H4  UNL     1      17.383  -7.049   8.822  1.00  0.00     0.165 HD
HETATM   22  C10 UNL     1      18.348  -7.718   5.781  1.00  0.00     0.020 A
HETATM   23  C11 UNL     1      19.551  -7.115   5.785  1.00  0.00     0.040 A
HETATM   24  C12 UNL     1      19.982  -6.448   6.969  1.00  0.00     0.135 A
BRANCH  24  25
HETATM   25  N5  UNL     1      21.226  -5.783   6.898  1.00  0.00    -0.113 N
HETATM   26  O2  UNL     1      22.260  -6.480   6.876  1.00  0.00    -0.532 OA
HETATM   27  O3  UNL     1      21.369  -4.442   6.854  1.00  0.00    -0.532 OA
ENDBRANCH  24  25
ENDBRANCH   3  18
TORSDOF 9
ENDMDL