MODEL 2
REMARK VINA RESULT: -5.071554299      1.422      1.584
REMARK  9 active torsions:
REMARK  status: ('A' for Active; 'I' for Inactive)
REMARK    1  A    between atoms: C2_2  and  C4_4
REMARK    2  A    between atoms: C4_4  and  C5_5
REMARK    3  A    between atoms: C5_5  and  C6_6
REMARK    4  A    between atoms: C5_5  and  N1_8
REMARK    5  A    between atoms: N1_8  and  C7_11
REMARK    6  A    between atoms: C7_11  and  O2_12
REMARK    7  A    between atoms: C7_11  and  N2_14
REMARK    8  A    between atoms: N2_14  and  C8_17
REMARK    9  A    between atoms: C8_17  and  C10_20
ROOT
HETATM    1  C8  UNL     1      19.581  -7.104  10.677  1.00  0.00     0.327 C
HETATM    2  C9  UNL     1      19.869  -5.665  10.662  1.00  0.00     0.095 C
HETATM    3  N3  UNL     1      20.087  -4.509  10.677  1.00  0.00    -0.195 NA
ENDROOT
BRANCH   1   4
HETATM    4  N2  UNL     1      19.407  -7.579   9.358  1.00  0.00    -0.004 N
ATOM      5  H22 UNL     1      19.227  -6.813   8.710  1.00  0.00     0.284 HD
ATOM      6  H21 UNL     1      18.526  -8.084   9.261  1.00  0.00     0.284 HD
BRANCH   4   7
HETATM    7  C7  UNL     1      20.519  -8.383   8.918  1.00  0.00     0.524 C
BRANCH   7   8
HETATM    8  N1  UNL     1      21.136  -7.995   7.706  1.00  0.00    -0.013 N
ATOM      9  H12 UNL     1      21.133  -8.761   7.033  1.00  0.00     0.283 HD
ATOM     10  H11 UNL     1      22.143  -7.886   7.828  1.00  0.00     0.283 HD
BRANCH   8  11
HETATM   11  C5  UNL     1      20.559  -6.819   7.145  1.00  0.00     0.252 C
BRANCH  11  12
HETATM   12  C4  UNL     1      19.797  -7.140   5.860  1.00  0.00     0.044 C
BRANCH  12  13
HETATM   13  C2  UNL     1      18.344  -7.388   6.033  1.00  0.00    -0.020 C
HETATM   14  C1  UNL     1      17.809  -6.192   6.852  1.00  0.00     0.009 C
HETATM   15  C3  UNL     1      17.527  -7.349   4.749  1.00  0.00     0.009 C
ENDBRANCH  12  13
ENDBRANCH  11  12
BRANCH  11  16
HETATM   16  C6  UNL     1      21.447  -5.670   6.963  1.00  0.00     0.264 C
HETATM   17  O1  UNL     1      21.300  -4.700   6.264  1.00  0.00    -0.305 OA
ENDBRANCH  11  16
ENDBRANCH   8  11
ENDBRANCH   7   8
BRANCH   7  18
HETATM   18  O2  UNL     1      20.112  -9.718   8.931  1.00  0.00    -0.349 OA
ATOM     19  H2  UNL     1      19.923 -10.048   9.802  1.00  0.00     0.213 HD
ENDBRANCH   7  18
ENDBRANCH   4   7
ENDBRANCH   1   4
BRANCH   1  20
HETATM   20  C10 UNL     1      18.390  -7.289  11.589  1.00  0.00     0.240 C
HETATM   21  C11 UNL     1      17.975  -8.717  11.743  1.00  0.00     0.111 C
HETATM   22  S1  UNL     1      18.704  -9.110  13.382  1.00  0.00    -0.140 SA
HETATM   23  C12 UNL     1      19.232  -7.394  13.785  1.00  0.00     0.306 C
HETATM   24  N4  UNL     1      18.480  -6.645  12.847  1.00  0.00    -0.059 N
ATOM     25  H42 UNL     1      18.850  -5.699  12.751  1.00  0.00     0.278 HD
ATOM     26  H41 UNL     1      17.554  -6.423  13.213  1.00  0.00     0.278 HD
ENDBRANCH   1  20
TORSDOF 9
ENDMDL