MODEL 3
REMARK VINA RESULT: -5.397692068      1.839      2.151
REMARK  9 active torsions:
REMARK  status: ('A' for Active; 'I' for Inactive)
REMARK    1  A    between atoms: C1_2  and  C2_4
REMARK    2  A    between atoms: C2_4  and  C3_5
REMARK    3  A    between atoms: C2_4  and  C5_14
REMARK    4  A    between atoms: C3_5  and  S1_6
REMARK    5  A    between atoms: S1_6  and  C4_7
REMARK    6  A    between atoms: C4_7  and  N2_8
REMARK    7  A    between atoms: C4_7  and  O2_12
REMARK    8  A    between atoms: C5_14  and  C6_15
REMARK    9  A    between atoms: C6_15  and  C7_17
ROOT
HETATM    1  C2  UNL     1      18.824  -7.138   7.477  1.00  0.00     0.091 C
ENDROOT
BRANCH   1   2
HETATM    2  C1  UNL     1      19.060  -7.674   6.116  1.00  0.00     0.236 C
HETATM    3  N1  UNL     1      18.238  -7.294   5.025  1.00  0.00    -0.062 NA
HETATM    4  O1  UNL     1      20.006  -8.481   5.921  1.00  0.00    -0.276 OA
ENDBRANCH   1   2
BRANCH   1   5
HETATM    5  C3  UNL     1      19.079  -5.642   7.396  1.00  0.00     0.092 C
BRANCH   5   6
HETATM    6  S1  UNL     1      20.626  -5.198   8.217  1.00  0.00    -0.109 SA
BRANCH   6   7
HETATM    7  C4  UNL     1      21.937  -5.230   6.942  1.00  0.00     0.380 C
BRANCH   7   8
HETATM    8  N2  UNL     1      22.282  -6.595   6.593  1.00  0.00    -0.044 N
ATOM      9  H23 UNL     1      21.534  -7.052   6.071  1.00  0.00     0.278 HD
ATOM     10  H22 UNL     1      23.010  -6.631   5.879  1.00  0.00     0.278 HD
ATOM     11  H21 UNL     1      22.542  -7.126   7.424  1.00  0.00     0.278 HD
ENDBRANCH   7   8
BRANCH   7  12
HETATM   12  O2  UNL     1      21.521  -4.550   5.794  1.00  0.00    -0.362 OA
ATOM     13  H2  UNL     1      20.871  -5.059   5.325  1.00  0.00     0.213 HD
ENDBRANCH   7  12
ENDBRANCH   6   7
ENDBRANCH   5   6
ENDBRANCH   1   5
BRANCH   1  14
HETATM   14  C5  UNL     1      17.401  -7.411   7.956  1.00  0.00     0.099 C
BRANCH  14  15
HETATM   15  C6  UNL     1      17.152  -6.878   9.288  1.00  0.00     0.167 C
HETATM   16  O3  UNL     1      16.274  -6.001   9.462  1.00  0.00    -0.292 OA
BRANCH  15  17
HETATM   17  C7  UNL     1      17.926  -7.358  10.459  1.00  0.00     0.050 A
HETATM   18  C8  UNL     1      18.016  -8.641  10.924  1.00  0.00     0.023 A
HETATM   19  C9  UNL     1      18.779  -8.856  12.006  1.00  0.00     0.009 A
HETATM   20  C10 UNL     1      19.405  -7.766  12.555  1.00  0.00     0.050 A
HETATM   21  S2  UNL     1      18.906  -6.488  11.545  1.00  0.00    -0.098 SA
ENDBRANCH  15  17
ENDBRANCH  14  15
ENDBRANCH   1  14
TORSDOF 9
ENDMDL