MODEL 2
REMARK VINA RESULT: -7.506934426      1.993      2.590
REMARK  16 active torsions:
REMARK  status: ('A' for Active; 'I' for Inactive)
REMARK       I    between atoms: C2_2  and  N1_4
REMARK    1  A    between atoms: N1_4  and  C3_6
REMARK    2  A    between atoms: C4_7  and  O2_8
REMARK    3  A    between atoms: C5_10  and  N2_11
REMARK       I    between atoms: N2_11  and  C6_13
REMARK    4  A    between atoms: C6_13  and  C7_15
REMARK    5  A    between atoms: N3_20  and  N4_21
REMARK       I    between atoms: N4_21  and  C12_22
REMARK    6  A    between atoms: C12_22  and  C13_24
REMARK       I    between atoms: C13_24  and  N5_26
REMARK    7  A    between atoms: N5_26  and  C14_28
REMARK    8  A    between atoms: C14_28  and  C15_29
REMARK    9  A    between atoms: C15_29  and  C16_30
REMARK   10  A    between atoms: C16_30  and  C17_31
REMARK   11  A    between atoms: C17_31  and  C18_32
REMARK   12  A    between atoms: C18_32  and  C19_33
REMARK   13  A    between atoms: C19_33  and  N6_34
REMARK   14  A    between atoms: N6_34  and  N7_36
REMARK   15  A    between atoms: N7_36  and  N8_37
REMARK   16  A    between atoms: C20_40  and  O6_41
ROOT
HETATM    1  C3  UNL     1       5.911 -10.544 -25.135  1.00  0.00     0.167 C
HETATM    2  C4  UNL     1       7.162 -11.076 -24.543  1.00  0.00     0.190 C
HETATM    3  C5  UNL     1       6.753 -11.897 -23.338  1.00  0.00     0.249 C
HETATM    4  N3  UNL     1       5.360 -12.052 -23.368  1.00  0.00    -0.202 N
HETATM    5  C20 UNL     1       4.793 -11.207 -24.400  1.00  0.00     0.275 C
ENDROOT
BRANCH   4   6
HETATM    6  N4  UNL     1       4.616 -12.354 -22.359  1.00  0.00    -0.275 NA
HETATM    7  C12 UNL     1       3.817 -12.676 -21.276  1.00  0.00     0.403 C
HETATM    8  O4  UNL     1       3.049 -11.926 -20.637  1.00  0.00    -0.244 OA
BRANCH   7   9
HETATM    9  C13 UNL     1       3.836 -14.074 -20.767  1.00  0.00     0.326 C
HETATM   10  O5  UNL     1       2.849 -14.788 -21.023  1.00  0.00    -0.261 OA
HETATM   11  N5  UNL     1       4.946 -14.534 -20.036  1.00  0.00    -0.352 N
ATOM     12  H5  UNL     1       5.707 -13.875 -19.870  1.00  0.00     0.162 HD
BRANCH  11  13
HETATM   13  C14 UNL     1       5.086 -15.854 -19.508  1.00  0.00     0.123 C
BRANCH  13  14
HETATM   14  C15 UNL     1       6.036 -16.648 -20.353  1.00  0.00     0.020 C
BRANCH  14  15
HETATM   15  C16 UNL     1       5.144 -17.530 -21.243  1.00  0.00     0.002 C
BRANCH  15  16
HETATM   16  C17 UNL     1       5.609 -17.256 -22.664  1.00  0.00     0.002 C
BRANCH  16  17
HETATM   17  C18 UNL     1       4.367 -16.828 -23.420  1.00  0.00     0.022 C
BRANCH  17  18
HETATM   18  C19 UNL     1       4.624 -15.532 -24.145  1.00  0.00     0.155 C
BRANCH  18  19
HETATM   19  N6  UNL     1       3.369 -14.820 -24.169  1.00  0.00    -0.253 N
ATOM     20  H6  UNL     1       3.352 -13.817 -23.983  1.00  0.00     0.196 HD
BRANCH  19  21
HETATM   21  N7  UNL     1       2.335 -15.406 -24.408  1.00  0.00    -0.249 NA
BRANCH  21  22
HETATM   22  N8  UNL     1       1.244 -15.988 -24.457  1.00  0.00    -0.261 N
ATOM     23  H82 UNL     1       0.890 -15.290 -23.802  1.00  0.00     0.193 HD
ATOM     24  H81 UNL     1       0.419 -16.569 -24.602  1.00  0.00     0.193 HD
ENDBRANCH  21  22
ENDBRANCH  19  21
ENDBRANCH  18  19
ENDBRANCH  17  18
ENDBRANCH  16  17
ENDBRANCH  15  16
ENDBRANCH  14  15
ENDBRANCH  13  14
ENDBRANCH  11  13
ENDBRANCH   7   9
ENDBRANCH   4   6
BRANCH   3  25
HETATM   25  N2  UNL     1       7.400 -13.207 -23.444  1.00  0.00    -0.335 N
HETATM   26  C6  UNL     1       7.848 -13.898 -22.284  1.00  0.00     0.223 C
HETATM   27  O3  UNL     1       7.682 -13.387 -21.145  1.00  0.00    -0.273 OA
ATOM     28  H2  UNL     1       7.532 -13.629 -24.363  1.00  0.00     0.164 HD
BRANCH  26  29
HETATM   29  C7  UNL     1       8.506 -15.217 -22.465  1.00  0.00     0.078 C
HETATM   30  C8  UNL     1       9.454 -15.544 -21.338  1.00  0.00     0.014 C
HETATM   31  C9  UNL     1      10.399 -16.547 -21.932  1.00  0.00     0.001 C
HETATM   32  C10 UNL     1      10.283 -16.424 -23.434  1.00  0.00     0.001 C
HETATM   33  C11 UNL     1       9.463 -15.176 -23.661  1.00  0.00     0.014 C
ENDBRANCH  26  29
ENDBRANCH   3  25
BRANCH   5  34
HETATM   34  O6  UNL     1       4.167 -12.102 -25.297  1.00  0.00    -0.372 OA
ATOM     35  H6  UNL     1       4.609 -12.022 -26.135  1.00  0.00     0.212 HD
ENDBRANCH   5  34
BRANCH   2  36
HETATM   36  O2  UNL     1       8.013 -10.016 -24.127  1.00  0.00    -0.389 OA
ATOM     37  H2  UNL     1       8.313 -10.155 -23.236  1.00  0.00     0.210 HD
ENDBRANCH   2  36
BRANCH   1  38
HETATM   38  N1  UNL     1       5.864 -10.866 -26.549  1.00  0.00    -0.350 N
HETATM   39  C2  UNL     1       6.316  -9.996 -27.567  1.00  0.00     0.214 C
HETATM   40  C1  UNL     1       6.249 -10.317 -28.988  1.00  0.00     0.117 C
HETATM   41  O1  UNL     1       6.802  -8.884 -27.233  1.00  0.00    -0.274 OA
ATOM     42  H1  UNL     1       5.484 -11.771 -26.823  1.00  0.00     0.163 HD
ENDBRANCH   1  38
TORSDOF 16
ENDMDL