MODEL 2
REMARK VINA RESULT: -7.404784455      3.343      7.235
REMARK  16 active torsions:
REMARK  status: ('A' for Active; 'I' for Inactive)
REMARK    1  A    between atoms: C2_2  and  C3_3
REMARK    2  A    between atoms: C3_3  and  N1_6
REMARK    3  A    between atoms: N1_6  and  C6_8
REMARK    4  A    between atoms: C7_11  and  N3_12
REMARK    5  A    between atoms: C9_20  and  N6_21
REMARK    6  A    between atoms: N6_21  and  C10_23
REMARK    7  A    between atoms: C10_23  and  C11_24
REMARK    8  A    between atoms: C11_24  and  N7_25
REMARK    9  A    between atoms: N7_25  and  S1_27
REMARK   10  A    between atoms: C13_31  and  N8_32
REMARK   11  A    between atoms: N8_32  and  C14_34
REMARK   12  A    between atoms: C14_34  and  C15_35
REMARK   13  A    between atoms: C15_35  and  O3_36
REMARK   14  A    between atoms: O3_36  and  C16_37
REMARK   15  A    between atoms: C16_37  and  C17_38
REMARK   16  A    between atoms: C17_38  and  O4_39
ROOT
HETATM    1  C6  UNL     1       3.659 -12.022 -28.281  1.00  0.00     0.148 A
HETATM    2  N2  UNL     1       3.799 -12.527 -29.509  1.00  0.00    -0.175 N
ATOM      3  H2  UNL     1       3.379 -12.012 -30.283  1.00  0.00     0.186 HD
HETATM    4  C7  UNL     1       4.456 -13.668 -29.802  1.00  0.00     0.679 A
HETATM    5  N4  UNL     1       5.013 -14.353 -28.787  1.00  0.00    -0.174 N
ATOM      6  H4  UNL     1       5.515 -15.220 -28.981  1.00  0.00     0.186 HD
HETATM    7  C8  UNL     1       4.918 -13.909 -27.513  1.00  0.00     0.153 A
HETATM    8  N5  UNL     1       5.492 -14.630 -26.536  1.00  0.00    -0.323 N
ATOM      9  H5  UNL     1       5.990 -15.493 -26.754  1.00  0.00     0.169 HD
HETATM   10  C9  UNL     1       5.400 -14.196 -25.264  1.00  0.00     0.151 A
HETATM   11  C13 UNL     1       4.723 -13.014 -24.933  1.00  0.00     0.150 A
HETATM   12  N9  UNL     1       4.165 -12.330 -25.967  1.00  0.00    -0.333 N
ATOM     13  H9  UNL     1       3.665 -11.464 -25.764  1.00  0.00     0.168 HD
HETATM   14  C19 UNL     1       4.241 -12.741 -27.236  1.00  0.00     0.123 A
ENDROOT
BRANCH  10  15
HETATM   15  N6  UNL     1       5.910 -14.826 -24.350  1.00  0.00    -0.351 N
ATOM     16  H6  UNL     1       6.775 -14.333 -24.130  1.00  0.00     0.166 HD
BRANCH  15  17
HETATM   17  C10 UNL     1       5.863 -15.886 -23.481  1.00  0.00     0.083 C
BRANCH  17  18
HETATM   18  C11 UNL     1       4.595 -16.179 -22.721  1.00  0.00     0.176 C
BRANCH  18  19
HETATM   19  N7  UNL     1       3.585 -16.763 -23.632  1.00  0.00    -0.315 N
ATOM     20  H7  UNL     1       3.683 -17.627 -24.165  1.00  0.00     0.172 HD
BRANCH  19  21
HETATM   21  S1  UNL     1       2.210 -15.717 -23.625  1.00  0.00     0.223 S
HETATM   22  C12 UNL     1       0.741 -16.522 -23.103  1.00  0.00     0.185 C
HETATM   23  O1  UNL     1       2.004 -15.246 -25.053  1.00  0.00    -0.206 OA
HETATM   24  O2  UNL     1       2.439 -14.522 -22.744  1.00  0.00    -0.206 OA
ENDBRANCH  19  21
ENDBRANCH  18  19
ENDBRANCH  17  18
ENDBRANCH  15  17
ENDBRANCH  10  15
BRANCH  11  25
HETATM   25  N8  UNL     1       4.598 -12.552 -23.787  1.00  0.00    -0.351 N
ATOM     26  H8  UNL     1       4.136 -13.222 -23.172  1.00  0.00     0.166 HD
BRANCH  25  27
HETATM   27  C14 UNL     1       4.911 -11.377 -23.101  1.00  0.00     0.088 C
BRANCH  27  28
HETATM   28  C15 UNL     1       6.325 -10.931 -23.431  1.00  0.00     0.212 C
BRANCH  28  29
HETATM   29  O3  UNL     1       6.432 -10.397 -24.685  1.00  0.00    -0.384 OA
BRANCH  29  30
HETATM   30  C16 UNL     1       7.692 -10.544 -25.258  1.00  0.00     0.194 C
BRANCH  30  31
HETATM   31  C17 UNL     1       7.692 -11.417 -26.465  1.00  0.00     0.193 C
BRANCH  31  32
HETATM   32  O4  UNL     1       8.966 -11.752 -26.827  1.00  0.00    -0.394 OA
HETATM   33  C18 UNL     1       9.919 -11.033 -26.162  1.00  0.00     0.201 C
ENDBRANCH  31  32
ENDBRANCH  30  31
ENDBRANCH  29  30
ENDBRANCH  28  29
ENDBRANCH  27  28
ENDBRANCH  25  27
ENDBRANCH  11  25
BRANCH   4  34
HETATM   34  N3  UNL     1       4.551 -14.096 -31.027  1.00  0.00    -0.234 N
ATOM     35  H32 UNL     1       4.249 -13.514 -31.809  1.00  0.00     0.174 HD
ATOM     36  H31 UNL     1       4.927 -15.021 -31.236  1.00  0.00     0.174 HD
ENDBRANCH   4  34
BRANCH   1  37
HETATM   37  N1  UNL     1       3.051 -10.959 -27.979  1.00  0.00    -0.365 N
ATOM     38  H1  UNL     1       2.176 -11.099 -27.475  1.00  0.00     0.162 HD
BRANCH  37  39
HETATM   39  C3  UNL     1       3.383  -9.602 -28.222  1.00  0.00     0.024 C
HETATM   40  C4  UNL     1       2.458  -8.867 -29.151  1.00  0.00     0.038 C
HETATM   41  C5  UNL     1       3.256  -8.889 -26.863  1.00  0.00     0.038 C
BRANCH  39  42
HETATM   42  C2  UNL     1       4.855  -9.398 -28.603  1.00  0.00     0.026 C
HETATM   43  C1  UNL     1       5.451  -8.508 -27.512  1.00  0.00     0.007 C
ENDBRANCH  39  42
ENDBRANCH  37  39
ENDBRANCH   1  37
TORSDOF 16
ENDMDL