MODEL 3
REMARK VINA RESULT: -7.796659419      2.369      4.967
REMARK  16 active torsions:
REMARK  status: ('A' for Active; 'I' for Inactive)
REMARK    1  A    between atoms: C2_2  and  C4_4
REMARK    2  A    between atoms: C2_2  and  C5_7
REMARK    3  A    between atoms: C4_4  and  O1_5
REMARK    4  A    between atoms: C5_7  and  N1_8
REMARK    5  A    between atoms: N1_8  and  C6_10
REMARK    6  A    between atoms: C7_13  and  N3_14
REMARK    7  A    between atoms: N3_14  and  C8_16
REMARK    8  A    between atoms: C8_16  and  C9_17
REMARK    9  A    between atoms: C9_17  and  O2_18
REMARK   10  A    between atoms: N5_23  and  C11_25
REMARK   11  A    between atoms: C11_25  and  C12_26
REMARK       I    between atoms: C12_26  and  N6_28
REMARK   12  A    between atoms: N6_28  and  C13_30
REMARK   13  A    between atoms: C13_30  and  C14_31
REMARK   14  A    between atoms: C14_31  and  C15_32
REMARK   15  A    between atoms: C15_32  and  C16_33
REMARK   16  A    between atoms: C16_33  and  N7_34
ROOT
HETATM    1  C6  UNL     1       3.954 -14.168 -25.391  1.00  0.00     0.707 A
HETATM    2  N2  UNL     1       2.797 -14.854 -25.395  1.00  0.00    -0.022 N
ATOM      3  H2  UNL     1       2.226 -14.876 -26.240  1.00  0.00     0.203 HD
HETATM    4  C7  UNL     1       2.388 -15.508 -24.299  1.00  0.00     0.707 A
HETATM    5  N4  UNL     1       3.172 -15.461 -23.185  1.00  0.00    -0.021 N
ATOM      6  H4  UNL     1       2.858 -15.961 -22.354  1.00  0.00     0.203 HD
HETATM    7  C10 UNL     1       4.330 -14.796 -23.123  1.00  0.00     0.711 A
HETATM    8  N5  UNL     1       5.087 -14.732 -22.097  1.00  0.00    -0.195 N
ATOM      9  H5  UNL     1       5.937 -14.182 -22.220  1.00  0.00     0.183 HD
HETATM   10  N8  UNL     1       4.685 -14.152 -24.278  1.00  0.00    -0.021 N
ATOM     11  H8  UNL     1       5.561 -13.630 -24.288  1.00  0.00     0.203 HD
ENDROOT
BRANCH   8  12
HETATM   12  C11 UNL     1       4.926 -15.304 -20.823  1.00  0.00     0.180 C
BRANCH  12  13
HETATM   13  C12 UNL     1       5.711 -16.538 -20.549  1.00  0.00     0.257 C
HETATM   14  O3  UNL     1       6.054 -16.774 -19.337  1.00  0.00    -0.267 OA
HETATM   15  N6  UNL     1       6.095 -17.455 -21.524  1.00  0.00    -0.356 N
ATOM     16  H6  UNL     1       5.838 -17.279 -22.496  1.00  0.00     0.162 HD
BRANCH  15  17
HETATM   17  C13 UNL     1       6.851 -18.657 -21.203  1.00  0.00     0.126 C
BRANCH  17  18
HETATM   18  C14 UNL     1       7.670 -19.176 -22.313  1.00  0.00     0.048 C
BRANCH  18  19
HETATM   19  C15 UNL     1       9.100 -18.821 -22.412  1.00  0.00    -0.008 C
BRANCH  19  20
HETATM   20  C16 UNL     1       9.598 -17.578 -22.998  1.00  0.00     0.090 C
BRANCH  20  21
HETATM   21  N7  UNL     1       9.414 -16.302 -22.447  1.00  0.00    -0.327 N
HETATM   22  C17 UNL     1      10.218 -15.876 -21.277  1.00  0.00     0.141 C
HETATM   23  C18 UNL     1       9.244 -15.404 -20.206  1.00  0.00     0.094 C
HETATM   24  S1  UNL     1       8.633 -13.772 -20.793  1.00  0.00    -0.158 SA
HETATM   25  C19 UNL     1       8.636 -13.911 -22.625  1.00  0.00     0.177 C
HETATM   26  C20 UNL     1       8.469 -15.374 -22.962  1.00  0.00     0.233 C
HETATM   27  O4  UNL     1       7.509 -15.757 -23.686  1.00  0.00    -0.272 OA
ENDBRANCH  20  21
ENDBRANCH  19  20
ENDBRANCH  18  19
ENDBRANCH  17  18
ENDBRANCH  15  17
ENDBRANCH  12  13
ENDBRANCH   8  12
BRANCH   4  28
HETATM   28  N3  UNL     1       1.296 -16.201 -24.240  1.00  0.00    -0.223 N
ATOM     29  H3  UNL     1       1.104 -16.876 -24.979  1.00  0.00     0.177 HD
BRANCH  28  30
HETATM   30  C8  UNL     1       0.348 -16.056 -23.177  1.00  0.00     0.164 C
BRANCH  30  31
HETATM   31  C9  UNL     1      -0.590 -17.248 -23.111  1.00  0.00     0.184 C
BRANCH  31  32
HETATM   32  O2  UNL     1       0.147 -18.411 -23.309  1.00  0.00    -0.399 OA
ATOM     33  H2  UNL     1      -0.032 -19.013 -22.596  1.00  0.00     0.209 HD
ENDBRANCH  31  32
ENDBRANCH  30  31
ENDBRANCH  28  30
ENDBRANCH   4  28
BRANCH   1  34
HETATM   34  N1  UNL     1       4.261 -13.571 -26.476  1.00  0.00    -0.224 N
ATOM     35  H1  UNL     1       4.050 -12.573 -26.503  1.00  0.00     0.177 HD
BRANCH  34  36
HETATM   36  C5  UNL     1       4.854 -14.101 -27.651  1.00  0.00     0.149 C
BRANCH  36  37
HETATM   37  C2  UNL     1       4.629 -13.289 -28.903  1.00  0.00    -0.010 C
HETATM   38  C1  UNL     1       3.587 -12.239 -28.588  1.00  0.00     0.018 C
HETATM   39  C3  UNL     1       4.178 -14.100 -30.068  1.00  0.00     0.018 C
BRANCH  37  40
HETATM   40  C4  UNL     1       5.892 -12.552 -29.314  1.00  0.00     0.174 C
BRANCH  40  41
HETATM   41  O1  UNL     1       6.253 -12.941 -30.616  1.00  0.00    -0.400 OA
ATOM     42  H1  UNL     1       6.517 -13.854 -30.608  1.00  0.00     0.209 HD
ENDBRANCH  40  41
ENDBRANCH  37  40
ENDBRANCH  36  37
ENDBRANCH  34  36
ENDBRANCH   1  34
TORSDOF 16
ENDMDL