MODEL 2
REMARK VINA RESULT: -8.372102978      1.703      1.835
REMARK  13 active torsions:
REMARK  status: ('A' for Active; 'I' for Inactive)
REMARK    1  A    between atoms: C1_2  and  C2_4
REMARK    2  A    between atoms: C2_4  and  N2_5
REMARK    3  A    between atoms: N3_8  and  C5_9
REMARK    4  A    between atoms: C5_9  and  C6_10
REMARK    5  A    between atoms: C5_9  and  C16_26
REMARK    6  A    between atoms: C6_10  and  N4_11
REMARK    7  A    between atoms: N4_11  and  C7_13
REMARK    8  A    between atoms: C7_13  and  C8_14
REMARK    9  A    between atoms: C8_14  and  C9_15
REMARK   10  A    between atoms: C9_15  and  C10_16
REMARK   11  A    between atoms: C16_26  and  O2_27
REMARK   12  A    between atoms: O2_27  and  C17_28
REMARK   13  A    between atoms: C21_35  and  O4_36
ROOT
HETATM    1  C5  UNL     1       4.328 -15.006 -24.908  1.00  0.00     0.120 C
ENDROOT
BRANCH   1   2
HETATM    2  N3  UNL     1       3.725 -15.707 -23.860  1.00  0.00    -0.402 N
HETATM    3  C4  UNL     1       4.320 -16.659 -23.063  1.00  0.00     0.137 C
HETATM    4  C3  UNL     1       3.704 -16.600 -21.645  1.00  0.00     0.141 C
HETATM    5  N2  UNL     1       2.900 -15.473 -21.434  1.00  0.00    -0.383 N
HETATM    6  C23 UNL     1       1.861 -15.197 -22.367  1.00  0.00     0.141 C
HETATM    7  C22 UNL     1       2.287 -15.585 -23.775  1.00  0.00     0.137 C
BRANCH   5   8
HETATM    8  C2  UNL     1       3.133 -14.573 -20.399  1.00  0.00     0.157 C
BRANCH   8   9
HETATM    9  C1  UNL     1       3.704 -13.264 -20.848  1.00  0.00     0.269 C
HETATM   10  N1  UNL     1       3.036 -12.068 -20.510  1.00  0.00    -0.057 NA
HETATM   11  O1  UNL     1       4.768 -13.236 -21.517  1.00  0.00    -0.270 OA
ENDBRANCH   8   9
ENDBRANCH   5   8
ENDBRANCH   1   2
BRANCH   1  12
HETATM   12  C6  UNL     1       5.665 -14.447 -24.507  1.00  0.00     0.141 C
BRANCH  12  13
HETATM   13  N4  UNL     1       6.709 -14.634 -25.486  1.00  0.00    -0.419 N
ATOM     14  H4  UNL     1       6.612 -15.274 -26.274  1.00  0.00     0.153 HD
BRANCH  13  15
HETATM   15  C7  UNL     1       7.888 -13.859 -25.270  1.00  0.00     0.114 C
BRANCH  15  16
HETATM   16  C8  UNL     1       8.996 -14.582 -24.591  1.00  0.00     0.025 C
BRANCH  16  17
HETATM   17  C9  UNL     1       9.123 -14.374 -23.121  1.00  0.00     0.058 C
BRANCH  17  18
HETATM   18  C10 UNL     1       8.484 -15.481 -22.371  1.00  0.00     0.010 A
HETATM   19  C11 UNL     1       7.987 -15.491 -21.102  1.00  0.00     0.040 A
HETATM   20  C12 UNL     1       7.485 -16.760 -20.843  1.00  0.00     0.009 A
HETATM   21  C13 UNL     1       6.869 -17.609 -19.953  1.00  0.00     0.101 A
HETATM   22  C15 UNL     1       7.712 -17.482 -22.014  1.00  0.00     0.059 A
HETATM   23  N5  UNL     1       6.711 -18.813 -20.531  1.00  0.00    -0.372 N
HETATM   24  C14 UNL     1       7.216 -18.748 -21.770  1.00  0.00     0.117 A
ATOM     25  H5  UNL     1       6.282 -19.632 -20.100  1.00  0.00     0.164 HD
HETATM   26  N6  UNL     1       8.312 -16.710 -22.924  1.00  0.00    -0.358 N
ATOM     27  H6  UNL     1       8.590 -16.991 -23.864  1.00  0.00     0.166 HD
ENDBRANCH  17  18
ENDBRANCH  16  17
ENDBRANCH  15  16
ENDBRANCH  13  15
ENDBRANCH  12  13
ENDBRANCH   1  12
BRANCH   1  28
HETATM   28  C16 UNL     1       3.494 -14.035 -25.644  1.00  0.00     0.197 C
BRANCH  28  29
HETATM   29  O2  UNL     1       3.895 -13.486 -26.772  1.00  0.00    -0.362 OA
BRANCH  29  30
HETATM   30  C17 UNL     1       4.119 -12.173 -26.977  1.00  0.00     0.252 C
HETATM   31  N7  UNL     1       5.540 -11.961 -27.362  1.00  0.00    -0.332 N
HETATM   32  C18 UNL     1       5.930 -10.790 -27.986  1.00  0.00     0.219 C
ATOM     33  H7  UNL     1       6.232 -12.685 -27.165  1.00  0.00     0.165 HD
HETATM   34  O3  UNL     1       7.184 -10.503 -28.150  1.00  0.00    -0.274 OA
HETATM   35  C19 UNL     1       4.949  -9.808 -28.492  1.00  0.00     0.105 C
HETATM   36  C20 UNL     1       3.636  -9.933 -27.753  1.00  0.00     0.045 C
HETATM   37  C21 UNL     1       3.246 -11.419 -27.923  1.00  0.00     0.167 C
BRANCH  37  38
HETATM   38  O4  UNL     1       3.448 -11.724 -29.253  1.00  0.00    -0.391 OA
ATOM     39  H4  UNL     1       2.893 -11.244 -29.856  1.00  0.00     0.210 HD
ENDBRANCH  37  38
ENDBRANCH  29  30
ENDBRANCH  28  29
ENDBRANCH   1  28
TORSDOF 13
ENDMDL