MODEL 3
REMARK VINA RESULT: -8.339632380      2.919      5.879
REMARK  16 active torsions:
REMARK  status: ('A' for Active; 'I' for Inactive)
REMARK    1  A    between atoms: C2_2  and  C3_3
REMARK    2  A    between atoms: C3_3  and  N1_4
REMARK    3  A    between atoms: C6_7  and  O1_8
REMARK    4  A    between atoms: O1_8  and  C7_9
REMARK    5  A    between atoms: C7_9  and  C8_10
REMARK    6  A    between atoms: C8_10  and  N2_11
REMARK       I    between atoms: N2_11  and  C9_13
REMARK    7  A    between atoms: C9_13  and  C10_15
REMARK    8  A    between atoms: C12_17  and  C13_18
REMARK    9  A    between atoms: C13_18  and  C14_19
REMARK   10  A    between atoms: C14_19  and  C15_20
REMARK   11  A    between atoms: C18_24  and  O4_25
REMARK   12  A    between atoms: C18_24  and  C19_27
REMARK   13  A    between atoms: C19_27  and  O5_28
REMARK   14  A    between atoms: C20_30  and  O6_31
REMARK   15  A    between atoms: C21_33  and  O7_34
REMARK   16  A    between atoms: C22_36  and  O8_37
ROOT
HETATM    1  C10 UNL     1       5.046 -15.085 -23.518  1.00  0.00     0.100 C
HETATM    2  C11 UNL     1       5.361 -14.428 -24.883  1.00  0.00     0.056 C
HETATM    3  C12 UNL     1       4.627 -13.135 -24.742  1.00  0.00     0.123 C
HETATM    4  O3  UNL     1       3.514 -13.457 -23.923  1.00  0.00    -0.376 OA
HETATM    5  C17 UNL     1       4.181 -14.088 -22.875  1.00  0.00     0.181 C
HETATM    6  C18 UNL     1       3.175 -14.623 -21.891  1.00  0.00     0.134 C
HETATM    7  C20 UNL     1       2.435 -15.828 -22.339  1.00  0.00     0.188 C
HETATM    8  C21 UNL     1       2.923 -16.451 -23.604  1.00  0.00     0.180 C
HETATM    9  C22 UNL     1       4.397 -16.408 -23.816  1.00  0.00     0.170 C
ENDROOT
BRANCH   1  10
HETATM   10  C9  UNL     1       6.370 -15.265 -22.843  1.00  0.00     0.231 C
HETATM   11  N2  UNL     1       6.675 -14.607 -21.645  1.00  0.00    -0.358 N
ATOM     12  H2  UNL     1       5.963 -13.997 -21.244  1.00  0.00     0.162 HD
HETATM   13  O2  UNL     1       7.245 -16.019 -23.342  1.00  0.00    -0.273 OA
BRANCH  11  14
HETATM   14  C8  UNL     1       7.918 -14.731 -20.945  1.00  0.00     0.149 C
BRANCH  14  15
HETATM   15  C7  UNL     1       8.968 -13.725 -21.358  1.00  0.00     0.195 C
BRANCH  15  16
HETATM   16  O1  UNL     1       8.272 -12.533 -21.715  1.00  0.00    -0.349 OA
BRANCH  16  17
HETATM   17  C6  UNL     1       8.111 -12.062 -22.984  1.00  0.00     0.071 A
HETATM   18  C5  UNL     1       7.331 -10.956 -23.213  1.00  0.00     0.054 A
HETATM   19  C4  UNL     1       7.156 -10.460 -24.508  1.00  0.00     0.093 A
HETATM   20  N1  UNL     1       7.751 -11.062 -25.544  1.00  0.00    -0.363 N
HETATM   21  C24 UNL     1       8.522 -12.148 -25.361  1.00  0.00     0.093 A
HETATM   22  C23 UNL     1       8.709 -12.661 -24.066  1.00  0.00     0.054 A
BRANCH  20  23
HETATM   23  C3  UNL     1       7.575 -10.543 -26.909  1.00  0.00     0.154 C
BRANCH  23  24
HETATM   24  C2  UNL     1       6.684  -9.347 -26.928  1.00  0.00    -0.017 C
HETATM   25  C1  UNL     1       5.636  -9.239 -27.714  1.00  0.00     0.008 C
ENDBRANCH  23  24
ENDBRANCH  20  23
ENDBRANCH  16  17
ENDBRANCH  15  16
ENDBRANCH  14  15
ENDBRANCH  11  14
ENDBRANCH   1  10
BRANCH   9  26
HETATM   26  O8  UNL     1       4.965 -17.410 -22.996  1.00  0.00    -0.392 OA
ATOM     27  H8  UNL     1       4.275 -17.889 -22.555  1.00  0.00     0.210 HD
ENDBRANCH   9  26
BRANCH   3  28
HETATM   28  C13 UNL     1       4.278 -12.339 -25.907  1.00  0.00     0.032 C
BRANCH  28  29
HETATM   29  C14 UNL     1       3.486 -12.839 -27.028  1.00  0.00     0.002 C
BRANCH  29  30
HETATM   30  C15 UNL     1       3.840 -12.525 -28.427  1.00  0.00    -0.004 C
HETATM   31  C16 UNL     1       5.275 -12.859 -28.773  1.00  0.00     0.005 C
ENDBRANCH  29  30
ENDBRANCH  28  29
ENDBRANCH   3  28
BRANCH   6  32
HETATM   32  O4  UNL     1       2.284 -13.542 -21.680  1.00  0.00    -0.382 OA
ATOM     33  H4  UNL     1       2.799 -12.770 -21.884  1.00  0.00     0.210 HD
ENDBRANCH   6  32
BRANCH   6  34
HETATM   34  C19 UNL     1       3.782 -14.893 -20.522  1.00  0.00     0.207 C
BRANCH  34  35
HETATM   35  O5  UNL     1       4.283 -13.682 -20.024  1.00  0.00    -0.398 OA
ATOM     36  H5  UNL     1       5.229 -13.706 -20.092  1.00  0.00     0.209 HD
ENDBRANCH  34  35
ENDBRANCH   6  34
BRANCH   8  37
HETATM   37  O7  UNL     1       2.204 -15.911 -24.675  1.00  0.00    -0.390 OA
ATOM     38  H7  UNL     1       2.208 -16.537 -25.389  1.00  0.00     0.210 HD
ENDBRANCH   8  37
BRANCH   7  39
HETATM   39  O6  UNL     1       2.366 -16.818 -21.348  1.00  0.00    -0.390 OA
ATOM     40  H6  UNL     1       2.969 -17.535 -21.505  1.00  0.00     0.210 HD
ENDBRANCH   7  39
TORSDOF 16
ENDMDL