MODEL 5
REMARK VINA RESULT: -7.752977068      2.140      3.050
REMARK  16 active torsions:
REMARK  status: ('A' for Active; 'I' for Inactive)
REMARK    1  A    between atoms: C7_7  and  N1_8
REMARK       I    between atoms: N1_8  and  C8_10
REMARK    2  A    between atoms: C8_10  and  C9_12
REMARK    3  A    between atoms: C9_12  and  C10_13
REMARK    4  A    between atoms: C10_13  and  S1_14
REMARK    5  A    between atoms: S1_14  and  N2_17
REMARK    6  A    between atoms: N2_17  and  C11_19
REMARK    7  A    between atoms: C11_19  and  C12_20
REMARK    8  A    between atoms: N3_23  and  C15_24
REMARK    9  A    between atoms: C15_24  and  C16_25
REMARK   10  A    between atoms: C16_25  and  O4_26
REMARK   11  A    between atoms: C16_25  and  C17_28
REMARK   12  A    between atoms: C17_28  and  O5_29
REMARK   13  A    between atoms: C17_28  and  C18_31
REMARK   14  A    between atoms: C18_31  and  O6_32
REMARK   15  A    between atoms: C18_31  and  C19_34
REMARK   16  A    between atoms: C19_34  and  O7_35
ROOT
HETATM    1  C12 UNL     1       5.529 -11.074 -23.187  1.00  0.00     0.013 C
HETATM    2  C13 UNL     1       6.982 -11.076 -23.607  1.00  0.00     0.051 C
HETATM    3  C14 UNL     1       7.078 -11.901 -24.867  1.00  0.00     0.063 C
HETATM    4  N3  UNL     1       6.207 -11.525 -25.891  1.00  0.00    -0.371 N
HETATM    5  C20 UNL     1       4.963 -10.951 -25.632  1.00  0.00     0.063 C
HETATM    6  C21 UNL     1       4.751 -10.390 -24.272  1.00  0.00     0.051 C
ENDROOT
BRANCH   1   7
HETATM    7  C11 UNL     1       5.084 -12.518 -23.083  1.00  0.00     0.137 C
BRANCH   7   8
HETATM    8  N2  UNL     1       3.974 -12.581 -22.126  1.00  0.00    -0.319 N
ATOM      9  H2  UNL     1       3.693 -11.851 -21.471  1.00  0.00     0.172 HD
BRANCH   8  10
HETATM   10  S1  UNL     1       3.234 -14.126 -22.323  1.00  0.00     0.227 S
HETATM   11  O2  UNL     1       3.116 -14.436 -23.803  1.00  0.00    -0.206 OA
HETATM   12  O3  UNL     1       1.834 -14.139 -21.786  1.00  0.00    -0.206 OA
BRANCH  10  13
HETATM   13  C10 UNL     1       4.218 -15.336 -21.507  1.00  0.00     0.172 C
BRANCH  13  14
HETATM   14  C9  UNL     1       4.641 -16.447 -22.426  1.00  0.00     0.119 C
BRANCH  14  15
HETATM   15  C8  UNL     1       6.106 -16.542 -22.489  1.00  0.00     0.218 C
HETATM   16  N1  UNL     1       6.953 -15.742 -21.680  1.00  0.00    -0.356 N
ATOM     17  H1  UNL     1       6.531 -15.078 -21.031  1.00  0.00     0.162 HD
HETATM   18  O1  UNL     1       6.637 -17.354 -23.282  1.00  0.00    -0.274 OA
BRANCH  16  19
HETATM   19  C7  UNL     1       8.402 -15.837 -21.744  1.00  0.00     0.088 C
HETATM   20  C2  UNL     1       8.935 -14.518 -22.172  1.00  0.00     0.004 C
HETATM   21  C1  UNL     1      10.395 -14.537 -22.555  1.00  0.00     0.012 C
HETATM   22  C3  UNL     1       8.591 -13.461 -21.172  1.00  0.00     0.006 C
HETATM   23  C4  UNL     1       8.693 -13.865 -19.746  1.00  0.00     0.001 C
HETATM   24  C5  UNL     1       9.367 -15.187 -19.517  1.00  0.00     0.002 C
HETATM   25  C6  UNL     1       8.867 -16.282 -20.385  1.00  0.00     0.025 C
ENDBRANCH  16  19
ENDBRANCH  14  15
ENDBRANCH  13  14
ENDBRANCH  10  13
ENDBRANCH   8  10
ENDBRANCH   7   8
ENDBRANCH   1   7
BRANCH   4  26
HETATM   26  C15 UNL     1       6.484 -11.983 -27.221  1.00  0.00     0.165 C
BRANCH  26  27
HETATM   27  C16 UNL     1       5.526 -11.285 -28.201  1.00  0.00     0.195 C
BRANCH  27  28
HETATM   28  O4  UNL     1       6.350 -10.711 -29.226  1.00  0.00    -0.387 OA
ATOM     29  H4  UNL     1       6.318  -9.770 -29.096  1.00  0.00     0.210 HD
ENDBRANCH  27  28
BRANCH  27  30
HETATM   30  C17 UNL     1       4.644 -12.294 -28.872  1.00  0.00     0.104 C
BRANCH  30  31
HETATM   31  O5  UNL     1       3.514 -11.684 -29.419  1.00  0.00    -0.360 OA
ATOM     32  H5  UNL     1       3.699 -10.786 -29.668  1.00  0.00     0.217 HD
ENDBRANCH  30  31
BRANCH  30  33
HETATM   33  C18 UNL     1       5.245 -13.374 -29.654  1.00  0.00     0.098 C
BRANCH  33  34
HETATM   34  O6  UNL     1       6.171 -12.898 -30.574  1.00  0.00    -0.360 OA
ATOM     35  H6  UNL     1       5.939 -13.131 -31.466  1.00  0.00     0.217 HD
ENDBRANCH  33  34
BRANCH  33  36
HETATM   36  C19 UNL     1       4.416 -14.493 -30.160  1.00  0.00     0.231 C
BRANCH  36  37
HETATM   37  O7  UNL     1       3.412 -14.130 -31.011  1.00  0.00    -0.394 OA
ATOM     38  H7  UNL     1       3.447 -14.533 -31.870  1.00  0.00     0.209 HD
ENDBRANCH  36  37
ENDBRANCH  33  36
ENDBRANCH  30  33
ENDBRANCH  27  30
ENDBRANCH  26  27
ENDBRANCH   4  26
TORSDOF 16
ENDMDL