MODEL 5
REMARK VINA RESULT: -8.113768611      1.710      2.069
REMARK  15 active torsions:
REMARK  status: ('A' for Active; 'I' for Inactive)
REMARK    1  A    between atoms: C2_2  and  N1_4
REMARK    2  A    between atoms: N1_4  and  C4_6
REMARK    3  A    between atoms: C9_14  and  O1_15
REMARK    4  A    between atoms: O1_15  and  C10_16
REMARK    5  A    between atoms: C10_16  and  C11_17
REMARK    6  A    between atoms: C12_20  and  C13_21
REMARK    7  A    between atoms: C13_21  and  O4_22
REMARK    8  A    between atoms: O4_22  and  C14_23
REMARK    9  A    between atoms: C14_23  and  C15_24
REMARK   10  A    between atoms: C15_24  and  N3_25
REMARK       I    between atoms: N3_25  and  C16_27
REMARK   11  A    between atoms: C16_27  and  C17_29
REMARK   12  A    between atoms: C17_29  and  N4_30
REMARK   13  A    between atoms: C18_34  and  C19_35
REMARK   14  A    between atoms: C19_35  and  O6_36
REMARK   15  A    between atoms: C22_40  and  O7_41
ROOT
HETATM    1  C4  UNL     1       4.946 -15.904 -22.114  1.00  0.00     0.141 C
HETATM    2  C5  UNL     1       4.899 -16.338 -23.538  1.00  0.00     0.211 C
HETATM    3  C6  UNL     1       3.659 -15.791 -24.197  1.00  0.00     0.037 C
HETATM    4  C7  UNL     1       4.214 -14.765 -25.126  1.00  0.00     0.038 C
HETATM    5  C8  UNL     1       5.666 -14.533 -24.697  1.00  0.00     0.221 C
HETATM    6  N2  UNL     1       6.036 -15.840 -24.225  1.00  0.00    -0.062 N
ATOM      7  H21 UNL     1       6.372 -16.460 -24.962  1.00  0.00     0.278 HD
ATOM      8  H22 UNL     1       6.887 -15.846 -23.663  1.00  0.00     0.278 HD
HETATM    9  C9  UNL     1       5.773 -13.473 -23.630  1.00  0.00     0.102 C
HETATM   10  C12 UNL     1       6.721 -12.356 -24.050  1.00  0.00     0.053 C
HETATM   11  C18 UNL     1       8.099 -12.844 -23.900  1.00  0.00     0.019 C
HETATM   12  C20 UNL     1       7.987 -13.914 -22.799  1.00  0.00     0.017 C
HETATM   13  C21 UNL     1       6.500 -13.905 -22.406  1.00  0.00     0.054 C
HETATM   14  C22 UNL     1       6.090 -15.095 -21.666  1.00  0.00     0.152 C
ENDROOT
BRANCH  10  15
HETATM   15  C13 UNL     1       6.326 -11.659 -25.279  1.00  0.00     0.175 C
BRANCH  15  16
HETATM   16  O4  UNL     1       6.851 -10.388 -25.338  1.00  0.00    -0.389 OA
BRANCH  16  17
HETATM   17  C14 UNL     1       7.270  -9.950 -26.559  1.00  0.00     0.187 C
BRANCH  17  18
HETATM   18  C15 UNL     1       6.322  -8.901 -27.102  1.00  0.00     0.148 C
BRANCH  18  19
HETATM   19  N3  UNL     1       5.356  -9.411 -28.037  1.00  0.00    -0.358 N
HETATM   20  C16 UNL     1       4.029  -9.742 -27.683  1.00  0.00     0.243 C
HETATM   21  O5  UNL     1       3.607  -9.603 -26.512  1.00  0.00    -0.272 OA
ATOM     22  H3  UNL     1       5.644  -9.542 -29.007  1.00  0.00     0.162 HD
BRANCH  20  23
HETATM   23  C17 UNL     1       3.049 -10.276 -28.671  1.00  0.00     0.331 C
BRANCH  23  24
HETATM   24  N4  UNL     1       3.403 -11.596 -29.135  1.00  0.00    -0.071 N
ATOM     25  H43 UNL     1       4.161 -11.555 -29.816  1.00  0.00     0.274 HD
ATOM     26  H42 UNL     1       3.870 -12.131 -28.403  1.00  0.00     0.274 HD
ATOM     27  H41 UNL     1       2.600 -12.104 -29.507  1.00  0.00     0.274 HD
ENDBRANCH  23  24
ENDBRANCH  20  23
ENDBRANCH  18  19
ENDBRANCH  17  18
ENDBRANCH  16  17
ENDBRANCH  15  16
ENDBRANCH  10  15
BRANCH   9  28
HETATM   28  O1  UNL     1       4.530 -13.097 -23.299  1.00  0.00    -0.367 OA
BRANCH  28  29
HETATM   29  C10 UNL     1       4.232 -12.127 -22.467  1.00  0.00     0.282 C
BRANCH  29  30
HETATM   30  C11 UNL     1       3.209 -12.565 -21.484  1.00  0.00     0.197 C
HETATM   31  O2  UNL     1       2.390 -13.454 -21.804  1.00  0.00    -0.646 OA
HETATM   32  O3  UNL     1       3.111 -12.032 -20.211  1.00  0.00    -0.646 OA
ENDBRANCH  29  30
ENDBRANCH  28  29
ENDBRANCH   9  28
BRANCH  11  33
HETATM   33  C19 UNL     1       8.839 -13.458 -24.999  1.00  0.00     0.169 C
BRANCH  33  34
HETATM   34  O6  UNL     1       9.044 -14.810 -25.002  1.00  0.00    -0.400 OA
ATOM     35  H6  UNL     1       9.659 -15.190 -25.619  1.00  0.00     0.209 HD
ENDBRANCH  33  34
ENDBRANCH  11  33
BRANCH  14  36
HETATM   36  O7  UNL     1       5.742 -14.690 -20.341  1.00  0.00    -0.388 OA
HETATM   37  C23 UNL     1       6.798 -14.662 -19.480  1.00  0.00     0.202 C
ENDBRANCH  14  36
BRANCH   1  38
HETATM   38  N1  UNL     1       4.844 -17.103 -21.307  1.00  0.00    -0.385 N
ATOM     39  H1  UNL     1       3.917 -17.369 -20.976  1.00  0.00     0.160 HD
BRANCH  38  40
HETATM   40  C2  UNL     1       5.940 -17.942 -20.939  1.00  0.00    -0.008 C
HETATM   41  C1  UNL     1       6.102 -18.214 -19.659  1.00  0.00     0.037 C
HETATM   42  C3  UNL     1       6.908 -18.529 -21.887  1.00  0.00     0.067 C
ENDBRANCH  38  40
ENDBRANCH   1  38
TORSDOF 15
ENDMDL