MODEL 1
REMARK VINA RESULT: -8.671138641      0.000      0.000
REMARK  16 active torsions:
REMARK  status: ('A' for Active; 'I' for Inactive)
REMARK    1  A    between atoms: C1_2  and  C2_3
REMARK       I    between atoms: C1_2  and  N2_10
REMARK    2  A    between atoms: C3_4  and  C4_5
REMARK    3  A    between atoms: N2_10  and  C6_12
REMARK    4  A    between atoms: C6_12  and  C7_13
REMARK    5  A    between atoms: C7_13  and  C8_14
REMARK    6  A    between atoms: C8_14  and  C9_15
REMARK    7  A    between atoms: C9_15  and  N3_16
REMARK    8  A    between atoms: N3_16  and  C10_18
REMARK    9  A    between atoms: C11_21  and  N5_22
REMARK   10  A    between atoms: N5_22  and  C12_24
REMARK   11  A    between atoms: C12_24  and  C13_25
REMARK   12  A    between atoms: C13_25  and  C14_26
REMARK   13  A    between atoms: C14_26  and  N6_27
REMARK   14  A    between atoms: C16_29  and  O3_30
REMARK   15  A    between atoms: C18_36  and  N8_37
REMARK   16  A    between atoms: N8_37  and  C19_39
ROOT
HETATM    1  C10 UNL     1       2.099 -14.960 -21.975  1.00  0.00     0.707 A
HETATM    2  N4  UNL     1       2.964 -14.689 -22.955  1.00  0.00    -0.022 N
ATOM      3  H4  UNL     1       3.763 -14.086 -22.762  1.00  0.00     0.203 HD
HETATM    4  C11 UNL     1       2.800 -15.201 -24.212  1.00  0.00     0.707 A
HETATM    5  N7  UNL     1       1.775 -15.987 -24.503  1.00  0.00    -0.022 N
ATOM      6  H7  UNL     1       1.662 -16.364 -25.444  1.00  0.00     0.203 HD
HETATM    7  C18 UNL     1       0.863 -16.289 -23.513  1.00  0.00     0.707 A
HETATM    8  N9  UNL     1       1.049 -15.775 -22.296  1.00  0.00    -0.022 N
ATOM      9  H9  UNL     1       0.372 -16.001 -21.568  1.00  0.00     0.203 HD
ENDROOT
BRANCH   1  10
HETATM   10  N3  UNL     1       2.256 -14.470 -20.804  1.00  0.00    -0.225 N
ATOM     11  H3  UNL     1       1.487 -14.521 -20.136  1.00  0.00     0.177 HD
BRANCH  10  12
HETATM   12  C9  UNL     1       3.483 -13.852 -20.409  1.00  0.00     0.138 C
BRANCH  12  13
HETATM   13  C8  UNL     1       3.860 -14.188 -18.975  1.00  0.00     0.022 C
BRANCH  13  14
HETATM   14  C7  UNL     1       5.299 -14.705 -19.051  1.00  0.00     0.021 C
BRANCH  14  15
HETATM   15  C6  UNL     1       5.255 -16.199 -19.199  1.00  0.00     0.123 C
BRANCH  15  16
HETATM   16  N2  UNL     1       5.858 -16.585 -20.428  1.00  0.00    -0.358 N
HETATM   17  C1  UNL     1       5.050 -17.132 -21.490  1.00  0.00     0.241 C
HETATM   18  O1  UNL     1       3.838 -17.226 -21.233  1.00  0.00    -0.269 OA
ATOM     19  H2  UNL     1       6.864 -16.474 -20.559  1.00  0.00     0.162 HD
BRANCH  17  20
HETATM   20  C2  UNL     1       5.667 -17.524 -22.744  1.00  0.00     0.077 C
HETATM   21  C3  UNL     1       6.714 -18.236 -22.912  1.00  0.00     0.046 C
BRANCH  21  22
HETATM   22  C4  UNL     1       7.555 -18.832 -21.910  1.00  0.00     0.116 A
HETATM   23  C5  UNL     1       8.527 -19.851 -21.920  1.00  0.00     0.153 A
HETATM   24  N1  UNL     1       8.687 -19.648 -20.612  1.00  0.00    -0.269 N
HETATM   25  O2  UNL     1       7.800 -18.726 -20.638  1.00  0.00    -0.237 OA
ATOM     26  H1  UNL     1       9.275 -20.059 -19.887  1.00  0.00     0.194 HD
ENDBRANCH  21  22
ENDBRANCH  17  20
ENDBRANCH  15  16
ENDBRANCH  14  15
ENDBRANCH  13  14
ENDBRANCH  12  13
ENDBRANCH  10  12
ENDBRANCH   1  10
BRANCH   4  27
HETATM   27  N5  UNL     1       3.689 -14.895 -25.124  1.00  0.00    -0.225 N
ATOM     28  H5  UNL     1       3.494 -15.087 -26.106  1.00  0.00     0.177 HD
BRANCH  27  29
HETATM   29  C12 UNL     1       4.929 -14.294 -24.754  1.00  0.00     0.139 C
BRANCH  29  30
HETATM   30  C13 UNL     1       6.025 -14.433 -25.760  1.00  0.00     0.037 C
BRANCH  30  31
HETATM   31  C14 UNL     1       6.250 -13.084 -26.439  1.00  0.00     0.122 C
BRANCH  31  32
HETATM   32  N6  UNL     1       6.049 -13.230 -27.892  1.00  0.00    -0.195 NA
HETATM   33  C15 UNL     1       5.230 -12.157 -28.343  1.00  0.00     0.154 C
HETATM   34  C16 UNL     1       3.887 -12.835 -28.633  1.00  0.00     0.159 C
HETATM   35  C17 UNL     1       4.402 -14.233 -28.980  1.00  0.00     0.227 C
HETATM   36  O4  UNL     1       5.399 -14.393 -28.043  1.00  0.00    -0.301 OA
BRANCH  34  37
HETATM   37  O3  UNL     1       3.167 -12.823 -27.442  1.00  0.00    -0.392 OA
ATOM     38  H3  UNL     1       2.841 -11.939 -27.328  1.00  0.00     0.210 HD
ENDBRANCH  34  37
ENDBRANCH  31  32
ENDBRANCH  30  31
ENDBRANCH  29  30
ENDBRANCH  27  29
ENDBRANCH   4  27
BRANCH   7  39
HETATM   39  N8  UNL     1      -0.064 -17.020 -23.839  1.00  0.00    -0.220 N
ATOM     40  H8  UNL     1       0.245 -17.699 -24.533  1.00  0.00     0.178 HD
BRANCH  39  41
HETATM   41  C19 UNL     1      -1.402 -17.201 -23.549  1.00  0.00     0.099 A
HETATM   42  C20 UNL     1      -1.966 -17.886 -22.346  1.00  0.00     0.028 A
HETATM   43  C21 UNL     1      -2.079 -18.560 -23.637  1.00  0.00     0.028 A
ENDBRANCH  39  41
ENDBRANCH   7  39
TORSDOF 16
ENDMDL