MODEL 2
REMARK VINA RESULT: -8.778543906      1.675      2.019
REMARK  13 active torsions:
REMARK  status: ('A' for Active; 'I' for Inactive)
REMARK    1  A    between atoms: C2_2  and  C4_4
REMARK    2  A    between atoms: C4_4  and  O1_5
REMARK    3  A    between atoms: C4_4  and  C5_7
REMARK    4  A    between atoms: C5_7  and  C6_8
REMARK    5  A    between atoms: C5_7  and  N4_16
REMARK    6  A    between atoms: C6_8  and  N1_9
REMARK    7  A    between atoms: N1_9  and  N2_11
REMARK    8  A    between atoms: C15_31  and  N7_32
REMARK    9  A    between atoms: N7_32  and  C16_35
REMARK   10  A    between atoms: C16_35  and  C17_36
REMARK   11  A    between atoms: C17_36  and  C18_37
REMARK   12  A    between atoms: C18_37  and  O2_38
REMARK   13  A    between atoms: O2_38  and  N8_39
ROOT
HETATM    1  N4  UNL     1       4.985 -11.943 -26.761  1.00  0.00    -0.343 N
HETATM    2  C7  UNL     1       6.079 -11.249 -26.133  1.00  0.00     0.126 C
HETATM    3  C8  UNL     1       6.558 -11.739 -24.818  1.00  0.00     0.022 C
HETATM    4  C9  UNL     1       7.927 -11.062 -24.596  1.00  0.00     0.029 C
HETATM    5  C10 UNL     1       8.681 -11.740 -23.483  1.00  0.00     0.232 C
HETATM    6  N5  UNL     1       8.744 -13.166 -23.644  1.00  0.00    -0.074 N
ATOM      7  H51 UNL     1       9.670 -13.491 -23.926  1.00  0.00     0.277 HD
ATOM      8  H52 UNL     1       8.230 -13.494 -24.461  1.00  0.00     0.277 HD
HETATM    9  C11 UNL     1       8.286 -13.778 -22.410  1.00  0.00     0.259 C
HETATM   10  C12 UNL     1       8.331 -15.282 -22.474  1.00  0.00     0.259 C
HETATM   11  N6  UNL     1       7.130 -15.905 -22.000  1.00  0.00    -0.073 N
ATOM     12  H61 UNL     1       6.561 -15.245 -21.470  1.00  0.00     0.277 HD
ATOM     13  H62 UNL     1       7.335 -16.578 -21.261  1.00  0.00     0.277 HD
HETATM   14  C13 UNL     1       6.358 -16.519 -23.060  1.00  0.00     0.234 C
HETATM   15  C14 UNL     1       5.014 -15.795 -23.104  1.00  0.00     0.060 C
HETATM   16  C15 UNL     1       4.304 -16.014 -24.401  1.00  0.00     0.188 C
HETATM   17  C19 UNL     1       4.605 -14.960 -25.411  1.00  0.00     0.042 C
HETATM   18  C20 UNL     1       4.053 -13.615 -24.996  1.00  0.00     0.105 C
HETATM   19  C21 UNL     1       3.970 -12.699 -26.172  1.00  0.00     0.220 C
HETATM   20  O5  UNL     1       2.809 -12.599 -26.709  1.00  0.00    -0.273 OA
ENDROOT
BRANCH   1  21
HETATM   21  C5  UNL     1       4.976 -11.797 -28.230  1.00  0.00     0.139 C
BRANCH  21  22
HETATM   22  C4  UNL     1       5.193 -10.468 -28.785  1.00  0.00     0.170 C
BRANCH  22  23
HETATM   23  C2  UNL     1       4.496  -9.318 -28.156  1.00  0.00    -0.063 C
HETATM   24  C1  UNL     1       5.194  -8.240 -27.769  1.00  0.00     0.016 C
HETATM   25  C3  UNL     1       3.032  -9.257 -27.908  1.00  0.00     0.045 C
ENDBRANCH  22  23
BRANCH  22  26
HETATM   26  O1  UNL     1       6.539 -10.156 -29.051  1.00  0.00    -0.389 OA
ATOM     27  H1  UNL     1       7.089 -10.358 -28.304  1.00  0.00     0.210 HD
ENDBRANCH  22  26
ENDBRANCH  21  22
BRANCH  21  28
HETATM   28  C6  UNL     1       6.014 -12.775 -28.793  1.00  0.00     0.169 C
BRANCH  28  29
HETATM   29  N1  UNL     1       5.899 -12.787 -30.235  1.00  0.00    -0.321 N
ATOM     30  H1  UNL     1       6.350 -12.064 -30.796  1.00  0.00     0.181 HD
BRANCH  29  31
HETATM   31  N2  UNL     1       5.157 -13.810 -30.855  1.00  0.00    -0.254 N
HETATM   32  N3  UNL     1       3.914 -13.734 -31.020  1.00  0.00    -0.331 N
ATOM     33  H32 UNL     1       3.441 -12.893 -30.686  1.00  0.00     0.178 HD
ATOM     34  H31 UNL     1       3.376 -14.474 -31.468  1.00  0.00     0.178 HD
ATOM     35  H2  UNL     1       5.645 -14.643 -31.183  1.00  0.00     0.207 HD
ENDBRANCH  29  31
ENDBRANCH  28  29
ENDBRANCH  21  28
ENDBRANCH   1  21
BRANCH  16  36
HETATM   36  N7  UNL     1       2.881 -16.168 -24.251  1.00  0.00    -0.071 N
ATOM     37  H72 UNL     1       2.390 -15.356 -24.627  1.00  0.00     0.277 HD
ATOM     38  H71 UNL     1       2.529 -16.888 -24.881  1.00  0.00     0.277 HD
BRANCH  36  39
HETATM   39  C16 UNL     1       2.462 -16.434 -22.881  1.00  0.00     0.235 C
BRANCH  39  40
HETATM   40  C17 UNL     1       1.401 -15.493 -22.391  1.00  0.00     0.056 C
BRANCH  40  41
HETATM   41  C18 UNL     1       2.053 -14.581 -21.348  1.00  0.00     0.209 C
BRANCH  41  42
HETATM   42  O2  UNL     1       2.439 -13.359 -21.958  1.00  0.00    -0.221 OA
BRANCH  42  43
HETATM   43  N8  UNL     1       3.224 -12.442 -21.321  1.00  0.00     0.004 N
HETATM   44  O3  UNL     1       3.113 -12.208 -20.101  1.00  0.00    -0.511 OA
HETATM   45  O4  UNL     1       4.171 -11.747 -22.031  1.00  0.00    -0.511 OA
ENDBRANCH  42  43
ENDBRANCH  41  42
ENDBRANCH  40  41
ENDBRANCH  39  40
ENDBRANCH  36  39
ENDBRANCH  16  36
TORSDOF 13
ENDMDL