MODEL 5
REMARK VINA RESULT: -10.562700551      3.235      5.709
REMARK  13 active torsions:
REMARK  status: ('A' for Active; 'I' for Inactive)
REMARK    1  A    between atoms: C2_2  and  O1_3
REMARK    2  A    between atoms: C2_2  and  C8_12
REMARK    3  A    between atoms: O1_3  and  C3_4
REMARK       I    between atoms: C3_4  and  N1_6
REMARK    4  A    between atoms: N1_6  and  C4_8
REMARK    5  A    between atoms: C8_12  and  C9_13
REMARK    6  A    between atoms: C8_12  and  C14_20
REMARK    7  A    between atoms: C9_13  and  C10_14
REMARK    8  A    between atoms: C10_14  and  C12_16
REMARK       I    between atoms: C14_20  and  N2_22
REMARK    9  A    between atoms: C18_26  and  C19_27
REMARK       I    between atoms: C19_27  and  N3_29
REMARK   10  A    between atoms: N3_29  and  C20_31
REMARK   11  A    between atoms: C20_31  and  C21_32
REMARK   12  A    between atoms: C21_32  and  O5_33
REMARK   13  A    between atoms: C21_32  and  C22_35
ROOT
HETATM    1  C14 UNL     1      -6.685  51.971  -5.943  1.00  0.00     0.227 C
HETATM    2  O3  UNL     1      -5.684  51.236  -5.631  1.00  0.00    -0.273 OA
HETATM    3  N2  UNL     1      -6.525  53.353  -5.837  1.00  0.00    -0.335 N
HETATM    4  C15 UNL     1      -7.466  54.395  -6.154  1.00  0.00     0.166 C
HETATM    5  C16 UNL     1      -7.125  55.528  -5.247  1.00  0.00    -0.030 A
HETATM    6  C17 UNL     1      -7.857  56.630  -4.904  1.00  0.00     0.026 A
HETATM    7  C18 UNL     1      -7.346  57.567  -4.027  1.00  0.00     0.032 A
HETATM    8  C26 UNL     1      -6.086  57.319  -3.536  1.00  0.00     0.017 A
HETATM    9  C27 UNL     1      -5.342  56.207  -3.880  1.00  0.00     0.011 A
HETATM   10  C28 UNL     1      -5.874  55.275  -4.767  1.00  0.00    -0.023 A
HETATM   11  C29 UNL     1      -5.344  54.019  -5.358  1.00  0.00     0.056 C
HETATM   12  C30 UNL     1      -4.651  53.263  -4.244  1.00  0.00     0.044 C
HETATM   13  C31 UNL     1      -4.410  54.291  -6.524  1.00  0.00     0.044 C
ENDROOT
BRANCH   1  14
HETATM   14  C8  UNL     1      -7.939  51.252  -6.392  1.00  0.00     0.108 C
BRANCH  14  15
HETATM   15  C2  UNL     1      -7.613  49.796  -6.517  1.00  0.00     0.142 C
HETATM   16  C1  UNL     1      -8.049  48.948  -5.351  1.00  0.00     0.041 C
BRANCH  15  17
HETATM   17  O1  UNL     1      -8.041  49.205  -7.699  1.00  0.00    -0.298 OA
BRANCH  17  18
HETATM   18  C3  UNL     1      -7.535  49.351  -8.963  1.00  0.00     0.361 C
HETATM   19  O2  UNL     1      -6.292  49.544  -9.046  1.00  0.00    -0.238 OA
HETATM   20  N1  UNL     1      -8.408  49.284 -10.071  1.00  0.00    -0.329 N
ATOM     21  H1  UNL     1      -9.401  49.113  -9.918  1.00  0.00     0.165 HD
BRANCH  20  22
HETATM   22  C4  UNL     1      -7.909  49.454 -11.430  1.00  0.00     0.024 C
HETATM   23  C5  UNL     1      -6.707  48.533 -11.657  1.00  0.00     0.037 C
HETATM   24  C6  UNL     1      -7.453  50.854 -11.696  1.00  0.00     0.037 C
HETATM   25  C7  UNL     1      -9.004  49.105 -12.409  1.00  0.00     0.037 C
ENDBRANCH  20  22
ENDBRANCH  17  18
ENDBRANCH  15  17
ENDBRANCH  14  15
BRANCH  14  26
HETATM   26  C9  UNL     1      -9.023  51.714  -5.552  1.00  0.00     0.027 C
BRANCH  26  27
HETATM   27  C10 UNL     1     -10.442  51.644  -5.805  1.00  0.00     0.054 C
HETATM   28  C11 UNL     1     -10.971  51.468  -7.195  1.00  0.00     0.016 C
BRANCH  27  29
HETATM   29  C12 UNL     1     -11.288  52.731  -5.158  1.00  0.00     0.243 C
HETATM   30  C13 UNL     1     -12.328  53.312  -6.053  1.00  0.00     0.090 C
HETATM   31  F1  UNL     1     -10.375  53.774  -4.906  1.00  0.00    -0.206 F
HETATM   32  F2  UNL     1     -11.771  52.378  -3.918  1.00  0.00    -0.206 F
ENDBRANCH  27  29
ENDBRANCH  26  27
ENDBRANCH  14  26
ENDBRANCH   1  14
BRANCH   7  33
HETATM   33  C19 UNL     1      -8.068  58.782  -3.667  1.00  0.00     0.251 C
HETATM   34  O4  UNL     1      -8.911  58.620  -2.719  1.00  0.00    -0.268 OA
HETATM   35  N3  UNL     1      -7.881  60.030  -4.284  1.00  0.00    -0.354 N
ATOM     36  H3  UNL     1      -7.184  60.104  -5.026  1.00  0.00     0.162 HD
BRANCH  35  37
HETATM   37  C20 UNL     1      -8.617  61.200  -3.926  1.00  0.00     0.155 C
BRANCH  37  38
HETATM   38  C21 UNL     1      -7.730  62.181  -3.214  1.00  0.00     0.143 C
BRANCH  38  39
HETATM   39  O5  UNL     1      -6.382  61.761  -3.287  1.00  0.00    -0.393 OA
ATOM     40  H5  UNL     1      -6.327  60.905  -3.695  1.00  0.00     0.210 HD
ENDBRANCH  38  39
BRANCH  38  41
HETATM   41  C22 UNL     1      -8.119  62.407  -1.765  1.00  0.00    -0.024 C
HETATM   42  C23 UNL     1      -7.858  63.842  -1.414  1.00  0.00     0.017 C
HETATM   43  C24 UNL     1      -7.330  61.426  -0.934  1.00  0.00     0.017 C
HETATM   44  C25 UNL     1      -9.598  62.113  -1.549  1.00  0.00     0.017 C
ENDBRANCH  38  41
ENDBRANCH  37  38
ENDBRANCH  35  37
ENDBRANCH   7  33
TORSDOF 13
ENDMDL