MODEL 1
REMARK VINA RESULT: -9.960576280      0.000      0.000
REMARK  10 active torsions:
REMARK  status: ('A' for Active; 'I' for Inactive)
REMARK    1  A    between atoms: C2_2  and  N1_3
REMARK    2  A    between atoms: N1_3  and  C3_5
REMARK    3  A    between atoms: C3_5  and  C4_6
REMARK    4  A    between atoms: C4_6  and  C5_7
REMARK    5  A    between atoms: C5_7  and  O1_8
REMARK       I    between atoms: N2_11  and  C7_12
REMARK       I    between atoms: C7_12  and  N3_14
REMARK    6  A    between atoms: N3_14  and  C8_16
REMARK    7  A    between atoms: C9_19  and  O3_20
REMARK    8  A    between atoms: C12_24  and  O4_25
REMARK    9  A    between atoms: O4_25  and  C13_26
REMARK   10  A    between atoms: C13_26  and  C14_27
ROOT
HETATM    1  C8  UNL     1      -8.272  55.272  -4.259  1.00  0.00     0.119 A
HETATM    2  N4  UNL     1      -6.943  55.322  -4.445  1.00  0.00    -0.321 N
ATOM      3  H4  UNL     1      -6.423  56.126  -4.096  1.00  0.00     0.169 HD
HETATM    4  C9  UNL     1      -6.285  54.344  -5.076  1.00  0.00     0.164 A
HETATM    5  C11 UNL     1      -7.002  53.244  -5.551  1.00  0.00     0.096 A
HETATM    6 BR1  UNL     1      -6.070  51.855  -6.450  1.00  0.00    -0.043 Br
HETATM    7  C12 UNL     1      -8.360  53.152  -5.384  1.00  0.00     0.100 A
HETATM    8  C20 UNL     1      -9.006  54.171  -4.732  1.00  0.00     0.017 A
HETATM    9  C21 UNL     1     -10.469  54.099  -4.533  1.00  0.00     0.055 C
ENDROOT
BRANCH   1  10
HETATM   10  N3  UNL     1      -8.952  56.163  -3.671  1.00  0.00    -0.294 N
HETATM   11  C7  UNL     1      -8.644  56.869  -2.495  1.00  0.00     0.324 C
HETATM   12  N2  UNL     1      -8.055  58.169  -2.479  1.00  0.00    -0.330 N
HETATM   13  O2  UNL     1      -8.930  56.267  -1.404  1.00  0.00    -0.247 OA
HETATM   14  C6  UNL     1      -7.805  58.784  -1.214  1.00  0.00     0.158 C
HETATM   15  C22 UNL     1      -7.727  58.830  -3.699  1.00  0.00     0.153 C
HETATM   16  C3  UNL     1      -7.297  60.245  -1.405  1.00  0.00     0.045 C
HETATM   17  C25 UNL     1      -6.081  60.185  -2.339  1.00  0.00     0.059 C
HETATM   18  C23 UNL     1      -6.374  59.441  -3.601  1.00  0.00     0.052 C
HETATM   19  C24 UNL     1      -5.347  58.320  -3.831  1.00  0.00     0.034 C
HETATM   20 CL2  UNL     1      -6.189  60.516  -5.037  1.00  0.00    -0.118 Cl
ATOM     21  H3  UNL     1      -9.843  56.399  -4.108  1.00  0.00     0.172 HD
BRANCH  16  22
HETATM   22  N1  UNL     1      -8.367  60.950  -1.917  1.00  0.00    -0.411 N
ATOM     23  H1  UNL     1      -9.212  60.413  -2.113  1.00  0.00     0.154 HD
BRANCH  22  24
HETATM   24  C2  UNL     1      -8.419  62.301  -2.195  1.00  0.00     0.110 C
HETATM   25  C1  UNL     1      -9.680  62.855  -1.469  1.00  0.00     0.026 C
ENDBRANCH  22  24
ENDBRANCH  16  22
BRANCH  16  26
HETATM   26  C4  UNL     1      -6.886  60.630  -0.024  1.00  0.00     0.058 C
BRANCH  26  27
HETATM   27  C5  UNL     1      -6.655  59.594   0.991  1.00  0.00     0.166 C
BRANCH  27  28
HETATM   28  O1  UNL     1      -5.351  59.115   1.076  1.00  0.00    -0.401 OA
ATOM     29  H1  UNL     1      -5.194  58.467   1.754  1.00  0.00     0.209 HD
ENDBRANCH  27  28
ENDBRANCH  26  27
ENDBRANCH  16  26
ENDBRANCH   1  10
BRANCH   4  30
HETATM   30  O3  UNL     1      -4.916  54.430  -5.248  1.00  0.00    -0.340 OA
HETATM   31  C10 UNL     1      -4.013  54.233  -4.147  1.00  0.00     0.211 C
ENDBRANCH   4  30
BRANCH   7  32
HETATM   32  O4  UNL     1      -9.047  52.063  -5.859  1.00  0.00    -0.344 OA
BRANCH  32  33
HETATM   33  C13 UNL     1      -9.873  52.222  -6.996  1.00  0.00     0.214 C
BRANCH  33  34
HETATM   34  C14 UNL     1      -9.217  51.720  -8.214  1.00  0.00    -0.034 A
HETATM   35  C15 UNL     1      -9.421  50.402  -8.565  1.00  0.00     0.011 A
HETATM   36  C16 UNL     1      -8.821  49.901  -9.700  1.00  0.00     0.024 A
HETATM   37  C17 UNL     1      -8.028  50.760 -10.448  1.00  0.00     0.034 A
HETATM   38 CL1  UNL     1      -7.257  50.151 -11.896  1.00  0.00    -0.084 Cl
HETATM   39  C18 UNL     1      -7.829  52.076 -10.093  1.00  0.00     0.024 A
HETATM   40  C19 UNL     1      -8.433  52.558  -8.961  1.00  0.00     0.011 A
ENDBRANCH  33  34
ENDBRANCH  32  33
ENDBRANCH   7  32
TORSDOF 10
ENDMDL