MODEL 2
REMARK VINA RESULT: -10.524447710      2.805      4.078
REMARK  10 active torsions:
REMARK  status: ('A' for Active; 'I' for Inactive)
REMARK    1  A    between atoms: C2_2  and  C3_3
REMARK    2  A    between atoms: C3_3  and  C4_4
REMARK    3  A    between atoms: C4_4  and  C5_5
REMARK    4  A    between atoms: C5_5  and  N1_6
REMARK    5  A    between atoms: C9_15  and  O2_16
REMARK    6  A    between atoms: C15_23  and  N2_24
REMARK    7  A    between atoms: N2_24  and  C16_26
REMARK    8  A    between atoms: C16_26  and  C17_27
REMARK    9  A    between atoms: C16_26  and  C18_29
REMARK   10  A    between atoms: C18_29  and  C19_32
ROOT
HETATM    1  C1  UNL     1      -4.345  52.965  -7.827  1.00  0.00     0.024 C
HETATM    2  C2  UNL     1      -5.895  52.732  -7.712  1.00  0.00     0.029 C
HETATM    3  C6  UNL     1      -5.974  51.448  -6.996  1.00  0.00     0.175 C
HETATM    4  O1  UNL     1      -5.645  50.360  -7.558  1.00  0.00    -0.291 OA
HETATM    5  C7  UNL     1      -6.427  51.334  -5.611  1.00  0.00     0.056 C
HETATM    6 BR1  UNL     1      -6.062  49.819  -4.525  1.00  0.00    -0.047 Br
HETATM    7  C8  UNL     1      -7.113  52.351  -5.126  1.00  0.00     0.034 C
HETATM    8  C9  UNL     1      -7.442  53.566  -5.875  1.00  0.00     0.086 C
HETATM    9  C10 UNL     1      -7.551  54.708  -4.881  1.00  0.00     0.029 C
HETATM   10  C11 UNL     1      -9.008  54.921  -4.482  1.00  0.00     0.014 C
HETATM   11  C12 UNL     1      -8.959  56.319  -3.907  1.00  0.00    -0.004 C
HETATM   12  C13 UNL     1      -8.482  56.174  -2.481  1.00  0.00     0.007 C
HETATM   13  C14 UNL     1      -7.134  56.836  -2.416  1.00  0.00     0.026 C
HETATM   14  C15 UNL     1      -6.993  57.696  -3.651  1.00  0.00     0.086 C
HETATM   15  C25 UNL     1      -7.857  57.055  -4.658  1.00  0.00    -0.016 C
HETATM   16  C26 UNL     1      -8.525  58.113  -5.549  1.00  0.00     0.018 C
HETATM   17  C27 UNL     1      -7.263  56.012  -5.540  1.00  0.00     0.003 C
HETATM   18  C28 UNL     1      -5.870  56.151  -5.968  1.00  0.00     0.006 C
HETATM   19  C29 UNL     1      -5.365  54.801  -6.471  1.00  0.00     0.009 C
HETATM   20  C30 UNL     1      -6.479  53.902  -6.973  1.00  0.00     0.040 C
ENDROOT
BRANCH  14  21
HETATM   21  N2  UNL     1      -7.402  59.050  -3.444  1.00  0.00    -0.401 N
ATOM     22  H2  UNL     1      -8.370  59.338  -3.587  1.00  0.00     0.154 HD
BRANCH  21  23
HETATM   23  C16 UNL     1      -6.413  59.973  -3.035  1.00  0.00     0.217 C
BRANCH  23  24
HETATM   24  C17 UNL     1      -5.881  60.837  -4.112  1.00  0.00     0.262 C
HETATM   25  O3  UNL     1      -5.908  60.522  -5.275  1.00  0.00    -0.304 OA
ENDBRANCH  23  24
BRANCH  23  26
HETATM   26  C18 UNL     1      -7.016  60.933  -2.011  1.00  0.00     0.296 C
HETATM   27  F1  UNL     1      -8.404  60.900  -2.030  1.00  0.00    -0.198 F
HETATM   28  F2  UNL     1      -6.734  62.255  -2.443  1.00  0.00    -0.198 F
BRANCH  26  29
HETATM   29  C19 UNL     1      -6.535  60.814  -0.647  1.00  0.00     0.015 A
HETATM   30  C20 UNL     1      -6.787  59.654   0.089  1.00  0.00     0.013 A
HETATM   31  C21 UNL     1      -6.352  59.480   1.375  1.00  0.00     0.001 A
HETATM   32  C22 UNL     1      -5.633  60.490   1.972  1.00  0.00     0.000 A
HETATM   33  C23 UNL     1      -5.362  61.647   1.287  1.00  0.00     0.001 A
HETATM   34  C24 UNL     1      -5.821  61.800  -0.032  1.00  0.00     0.013 A
ENDBRANCH  26  29
ENDBRANCH  23  26
ENDBRANCH  21  23
ENDBRANCH  14  21
BRANCH   8  35
HETATM   35  O2  UNL     1      -8.717  53.363  -6.452  1.00  0.00    -0.385 OA
ATOM     36  H2  UNL     1      -8.804  53.990  -7.161  1.00  0.00     0.211 HD
ENDBRANCH   8  35
BRANCH   2  37
HETATM   37  C3  UNL     1      -6.319  52.707  -9.143  1.00  0.00     0.019 C
BRANCH  37  38
HETATM   38  C4  UNL     1      -7.734  52.651  -9.513  1.00  0.00     0.028 C
BRANCH  38  39
HETATM   39  C5  UNL     1      -8.342  51.257  -9.600  1.00  0.00     0.229 C
BRANCH  39  40
HETATM   40  N1  UNL     1      -9.231  51.155  -8.423  1.00  0.00    -0.079 N
ATOM     41  H13 UNL     1      -9.915  50.401  -8.486  1.00  0.00     0.274 HD
ATOM     42  H12 UNL     1      -8.765  50.821  -7.580  1.00  0.00     0.274 HD
ATOM     43  H11 UNL     1      -9.646  52.082  -8.327  1.00  0.00     0.274 HD
ENDBRANCH  39  40
ENDBRANCH  38  39
ENDBRANCH  37  38
ENDBRANCH   2  37
TORSDOF 10
ENDMDL