MODEL 2
REMARK VINA RESULT: -10.653777558      0.963      1.515
REMARK  11 active torsions:
REMARK  status: ('A' for Active; 'I' for Inactive)
REMARK    1  A    between atoms: O1_2  and  C2_3
REMARK    2  A    between atoms: C2_3  and  C3_4
REMARK    3  A    between atoms: C6_8  and  C7_9
REMARK    4  A    between atoms: C7_9  and  N2_10
REMARK    5  A    between atoms: N2_10  and  C8_11
REMARK    6  A    between atoms: N2_10  and  C9_13
REMARK    7  A    between atoms: C9_13  and  C10_14
REMARK    8  A    between atoms: C10_14  and  C11_15
REMARK    9  A    between atoms: C11_15  and  C12_16
REMARK   10  A    between atoms: C14_18  and  C15_19
REMARK   11  A    between atoms: C16_20  and  C17_21
ROOT
HETATM    1  C12 UNL     1      -6.793  55.186  -5.401  1.00  0.00    -0.028 A
HETATM    2  C13 UNL     1      -6.473  56.276  -4.577  1.00  0.00     0.030 A
HETATM    3  C14 UNL     1      -7.317  56.752  -3.611  1.00  0.00     0.019 A
HETATM    4  C23 UNL     1      -8.525  56.103  -3.475  1.00  0.00     0.036 A
HETATM    5  C24 UNL     1      -8.883  55.027  -4.260  1.00  0.00     0.011 A
HETATM    6  C25 UNL     1      -9.987  54.197  -4.328  1.00  0.00     0.120 A
HETATM    7  N5  UNL     1      -9.813  53.273  -5.285  1.00  0.00    -0.311 N
ATOM      8  H5  UNL     1     -10.468  52.537  -5.548  1.00  0.00     0.186 HD
HETATM    9  N6  UNL     1      -8.634  53.499  -5.815  1.00  0.00    -0.300 N
ATOM     10  H6  UNL     1      -8.231  52.947  -6.572  1.00  0.00     0.187 HD
HETATM   11  C26 UNL     1      -8.015  54.563  -5.229  1.00  0.00     0.066 A
ENDROOT
BRANCH   1  12
HETATM   12  C11 UNL     1      -5.867  54.740  -6.446  1.00  0.00     0.042 C
BRANCH  12  13
HETATM   13  C10 UNL     1      -4.545  54.207  -5.995  1.00  0.00     0.025 C
BRANCH  13  14
HETATM   14  C9  UNL     1      -3.910  53.165  -6.829  1.00  0.00     0.125 C
BRANCH  14  15
HETATM   15  N2  UNL     1      -4.140  51.799  -6.325  1.00  0.00    -0.357 N
BRANCH  15  16
HETATM   16  C7  UNL     1      -4.861  50.844  -7.079  1.00  0.00     0.165 C
BRANCH  16  17
HETATM   17  C6  UNL     1      -6.283  51.202  -7.494  1.00  0.00     0.269 C
HETATM   18  N1  UNL     1      -6.462  51.417  -8.843  1.00  0.00     0.104 N
HETATM   19  C5  UNL     1      -6.564  52.787  -9.319  1.00  0.00     0.274 C
HETATM   20  C31 UNL     1      -7.675  50.886  -9.399  1.00  0.00     0.233 C
HETATM   21  C4  UNL     1      -6.808  52.558 -10.811  1.00  0.00     0.039 C
HETATM   22  C3  UNL     1      -7.722  51.352 -10.818  1.00  0.00     0.045 C
HETATM   23  C30 UNL     1      -7.667  49.394  -9.204  1.00  0.00     0.063 C
HETATM   24  C29 UNL     1      -7.858  49.294  -7.683  1.00  0.00    -0.020 C
HETATM   25  C27 UNL     1      -7.199  50.155  -6.927  1.00  0.00    -0.053 C
HETATM   26  C28 UNL     1      -7.361  50.095  -5.424  1.00  0.00     0.045 C
BRANCH  22  27
HETATM   27  C2  UNL     1      -7.306  50.320 -11.818  1.00  0.00     0.173 C
BRANCH  27  28
HETATM   28  O1  UNL     1      -8.186  50.193 -12.877  1.00  0.00    -0.396 OA
HETATM   29  C1  UNL     1      -8.841  48.967 -12.736  1.00  0.00     0.201 C
ENDBRANCH  27  28
ENDBRANCH  22  27
ENDBRANCH  16  17
ENDBRANCH  15  16
BRANCH  15  30
HETATM   30  C8  UNL     1      -3.654  51.505  -5.029  1.00  0.00     0.350 C
HETATM   31  O2  UNL     1      -3.991  50.441  -4.479  1.00  0.00    -0.284 OA
ENDBRANCH  15  30
ENDBRANCH  14  15
ENDBRANCH  13  14
ENDBRANCH  12  13
ENDBRANCH   1  12
BRANCH   3  32
HETATM   32  C15 UNL     1      -6.953  57.877  -2.780  1.00  0.00    -0.061 C
HETATM   33  C16 UNL     1      -6.641  58.827  -2.104  1.00  0.00    -0.057 C
BRANCH  33  34
HETATM   34  C17 UNL     1      -6.259  59.968  -1.323  1.00  0.00     0.069 A
HETATM   35  C18 UNL     1      -6.262  59.936   0.073  1.00  0.00    -0.015 A
HETATM   36  C19 UNL     1      -6.680  58.652   0.702  1.00  0.00     0.052 C
HETATM   37  C20 UNL     1      -5.896  61.033   0.818  1.00  0.00     0.080 A
HETATM   38 CL1  UNL     1      -5.905  60.974   2.560  1.00  0.00    -0.080 Cl
HETATM   39  C21 UNL     1      -5.517  62.193   0.188  1.00  0.00     0.127 A
HETATM   40 CL2  UNL     1      -5.044  63.615   1.134  1.00  0.00    -0.063 Cl
HETATM   41  N3  UNL     1      -5.514  62.230  -1.153  1.00  0.00    -0.331 N
HETATM   42  C22 UNL     1      -5.871  61.159  -1.893  1.00  0.00     0.119 A
ATOM     43  H3  UNL     1      -5.233  63.089  -1.626  1.00  0.00     0.168 HD
HETATM   44  N4  UNL     1      -5.858  61.223  -3.198  1.00  0.00    -0.384 N
ATOM     45  H42 UNL     1      -6.127  60.414  -3.757  1.00  0.00     0.157 HD
ATOM     46  H41 UNL     1      -5.570  62.105  -3.620  1.00  0.00     0.157 HD
ENDBRANCH  33  34
ENDBRANCH   3  32
TORSDOF 11
ENDMDL