MODEL 1
REMARK VINA RESULT: -10.220179458      0.000      0.000
REMARK  10 active torsions:
REMARK  status: ('A' for Active; 'I' for Inactive)
REMARK    1  A    between atoms: C1_2  and  O2_3
REMARK       I    between atoms: C1_2  and  N1_9
REMARK    2  A    between atoms: O2_3  and  C2_4
REMARK    3  A    between atoms: C7_10  and  N2_11
REMARK    4  A    between atoms: N2_11  and  C8_14
REMARK    5  A    between atoms: C8_14  and  C9_15
REMARK    6  A    between atoms: C9_15  and  C10_16
REMARK    7  A    between atoms: C10_16  and  O3_17
REMARK    8  A    between atoms: O3_17  and  C11_18
REMARK    9  A    between atoms: C14_22  and  C15_23
REMARK   10  A    between atoms: C21_31  and  O4_32
ROOT
HETATM    1  O1  UNL     1      -9.534  60.617  -2.495  1.00  0.00    -0.238 OA
HETATM    2  C1  UNL     1      -8.408  61.011  -2.105  1.00  0.00     0.365 C
HETATM    3  N1  UNL     1      -7.454  60.180  -1.509  1.00  0.00    -0.294 N
HETATM    4  C7  UNL     1      -7.689  58.739  -1.284  1.00  0.00     0.291 C
HETATM    5  C19 UNL     1      -7.388  58.717   0.224  1.00  0.00     0.064 C
HETATM    6  C20 UNL     1      -6.084  59.513   0.220  1.00  0.00     0.041 C
HETATM    7  C21 UNL     1      -5.974  60.478   1.349  1.00  0.00     0.124 C
HETATM    8  C22 UNL     1      -5.059  61.548   0.734  1.00  0.00     0.034 C
HETATM    9  C23 UNL     1      -5.796  61.776  -0.584  1.00  0.00     0.028 C
HETATM   10  C24 UNL     1      -6.142  60.404  -1.001  1.00  0.00     0.098 C
ENDROOT
BRANCH   4  11
HETATM   11  N2  UNL     1      -6.627  58.015  -1.909  1.00  0.00    -0.054 N
ATOM     12  H22 UNL     1      -5.843  58.635  -2.115  1.00  0.00     0.279 HD
ATOM     13  H21 UNL     1      -6.179  57.388  -1.241  1.00  0.00     0.279 HD
BRANCH  11  14
HETATM   14  C8  UNL     1      -7.029  57.290  -3.098  1.00  0.00     0.237 C
BRANCH  14  15
HETATM   15  C9  UNL     1      -8.241  56.430  -2.823  1.00  0.00     0.054 C
BRANCH  15  16
HETATM   16  C10 UNL     1      -8.814  55.882  -4.095  1.00  0.00     0.177 C
BRANCH  16  17
HETATM   17  O3  UNL     1      -8.909  54.470  -4.009  1.00  0.00    -0.348 OA
BRANCH  17  18
HETATM   18  C11 UNL     1      -9.016  53.673  -5.147  1.00  0.00     0.107 A
HETATM   19  C12 UNL     1      -7.949  53.515  -5.981  1.00  0.00     0.069 A
HETATM   20 CL1  UNL     1      -6.429  54.319  -5.627  1.00  0.00    -0.081 Cl
HETATM   21  C13 UNL     1      -8.026  52.720  -7.133  1.00  0.00     0.038 A
HETATM   22  C14 UNL     1      -9.224  52.082  -7.420  1.00  0.00    -0.033 A
HETATM   23  C17 UNL     1     -10.315  52.234  -6.581  1.00  0.00     0.033 A
HETATM   24  C18 UNL     1     -10.186  53.021  -5.469  1.00  0.00     0.046 A
HETATM   25 BR2  UNL     1     -11.657  53.270  -4.267  1.00  0.00    -0.048 Br
BRANCH  22  26
HETATM   26  C15 UNL     1      -9.358  51.245  -8.603  1.00  0.00     0.019 C
HETATM   27  C16 UNL     1      -8.335  50.735  -9.232  1.00  0.00     0.057 C
HETATM   28 BR1  UNL     1      -8.668  49.652 -10.776  1.00  0.00    -0.064 Br
ENDBRANCH  22  26
ENDBRANCH  17  18
ENDBRANCH  16  17
ENDBRANCH  15  16
ENDBRANCH  14  15
ENDBRANCH  11  14
ENDBRANCH   4  11
BRANCH   2  29
HETATM   29  O2  UNL     1      -8.129  62.354  -2.293  1.00  0.00    -0.298 OA
BRANCH  29  30
HETATM   30  C2  UNL     1      -8.574  63.341  -1.426  1.00  0.00     0.133 C
HETATM   31  C3  UNL     1      -7.798  64.632  -1.709  1.00  0.00     0.032 C
HETATM   32  C4  UNL     1      -8.622  65.640  -0.945  1.00  0.00     0.002 C
HETATM   33  C5  UNL     1     -10.049  65.176  -1.061  1.00  0.00     0.002 C
HETATM   34  C6  UNL     1      -9.994  63.755  -1.617  1.00  0.00     0.032 C
ENDBRANCH  29  30
ENDBRANCH   2  29
BRANCH   7  35
HETATM   35  O4  UNL     1      -5.305  59.976   2.450  1.00  0.00    -0.395 OA
ATOM     36  H4  UNL     1      -4.585  59.395   2.230  1.00  0.00     0.210 HD
ENDBRANCH   7  35
TORSDOF 10
ENDMDL