MODEL 1
REMARK VINA RESULT: -11.944106404      0.000      0.000
REMARK  9 active torsions:
REMARK  status: ('A' for Active; 'I' for Inactive)
REMARK    1  A    between atoms: C2_2  and  N1_4
REMARK    2  A    between atoms: C2_2  and  C21_25
REMARK       I    between atoms: N1_4  and  C4_6
REMARK    3  A    between atoms: C4_6  and  C5_8
REMARK    4  A    between atoms: C5_8  and  C6_9
REMARK       I    between atoms: C21_25  and  N2_27
REMARK    5  A    between atoms: N2_27  and  C22_29
REMARK    6  A    between atoms: C25_32  and  C26_33
REMARK    7  A    between atoms: C29_37  and  C30_38
REMARK       I    between atoms: C30_38  and  N4_40
REMARK    8  A    between atoms: N4_40  and  C31_42
REMARK    9  A    between atoms: C31_42  and  C32_43
ROOT
HETATM    1  C26 UNL     1      -7.126  47.971 -11.097  1.00  0.00     0.128 C
HETATM    2  C27 UNL     1      -7.825  48.906 -11.950  1.00  0.00     0.059 C
HETATM    3  N3  UNL     1      -8.391  49.654 -12.613  1.00  0.00    -0.197 NA
ENDROOT
BRANCH   1   4
HETATM    4  C25 UNL     1      -6.781  48.566  -9.749  1.00  0.00    -0.001 C
HETATM    5  C24 UNL     1      -5.827  49.703 -10.014  1.00  0.00     0.007 C
HETATM    6  C23 UNL     1      -5.308  50.337  -8.733  1.00  0.00     0.026 C
HETATM    7  C22 UNL     1      -6.515  50.796  -7.936  1.00  0.00     0.097 C
HETATM    8  C29 UNL     1      -7.493  49.696  -7.704  1.00  0.00     0.101 C
HETATM    9  C28 UNL     1      -7.975  49.087  -9.023  1.00  0.00     0.021 C
BRANCH   7  10
HETATM   10  N2  UNL     1      -6.133  51.376  -6.676  1.00  0.00    -0.353 N
HETATM   11  C21 UNL     1      -5.663  52.699  -6.528  1.00  0.00     0.245 C
HETATM   12  O3  UNL     1      -5.554  53.437  -7.519  1.00  0.00    -0.271 OA
ATOM     13  H2  UNL     1      -6.206  50.796  -5.839  1.00  0.00     0.163 HD
BRANCH  11  14
HETATM   14  C2  UNL     1      -5.295  53.220  -5.185  1.00  0.00     0.106 C
HETATM   15  C1  UNL     1      -5.520  52.103  -4.166  1.00  0.00     0.048 C
HETATM   16  C3  UNL     1      -3.874  53.679  -5.215  1.00  0.00     0.048 C
BRANCH  14  17
HETATM   17  N1  UNL     1      -6.141  54.325  -4.802  1.00  0.00    -0.344 N
HETATM   18  C4  UNL     1      -7.570  54.250  -4.882  1.00  0.00     0.218 C
HETATM   19  O1  UNL     1      -8.072  53.183  -5.308  1.00  0.00    -0.274 OA
ATOM     20  H1  UNL     1      -5.709  55.184  -4.463  1.00  0.00     0.163 HD
BRANCH  18  21
HETATM   21  C5  UNL     1      -8.409  55.432  -4.461  1.00  0.00     0.108 C
BRANCH  21  22
HETATM   22  C6  UNL     1      -7.644  56.216  -3.404  1.00  0.00     0.003 C
HETATM   23  C7  UNL     1      -8.188  56.003  -2.048  1.00  0.00     0.006 C
HETATM   24  C8  UNL     1      -8.667  57.337  -1.560  1.00  0.00     0.007 C
HETATM   25  C9  UNL     1      -8.548  58.327  -2.695  1.00  0.00     0.006 C
HETATM   26  C10 UNL     1      -8.210  59.704  -2.212  1.00  0.00    -0.016 C
HETATM   27  C19 UNL     1      -7.637  57.705  -3.677  1.00  0.00    -0.035 C
HETATM   28  C11 UNL     1      -8.628  59.772  -0.732  1.00  0.00     0.020 C
HETATM   29  C12 UNL     1      -9.005  60.759  -2.907  1.00  0.00     0.022 C
HETATM   30  C16 UNL     1      -6.765  59.986  -2.244  1.00  0.00    -0.068 C
HETATM   31  C13 UNL     1      -8.682  62.150  -2.439  1.00  0.00     0.084 C
HETATM   32  C14 UNL     1      -7.342  62.316  -1.871  1.00  0.00     0.149 C
HETATM   33  O2  UNL     1      -7.015  63.343  -1.221  1.00  0.00    -0.293 OA
HETATM   34  C15 UNL     1      -6.362  61.228  -2.081  1.00  0.00     0.053 C
HETATM   35  C17 UNL     1      -5.779  58.914  -2.453  1.00  0.00     0.036 C
HETATM   36  C18 UNL     1      -6.217  58.166  -3.689  1.00  0.00     0.014 C
HETATM   37  C20 UNL     1      -8.183  57.929  -5.098  1.00  0.00     0.016 C
ENDBRANCH  21  22
ENDBRANCH  18  21
ENDBRANCH  14  17
ENDBRANCH  11  14
ENDBRANCH   7  10
BRANCH   8  38
HETATM   38  C30 UNL     1      -8.653  50.185  -6.943  1.00  0.00     0.224 C
HETATM   39  O4  UNL     1      -8.799  49.754  -5.749  1.00  0.00    -0.273 OA
HETATM   40  N4  UNL     1      -9.611  51.088  -7.432  1.00  0.00    -0.352 N
ATOM     41  H4  UNL     1      -9.525  51.452  -8.380  1.00  0.00     0.162 HD
BRANCH  40  42
HETATM   42  C31 UNL     1     -10.715  51.504  -6.602  1.00  0.00     0.239 C
BRANCH  42  43
HETATM   43  C32 UNL     1     -11.890  52.014  -7.387  1.00  0.00     0.403 C
HETATM   44  F1  UNL     1     -11.542  52.860  -8.410  1.00  0.00    -0.169 F
HETATM   45  F2  UNL     1     -12.683  50.993  -7.884  1.00  0.00    -0.169 F
HETATM   46  F3  UNL     1     -12.681  52.748  -6.505  1.00  0.00    -0.169 F
ENDBRANCH  42  43
ENDBRANCH  40  42
ENDBRANCH   8  38
ENDBRANCH   1   4
TORSDOF 9
ENDMDL