MODEL 4
REMARK VINA RESULT: -10.508162264      1.222      2.167
REMARK  11 active torsions:
REMARK  status: ('A' for Active; 'I' for Inactive)
REMARK    1  A    between atoms: C2_2  and  C4_4
REMARK    2  A    between atoms: C4_4  and  N1_6
REMARK    3  A    between atoms: N1_6  and  C6_8
REMARK    4  A    between atoms: C7_11  and  N3_12
REMARK    5  A    between atoms: N3_12  and  C8_13
REMARK    6  A    between atoms: C8_13  and  C9_14
REMARK    7  A    between atoms: N4_17  and  C12_18
REMARK    8  A    between atoms: C12_18  and  C13_19
REMARK    9  A    between atoms: C13_19  and  N5_20
REMARK   10  A    between atoms: C22_31  and  N7_32
REMARK   11  A    between atoms: N7_32  and  C23_34
ROOT
HETATM    1  C6  UNL     1      -9.151  55.395  -4.359  1.00  0.00     0.696 A
HETATM    2  N2  UNL     1      -7.958  54.826  -4.459  1.00  0.00    -0.148 N
ATOM      3  H2  UNL     1      -7.903  53.858  -4.775  1.00  0.00     0.188 HD
HETATM    4  C7  UNL     1      -6.787  55.490  -4.154  1.00  0.00     0.287 A
HETATM    5  N6  UNL     1      -6.936  56.765  -3.744  1.00  0.00    -0.148 N
ATOM      6  H6  UNL     1      -6.102  57.301  -3.506  1.00  0.00     0.188 HD
HETATM    7  C22 UNL     1      -8.128  57.357  -3.635  1.00  0.00     0.700 A
HETATM    8  N8  UNL     1      -9.230  56.669  -3.943  1.00  0.00    -0.022 N
ATOM      9  H8  UNL     1     -10.142  57.117  -3.862  1.00  0.00     0.203 HD
ENDROOT
BRANCH   4  10
HETATM   10  N3  UNL     1      -5.748  54.915  -4.275  1.00  0.00    -0.387 NA
BRANCH  10  11
HETATM   11  C8  UNL     1      -4.588  54.281  -4.459  1.00  0.00     0.164 C
BRANCH  11  12
HETATM   12  C9  UNL     1      -4.656  53.150  -5.477  1.00  0.00     0.047 C
HETATM   13  C10 UNL     1      -3.768  51.991  -5.138  1.00  0.00     0.056 C
HETATM   14  C11 UNL     1      -4.179  50.844  -6.030  1.00  0.00     0.069 C
HETATM   15  N4  UNL     1      -4.351  51.187  -7.379  1.00  0.00    -0.352 N
HETATM   16  C20 UNL     1      -4.146  52.492  -7.803  1.00  0.00     0.069 C
HETATM   17  C21 UNL     1      -4.325  53.616  -6.854  1.00  0.00     0.056 C
BRANCH  15  18
HETATM   18  C12 UNL     1      -4.868  50.202  -8.236  1.00  0.00     0.098 C
BRANCH  18  19
HETATM   19  C13 UNL     1      -6.338  50.337  -8.550  1.00  0.00     0.317 C
BRANCH  19  20
HETATM   20  N5  UNL     1      -6.659  49.961  -9.896  1.00  0.00     0.093 N
HETATM   21  C14 UNL     1      -7.115  48.622 -10.055  1.00  0.00     0.273 C
HETATM   22  C15 UNL     1      -7.147  48.306 -11.554  1.00  0.00     0.030 C
HETATM   23  C16 UNL     1      -8.407  48.892 -12.117  1.00  0.00     0.002 C
HETATM   24  C17 UNL     1      -8.053  50.194 -12.817  1.00  0.00     0.002 C
HETATM   25  C18 UNL     1      -7.310  51.133 -11.919  1.00  0.00     0.030 C
HETATM   26  C19 UNL     1      -7.615  50.900 -10.455  1.00  0.00     0.273 C
ENDBRANCH  19  20
ENDBRANCH  18  19
ENDBRANCH  15  18
ENDBRANCH  11  12
ENDBRANCH  10  11
ENDBRANCH   4  10
BRANCH   1  27
HETATM   27  N1  UNL     1     -10.226  54.792  -4.648  1.00  0.00    -0.221 N
ATOM     28  H1  UNL     1     -10.981  55.383  -4.997  1.00  0.00     0.178 HD
BRANCH  27  29
HETATM   29  C4  UNL     1     -10.532  53.392  -4.551  1.00  0.00     0.098 C
HETATM   30  C5  UNL     1     -11.856  53.133  -3.862  1.00  0.00     0.033 C
BRANCH  29  31
HETATM   31  C2  UNL     1     -10.507  52.770  -5.936  1.00  0.00     0.000 C
HETATM   32  C1  UNL     1     -11.840  52.750  -6.604  1.00  0.00     0.011 C
HETATM   33  C3  UNL     1      -9.974  51.350  -5.862  1.00  0.00     0.011 C
ENDBRANCH  29  31
ENDBRANCH  27  29
ENDBRANCH   1  27
BRANCH   7  34
HETATM   34  N7  UNL     1      -8.142  58.576  -3.231  1.00  0.00    -0.189 N
ATOM     35  H7  UNL     1      -8.939  59.145  -3.519  1.00  0.00     0.184 HD
BRANCH  34  36
HETATM   36  C23 UNL     1      -7.172  59.209  -2.431  1.00  0.00     0.072 A
HETATM   37  C24 UNL     1      -7.115  59.038  -1.057  1.00  0.00     0.057 A
HETATM   38  C25 UNL     1      -6.153  59.661  -0.292  1.00  0.00     0.058 A
HETATM   39 CL1  UNL     1      -6.091  59.438   1.440  1.00  0.00    -0.082 Cl
HETATM   40  C26 UNL     1      -5.199  60.487  -0.870  1.00  0.00     0.057 A
HETATM   41 CL2  UNL     1      -3.977  61.278   0.093  1.00  0.00    -0.082 Cl
HETATM   42  C27 UNL     1      -5.267  60.649  -2.246  1.00  0.00     0.051 A
HETATM   43  C28 UNL     1      -6.226  60.030  -3.022  1.00  0.00     0.063 A
HETATM   44 CL3  UNL     1      -6.202  60.318  -4.747  1.00  0.00    -0.082 Cl
ENDBRANCH  34  36
ENDBRANCH   7  34
TORSDOF 11
ENDMDL