MODEL 3
REMARK VINA RESULT: -9.980042023      4.983      9.362
REMARK  9 active torsions:
REMARK  status: ('A' for Active; 'I' for Inactive)
REMARK    1  A    between atoms: N1_2  and  C3_4
REMARK    2  A    between atoms: C3_4  and  C4_5
REMARK    3  A    between atoms: C4_5  and  S1_8
REMARK    4  A    between atoms: S1_8  and  N2_11
REMARK    5  A    between atoms: N2_11  and  C7_13
REMARK    6  A    between atoms: C9_15  and  C10_16
REMARK       I    between atoms: C10_16  and  N3_18
REMARK    7  A    between atoms: N3_18  and  C11_20
REMARK    8  A    between atoms: C15_24  and  C16_25
REMARK    9  A    between atoms: C26_38  and  O4_39
ROOT
HETATM    1  C7  UNL     1      -6.825  54.087  -5.691  1.00  0.00     0.126 C
HETATM    2  C8  UNL     1      -6.120  54.466  -6.931  1.00  0.00    -0.051 C
HETATM    3  C9  UNL     1      -5.712  53.799  -8.103  1.00  0.00     0.079 C
HETATM    4  C18 UNL     1      -5.072  55.559  -6.515  1.00  0.00     0.037 C
HETATM    5  C19 UNL     1      -5.976  56.782  -6.667  1.00  0.00     0.010 C
HETATM    6  C20 UNL     1      -7.124  56.671  -5.694  1.00  0.00     0.001 C
HETATM    7  C21 UNL     1      -7.565  55.355  -5.239  1.00  0.00     0.018 C
HETATM    8  C22 UNL     1      -7.839  55.312  -3.756  1.00  0.00     0.008 C
HETATM    9  C23 UNL     1      -8.618  56.533  -3.363  1.00  0.00     0.006 C
HETATM   10  C24 UNL     1      -7.756  57.743  -3.480  1.00  0.00    -0.004 C
HETATM   11  C25 UNL     1      -7.075  57.952  -2.122  1.00  0.00     0.037 C
HETATM   12  C26 UNL     1      -6.074  59.066  -2.142  1.00  0.00     0.118 C
HETATM   13  C27 UNL     1      -5.190  58.986  -3.354  1.00  0.00     0.032 C
HETATM   14  C28 UNL     1      -5.402  57.696  -4.117  1.00  0.00     0.012 C
HETATM   15  C29 UNL     1      -6.815  57.723  -4.624  1.00  0.00    -0.036 C
HETATM   16  C30 UNL     1      -6.945  59.070  -5.342  1.00  0.00     0.016 C
ENDROOT
BRANCH   1  17
HETATM   17  N2  UNL     1      -6.012  53.517  -4.669  1.00  0.00    -0.309 N
ATOM     18  H2  UNL     1      -5.864  54.078  -3.830  1.00  0.00     0.172 HD
BRANCH  17  19
HETATM   19  S1  UNL     1      -5.295  52.048  -4.716  1.00  0.00     0.236 S
HETATM   20  O1  UNL     1      -5.183  51.463  -3.313  1.00  0.00    -0.205 OA
HETATM   21  O2  UNL     1      -3.923  52.128  -5.364  1.00  0.00    -0.205 OA
BRANCH  19  22
HETATM   22  C4  UNL     1      -6.097  50.718  -5.636  1.00  0.00     0.102 C
HETATM   23  C5  UNL     1      -6.382  49.503  -4.776  1.00  0.00     0.035 C
HETATM   24  C6  UNL     1      -5.292  50.365  -6.838  1.00  0.00     0.035 C
BRANCH  22  25
HETATM   25  C3  UNL     1      -7.451  51.283  -6.006  1.00  0.00     0.297 C
BRANCH  25  26
HETATM   26  N1  UNL     1      -8.489  50.383  -6.294  1.00  0.00     0.081 N
HETATM   27  C1  UNL     1      -8.576  49.907  -7.608  1.00  0.00     0.309 C
HETATM   28  C2  UNL     1      -9.812  50.827  -5.870  1.00  0.00     0.309 C
ENDBRANCH  25  26
ENDBRANCH  22  25
ENDBRANCH  19  22
ENDBRANCH  17  19
ENDBRANCH   1  17
BRANCH   3  29
HETATM   29  C10 UNL     1      -6.742  53.201  -9.033  1.00  0.00     0.246 C
HETATM   30  O3  UNL     1      -7.964  53.247  -8.690  1.00  0.00    -0.268 OA
HETATM   31  N3  UNL     1      -6.247  52.656 -10.211  1.00  0.00    -0.324 N
ATOM     32  H3  UNL     1      -5.234  52.759 -10.259  1.00  0.00     0.169 HD
BRANCH  31  33
HETATM   33  C11 UNL     1      -6.733  52.011 -11.345  1.00  0.00     0.035 A
HETATM   34  C12 UNL     1      -6.442  52.546 -12.616  1.00  0.00     0.029 A
HETATM   35  C13 UNL     1      -6.886  51.948 -13.759  1.00  0.00     0.003 A
HETATM   36  C14 UNL     1      -7.635  50.789 -13.691  1.00  0.00     0.016 A
HETATM   37  C15 UNL     1      -7.917  50.273 -12.453  1.00  0.00     0.050 A
HETATM   38  C17 UNL     1      -7.477  50.868 -11.290  1.00  0.00     0.045 A
BRANCH  37  39
HETATM   39  C16 UNL     1      -8.692  49.029 -12.387  1.00  0.00     0.417 C
HETATM   40  F1  UNL     1      -9.526  49.057 -11.266  1.00  0.00    -0.166 F
HETATM   41  F2  UNL     1      -7.831  47.933 -12.307  1.00  0.00    -0.166 F
HETATM   42  F3  UNL     1      -9.491  48.938 -13.494  1.00  0.00    -0.166 F
ENDBRANCH  37  39
ENDBRANCH  31  33
ENDBRANCH   3  29
BRANCH  12  43
HETATM   43  O4  UNL     1      -6.630  60.335  -1.962  1.00  0.00    -0.396 OA
ATOM     44  H4  UNL     1      -6.361  60.767  -1.159  1.00  0.00     0.210 HD
ENDBRANCH  12  43
TORSDOF 9
ENDMDL