MODEL 4
REMARK VINA RESULT: -9.306835244      5.300     12.756
REMARK  11 active torsions:
REMARK  status: ('A' for Active; 'I' for Inactive)
REMARK    1  A    between atoms: C2_2  and  N1_3
REMARK    2  A    between atoms: N1_3  and  C3_4
REMARK    3  A    between atoms: N1_3  and  C5_6
REMARK    4  A    between atoms: C5_6  and  O1_7
REMARK    5  A    between atoms: C5_6  and  C6_9
REMARK    6  A    between atoms: C9_12  and  N2_13
REMARK    7  A    between atoms: C13_17  and  C14_18
REMARK    8  A    between atoms: C17_23  and  N3_24
REMARK       I    between atoms: N3_24  and  C18_26
REMARK       I    between atoms: C18_26  and  N4_28
REMARK    9  A    between atoms: N4_28  and  C19_30
REMARK   10  A    between atoms: C19_30  and  C20_31
REMARK       I    between atoms: C20_31  and  N5_33
REMARK   11  A    between atoms: N5_33  and  C21_35
ROOT
HETATM    1  C21 UNL     1      -1.185  65.039   2.531  1.00  0.00     0.247 C
HETATM    2  C22 UNL     1      -1.193  66.476   2.375  1.00  0.00     0.078 C
HETATM    3  N6  UNL     1      -1.221  67.629   2.243  1.00  0.00    -0.196 NA
ENDROOT
BRANCH   1   4
HETATM    4  N5  UNL     1      -1.006  64.402   1.213  1.00  0.00    -0.347 N
HETATM    5  C20 UNL     1      -2.141  63.887   0.531  1.00  0.00     0.246 C
HETATM    6  O3  UNL     1      -3.261  63.997   1.103  1.00  0.00    -0.271 OA
ATOM      7  H5  UNL     1      -0.078  64.333   0.796  1.00  0.00     0.163 HD
BRANCH   5   8
HETATM    8  C19 UNL     1      -2.018  63.228  -0.831  1.00  0.00     0.115 C
HETATM    9  C23 UNL     1      -2.365  64.285  -1.821  1.00  0.00     0.041 C
HETATM   10  C24 UNL     1      -1.439  64.539  -2.938  1.00  0.00     0.003 C
HETATM   11  C25 UNL     1       0.000  64.366  -2.598  1.00  0.00     0.000 C
HETATM   12  C26 UNL     1       0.185  62.977  -2.080  1.00  0.00     0.003 C
HETATM   13  C27 UNL     1      -0.644  62.681  -0.895  1.00  0.00     0.041 C
BRANCH   8  14
HETATM   14  N4  UNL     1      -3.000  62.163  -0.811  1.00  0.00    -0.325 N
HETATM   15  C18 UNL     1      -4.347  62.270  -1.240  1.00  0.00     0.321 C
HETATM   16  N3  UNL     1      -5.194  61.156  -1.173  1.00  0.00    -0.308 N
HETATM   17  O2  UNL     1      -4.724  63.367  -1.662  1.00  0.00    -0.247 OA
ATOM     18  H3  UNL     1      -4.766  60.301  -0.820  1.00  0.00     0.170 HD
ATOM     19  H4  UNL     1      -2.695  61.256  -0.457  1.00  0.00     0.165 HD
BRANCH  16  20
HETATM   20  C17 UNL     1      -6.561  61.053  -1.528  1.00  0.00     0.045 A
HETATM   21  C16 UNL     1      -7.470  62.082  -1.463  1.00  0.00     0.043 A
HETATM   22  C13 UNL     1      -8.827  61.927  -1.799  1.00  0.00     0.015 A
HETATM   23  C12 UNL     1      -9.238  60.683  -2.209  1.00  0.00     0.022 A
HETATM   24  C11 UNL     1      -8.365  59.615  -2.295  1.00  0.00    -0.019 A
HETATM   25  C10 UNL     1      -8.608  58.217  -2.695  1.00  0.00     0.312 A
HETATM   26  C28 UNL     1      -7.058  59.805  -1.960  1.00  0.00     0.005 A
HETATM   27  N2  UNL     1      -7.331  57.556  -2.526  1.00  0.00     0.101 N
HETATM   28  C29 UNL     1      -6.353  58.523  -2.166  1.00  0.00     0.315 A
BRANCH  22  29
HETATM   29  C14 UNL     1      -9.765  63.072  -1.713  1.00  0.00     0.267 C
HETATM   30  C15 UNL     1      -8.937  64.310  -1.379  1.00  0.00     0.096 C
HETATM   31  F1  UNL     1     -10.678  62.887  -0.676  1.00  0.00    -0.201 F
HETATM   32  F2  UNL     1     -10.398  63.208  -2.938  1.00  0.00    -0.201 F
ENDBRANCH  22  29
BRANCH  27  33
HETATM   33  C9  UNL     1      -6.950  56.871  -3.760  1.00  0.00     0.224 C
HETATM   34  C8  UNL     1      -6.000  55.757  -3.406  1.00  0.00     0.036 C
HETATM   35  C7  UNL     1      -5.457  55.098  -4.675  1.00  0.00     0.015 C
HETATM   36  C6  UNL     1      -6.609  54.752  -5.541  1.00  0.00     0.060 C
HETATM   37  C31 UNL     1      -7.953  54.815  -4.785  1.00  0.00     0.015 C
HETATM   38  C30 UNL     1      -8.184  56.268  -4.393  1.00  0.00     0.036 C
BRANCH  36  39
HETATM   39  C5  UNL     1      -6.547  53.581  -6.394  1.00  0.00     0.117 C
BRANCH  39  40
HETATM   40  N1  UNL     1      -5.611  52.549  -6.498  1.00  0.00    -0.366 N
BRANCH  40  41
HETATM   41  C2  UNL     1      -5.729  51.265  -5.884  1.00  0.00     0.120 C
HETATM   42  C1  UNL     1      -5.312  51.266  -4.409  1.00  0.00     0.026 C
ENDBRANCH  40  41
BRANCH  40  43
HETATM   43  C3  UNL     1      -4.405  52.804  -7.322  1.00  0.00     0.120 C
HETATM   44  C4  UNL     1      -4.466  52.017  -8.617  1.00  0.00     0.026 C
ENDBRANCH  40  43
ENDBRANCH  39  40
BRANCH  39  45
HETATM   45  O1  UNL     1      -7.561  53.444  -7.231  1.00  0.00    -0.349 OA
ATOM     46  H1  UNL     1      -8.407  53.489  -6.800  1.00  0.00     0.219 HD
ENDBRANCH  39  45
ENDBRANCH  36  39
ENDBRANCH  27  33
ENDBRANCH  16  20
ENDBRANCH   8  14
ENDBRANCH   5   8
ENDBRANCH   1   4
TORSDOF 11
ENDMDL