MODEL 3
REMARK VINA RESULT: -11.191177157      0.592      1.258
REMARK  10 active torsions:
REMARK  status: ('A' for Active; 'I' for Inactive)
REMARK    1  A    between atoms: C5_7  and  N1_8
REMARK    2  A    between atoms: N1_8  and  C6_9
REMARK    3  A    between atoms: N3_13  and  C8_15
REMARK    4  A    between atoms: C8_15  and  C9_16
REMARK    5  A    between atoms: C9_16  and  C10_17
REMARK    6  A    between atoms: C10_17  and  N4_18
REMARK    7  A    between atoms: C15_25  and  N6_26
REMARK    8  A    between atoms: N6_26  and  C16_28
REMARK    9  A    between atoms: N7_31  and  C19_32
REMARK   10  A    between atoms: C19_32  and  C20_33
ROOT
HETATM    1  C6  UNL     1      -7.551  53.822  -5.184  1.00  0.00     0.288 A
HETATM    2  N2  UNL     1      -8.880  53.517  -5.019  1.00  0.00    -0.148 N
ATOM      3  H2  UNL     1      -9.250  52.680  -5.469  1.00  0.00     0.188 HD
HETATM    4  C7  UNL     1      -9.708  54.274  -4.289  1.00  0.00     0.696 A
HETATM    5  N3  UNL     1     -10.955  54.007  -4.130  1.00  0.00    -0.225 N
ATOM      6  H3  UNL     1     -11.522  54.632  -3.557  1.00  0.00     0.177 HD
HETATM    7  N5  UNL     1      -9.187  55.393  -3.694  1.00  0.00    -0.022 N
ATOM      8  H5  UNL     1      -9.812  55.974  -3.135  1.00  0.00     0.203 HD
HETATM    9  C15 UNL     1      -7.920  55.767  -3.801  1.00  0.00     0.696 A
HETATM   10  N8  UNL     1      -7.127  54.967  -4.549  1.00  0.00    -0.148 N
ATOM     11  H8  UNL     1      -6.146  55.231  -4.650  1.00  0.00     0.188 HD
ENDROOT
BRANCH   9  12
HETATM   12  N6  UNL     1      -7.408  56.782  -3.202  1.00  0.00    -0.221 N
ATOM     13  H6  UNL     1      -6.663  56.558  -2.543  1.00  0.00     0.178 HD
BRANCH  12  14
HETATM   14  C16 UNL     1      -7.711  58.147  -3.308  1.00  0.00     0.102 C
HETATM   15  C17 UNL     1      -9.071  58.469  -2.632  1.00  0.00     0.056 C
HETATM   16  C18 UNL     1      -9.503  59.741  -3.282  1.00  0.00     0.274 C
HETATM   17  N7  UNL     1      -8.588  60.808  -3.037  1.00  0.00     0.088 N
HETATM   18  C27 UNL     1      -7.214  60.524  -3.282  1.00  0.00     0.274 C
HETATM   19  C28 UNL     1      -6.708  59.154  -2.888  1.00  0.00     0.056 C
BRANCH  17  20
HETATM   20  C19 UNL     1      -8.805  61.316  -1.686  1.00  0.00     0.277 C
BRANCH  20  21
HETATM   21  C20 UNL     1      -9.004  62.842  -1.842  1.00  0.00     0.014 C
HETATM   22  C21 UNL     1      -8.027  63.596  -0.979  1.00  0.00     0.006 C
HETATM   23  C22 UNL     1      -7.809  64.990  -1.511  1.00  0.00     0.000 C
HETATM   24  C23 UNL     1      -8.953  65.923  -1.322  1.00  0.00     0.000 C
HETATM   25  C24 UNL     1     -10.150  65.324  -0.620  1.00  0.00     0.000 C
HETATM   26  C25 UNL     1     -10.909  64.410  -1.586  1.00  0.00     0.000 C
HETATM   27  C26 UNL     1     -10.437  63.021  -1.312  1.00  0.00     0.006 C
ENDBRANCH  20  21
ENDBRANCH  17  20
ENDBRANCH  12  14
ENDBRANCH   9  12
BRANCH   1  28
HETATM   28  N1  UNL     1      -6.836  53.102  -5.817  1.00  0.00    -0.367 NA
BRANCH  28  29
HETATM   29  C5  UNL     1      -6.042  52.302  -6.520  1.00  0.00     0.157 A
HETATM   30  C4  UNL     1      -5.090  51.507  -5.885  1.00  0.00     0.076 A
HETATM   31  C3  UNL     1      -4.259  50.697  -6.645  1.00  0.00     0.030 A
HETATM   32 CL1  UNL     1      -4.868  51.444  -4.135  1.00  0.00    -0.081 Cl
HETATM   33  C2  UNL     1      -4.352  50.662  -8.008  1.00  0.00     0.046 A
HETATM   34  C1  UNL     1      -5.284  51.438  -8.637  1.00  0.00     0.141 A
HETATM   35  F1  UNL     1      -5.367  51.391  -9.993  1.00  0.00    -0.204 F
HETATM   36  C29 UNL     1      -6.136  52.262  -7.938  1.00  0.00     0.115 A
HETATM   37 CL2  UNL     1      -7.290  53.234  -8.818  1.00  0.00    -0.077 Cl
ENDBRANCH  28  29
ENDBRANCH   1  28
BRANCH   5  38
HETATM   38  C8  UNL     1     -11.571  52.874  -4.721  1.00  0.00     0.140 C
BRANCH  38  39
HETATM   39  C9  UNL     1     -11.394  52.978  -6.249  1.00  0.00     0.050 C
BRANCH  39  40
HETATM   40  C10 UNL     1     -11.224  51.570  -6.730  1.00  0.00     0.274 C
BRANCH  40  41
HETATM   41  N4  UNL     1      -9.844  51.366  -7.212  1.00  0.00     0.088 N
HETATM   42  C11 UNL     1      -9.989  50.638  -8.476  1.00  0.00     0.272 C
HETATM   43  C12 UNL     1      -8.654  49.991  -8.643  1.00  0.00     0.032 C
HETATM   44  C13 UNL     1      -8.380  49.487  -7.230  1.00  0.00     0.032 C
HETATM   45  C14 UNL     1      -9.203  50.368  -6.355  1.00  0.00     0.272 C
ENDBRANCH  40  41
ENDBRANCH  39  40
ENDBRANCH  38  39
ENDBRANCH   5  38
TORSDOF 10
ENDMDL