MODEL 4
REMARK VINA RESULT: -9.483494766      3.308      4.635
REMARK  9 active torsions:
REMARK  status: ('A' for Active; 'I' for Inactive)
REMARK       I    between atoms: C2_2  and  N1_4
REMARK    1  A    between atoms: N1_4  and  C3_6
REMARK    2  A    between atoms: C3_6  and  C4_7
REMARK    3  A    between atoms: C5_13  and  O4_14
REMARK    4  A    between atoms: C6_16  and  O5_17
REMARK    5  A    between atoms: C6_16  and  C7_19
REMARK    6  A    between atoms: N3_21  and  C9_22
REMARK    7  A    between atoms: C9_22  and  C11_24
REMARK       I    between atoms: C11_24  and  N4_26
REMARK    8  A    between atoms: N4_26  and  C12_28
REMARK    9  A    between atoms: C13_32  and  O7_33
ROOT
HETATM    1  C7  UNL     1     -17.766  19.205 -17.202  1.00  0.00     0.110 A
HETATM    2  C8  UNL     1     -17.655  19.660 -15.905  1.00  0.00     0.144 A
HETATM    3  N3  UNL     1     -16.356  19.950 -15.637  1.00  0.00    -0.274 N
HETATM    4  N6  UNL     1     -15.681  19.687 -16.731  1.00  0.00    -0.240 N
ATOM      5  H6  UNL     1     -14.674  19.805 -16.845  1.00  0.00     0.208 HD
HETATM    6  N7  UNL     1     -16.525  19.237 -17.679  1.00  0.00    -0.283 N
ATOM      7  H7  UNL     1     -16.253  18.963 -18.623  1.00  0.00     0.188 HD
ENDROOT
BRANCH   1   8
HETATM    8  C6  UNL     1     -19.060  18.800 -17.837  1.00  0.00     0.266 C
HETATM    9  C5  UNL     1     -19.103  17.292 -17.985  1.00  0.00     0.395 C
HETATM   10  N2  UNL     1     -20.500  17.015 -18.067  1.00  0.00     0.019 N
HETATM   11  C3  UNL     1     -21.135  18.122 -17.383  1.00  0.00     0.404 C
ATOM     12  H22 UNL     1     -20.763  16.098 -17.706  1.00  0.00     0.287 HD
ATOM     13  H21 UNL     1     -20.838  16.865 -19.017  1.00  0.00     0.287 HD
HETATM   14  O9  UNL     1     -20.146  19.024 -17.007  1.00  0.00    -0.282 OA
BRANCH   9  15
HETATM   15  O4  UNL     1     -18.391  16.966 -19.124  1.00  0.00    -0.365 OA
ATOM     16  H4  UNL     1     -18.909  16.961 -19.920  1.00  0.00     0.212 HD
ENDBRANCH   9  15
BRANCH  11  17
HETATM   17  N1  UNL     1     -22.104  18.692 -18.284  1.00  0.00    -0.297 N
HETATM   18  C2  UNL     1     -22.955  19.788 -18.005  1.00  0.00     0.217 C
HETATM   19  C1  UNL     1     -23.907  20.201 -19.087  1.00  0.00     0.117 C
HETATM   20  O1  UNL     1     -22.953  20.406 -16.930  1.00  0.00    -0.274 OA
ATOM     21  H1  UNL     1     -22.185  18.266 -19.207  1.00  0.00     0.167 HD
ENDBRANCH  11  17
BRANCH  11  22
HETATM   22  C4  UNL     1     -21.836  17.542 -16.209  1.00  0.00     0.263 C
HETATM   23  O2  UNL     1     -22.693  16.645 -16.326  1.00  0.00    -0.643 OA
HETATM   24  O3  UNL     1     -21.467  18.072 -14.975  1.00  0.00    -0.643 OA
ENDBRANCH  11  22
BRANCH   8  25
HETATM   25  O5  UNL     1     -19.179  19.421 -19.058  1.00  0.00    -0.357 OA
ATOM     26  H5  UNL     1     -18.573  19.052 -19.690  1.00  0.00     0.213 HD
ENDBRANCH   8  25
ENDBRANCH   1   8
BRANCH   3  27
HETATM   27  C9  UNL     1     -15.846  20.435 -14.352  1.00  0.00     0.196 C
HETATM   28  C10 UNL     1     -17.063  20.949 -13.590  1.00  0.00     0.044 C
BRANCH  27  29
HETATM   29  C11 UNL     1     -15.156  19.439 -13.557  1.00  0.00     0.245 C
HETATM   30  O6  UNL     1     -14.256  18.723 -14.063  1.00  0.00    -0.271 OA
HETATM   31  N4  UNL     1     -15.463  19.251 -12.198  1.00  0.00    -0.310 N
ATOM     32  H4  UNL     1     -16.198  19.838 -11.804  1.00  0.00     0.166 HD
BRANCH  31  33
HETATM   33  C12 UNL     1     -14.831  18.302 -11.309  1.00  0.00     0.440 C
HETATM   34  N5  UNL     1     -15.153  16.897 -11.650  1.00  0.00     0.020 N
HETATM   35  C13 UNL     1     -15.218  16.728 -10.204  1.00  0.00     0.475 C
ATOM     36  H52 UNL     1     -15.920  16.642 -12.272  1.00  0.00     0.288 HD
ATOM     37  H51 UNL     1     -14.556  16.323 -12.247  1.00  0.00     0.288 HD
HETATM   38  O8  UNL     1     -15.539  18.091 -10.121  1.00  0.00    -0.289 OA
BRANCH  35  39
HETATM   39  O7  UNL     1     -13.997  16.416  -9.600  1.00  0.00    -0.349 OA
ATOM     40  H7  UNL     1     -13.311  17.057  -9.742  1.00  0.00     0.214 HD
ENDBRANCH  35  39
ENDBRANCH  31  33
ENDBRANCH  27  29
ENDBRANCH   3  27
TORSDOF 9
ENDMDL