MODEL 5
REMARK VINA RESULT: -8.635485198      2.455      3.931
REMARK  9 active torsions:
REMARK  status: ('A' for Active; 'I' for Inactive)
REMARK    1  A    between atoms: N1_1  and  C1_4
REMARK    2  A    between atoms: N4_13  and  C5_14
REMARK    3  A    between atoms: C5_14  and  C6_15
REMARK    4  A    between atoms: N6_20  and  C8_21
REMARK    5  A    between atoms: C10_23  and  N7_24
REMARK    6  A    between atoms: C11_31  and  C12_32
REMARK    7  A    between atoms: C11_31  and  O5_35
REMARK    8  A    between atoms: C12_32  and  O4_33
REMARK    9  A    between atoms: O5_35  and  C13_36
ROOT
HETATM    1  C1  UNL     1     -20.671  19.997 -15.421  1.00  0.00     0.680 A
HETATM    2  N2  UNL     1     -20.117  20.334 -14.235  1.00  0.00    -0.154 N
ATOM      3  H2  UNL     1     -20.693  20.621 -13.443  1.00  0.00     0.187 HD
HETATM    4  C2  UNL     1     -18.767  20.275 -14.142  1.00  0.00     0.290 A
HETATM    5  O1  UNL     1     -18.220  20.581 -13.059  1.00  0.00    -0.265 OA
HETATM    6  C3  UNL     1     -17.960  19.891 -15.192  1.00  0.00     0.155 A
HETATM    7  C4  UNL     1     -18.550  19.555 -16.381  1.00  0.00     0.160 A
HETATM    8  N3  UNL     1     -19.908  19.617 -16.462  1.00  0.00    -0.174 N
ATOM      9  H3  UNL     1     -20.361  19.369 -17.342  1.00  0.00     0.186 HD
HETATM   10  N4  UNL     1     -17.601  19.216 -17.256  1.00  0.00    -0.274 N
HETATM   11  C7  UNL     1     -16.439  19.343 -16.611  1.00  0.00     0.333 A
HETATM   12  O3  UNL     1     -15.305  19.111 -17.110  1.00  0.00    -0.246 OA
HETATM   13  N6  UNL     1     -16.645  19.756 -15.347  1.00  0.00    -0.263 N
ENDROOT
BRANCH  13  14
HETATM   14  C8  UNL     1     -15.640  20.000 -14.365  1.00  0.00     0.242 C
HETATM   15  C9  UNL     1     -14.468  20.808 -14.926  1.00  0.00     0.117 C
HETATM   16  C10 UNL     1     -13.283  20.517 -14.055  1.00  0.00     0.391 C
HETATM   17  N8  UNL     1     -13.658  20.162 -12.733  1.00  0.00     0.014 N
HETATM   18  C11 UNL     1     -14.564  18.988 -12.683  1.00  0.00     0.371 C
ATOM     19  H82 UNL     1     -12.836  20.012 -12.149  1.00  0.00     0.286 HD
ATOM     20  H81 UNL     1     -14.067  20.959 -12.244  1.00  0.00     0.286 HD
HETATM   21  O7  UNL     1     -15.053  18.773 -13.963  1.00  0.00    -0.305 OA
BRANCH  16  22
HETATM   22  N7  UNL     1     -12.336  19.621 -14.686  1.00  0.00    -0.050 N
ATOM     23  H73 UNL     1     -12.802  18.784 -15.039  1.00  0.00     0.276 HD
ATOM     24  H72 UNL     1     -11.999  20.006 -15.568  1.00  0.00     0.276 HD
ATOM     25  H71 UNL     1     -11.559  19.376 -14.072  1.00  0.00     0.276 HD
ENDBRANCH  16  22
BRANCH  18  26
HETATM   26  C12 UNL     1     -13.673  17.873 -12.212  1.00  0.00     0.266 C
BRANCH  26  27
HETATM   27  O4  UNL     1     -13.040  17.159 -13.211  1.00  0.00    -0.394 OA
ATOM     28  H4  UNL     1     -12.106  17.034 -13.093  1.00  0.00     0.209 HD
ENDBRANCH  26  27
ENDBRANCH  18  26
BRANCH  18  29
HETATM   29  O5  UNL     1     -15.584  19.389 -11.853  1.00  0.00    -0.241 OA
BRANCH  29  30
HETATM   30  C13 UNL     1     -15.587  20.276 -10.835  1.00  0.00     0.376 C
HETATM   31  N9  UNL     1     -15.663  19.945  -9.454  1.00  0.00    -0.032 NA
HETATM   32  O6  UNL     1     -15.519  21.488 -11.117  1.00  0.00    -0.242 OA
ENDBRANCH  29  30
ENDBRANCH  18  29
ENDBRANCH  13  14
BRANCH  10  33
HETATM   33  C5  UNL     1     -17.821  18.797 -18.625  1.00  0.00     0.235 C
BRANCH  33  34
HETATM   34  C6  UNL     1     -18.542  17.499 -18.690  1.00  0.00     0.249 C
HETATM   35  N5  UNL     1     -19.867  17.481 -19.177  1.00  0.00    -0.061 NA
HETATM   36  O2  UNL     1     -17.978  16.450 -18.320  1.00  0.00    -0.275 OA
ENDBRANCH  33  34
ENDBRANCH  10  33
BRANCH   1  37
HETATM   37  N1  UNL     1     -21.955  20.055 -15.505  1.00  0.00    -0.234 N
ATOM     38  H12 UNL     1     -22.557  19.784 -14.727  1.00  0.00     0.174 HD
ATOM     39  H11 UNL     1     -22.347  20.385 -16.387  1.00  0.00     0.174 HD
ENDBRANCH   1  37
TORSDOF 9
ENDMDL