MODEL 4
REMARK VINA RESULT: -9.327320543      2.090      3.278
REMARK  12 active torsions:
REMARK  status: ('A' for Active; 'I' for Inactive)
REMARK    1  A    between atoms: N1_1  and  C1_4
REMARK    2  A    between atoms: N6_15  and  C4_16
REMARK    3  A    between atoms: C4_16  and  C5_17
REMARK    4  A    between atoms: C6_18  and  O1_19
REMARK    5  A    between atoms: C7_21  and  O2_22
REMARK    6  A    between atoms: N7_25  and  C9_26
REMARK    7  A    between atoms: C10_29  and  N9_30
REMARK    8  A    between atoms: N9_30  and  C11_32
REMARK    9  A    between atoms: C11_32  and  C12_33
REMARK   10  A    between atoms: C12_33  and  O3_34
REMARK   11  A    between atoms: C13_38  and  N11_39
REMARK   12  A    between atoms: N11_39  and  N12_41
ROOT
HETATM    1  C5  UNL     1     -13.655  20.859 -12.237  1.00  0.00     0.153 C
HETATM    2  C6  UNL     1     -14.942  21.376 -11.685  1.00  0.00     0.173 C
HETATM    3  C7  UNL     1     -15.131  22.611 -12.626  1.00  0.00     0.167 C
HETATM    4  C8  UNL     1     -14.745  22.021 -13.954  1.00  0.00     0.176 C
HETATM    5  N7  UNL     1     -13.979  20.788 -13.651  1.00  0.00    -0.205 N
ENDROOT
BRANCH   5   6
HETATM    6  C9  UNL     1     -13.693  19.809 -14.611  1.00  0.00     0.710 A
HETATM    7  N8  UNL     1     -12.505  19.640 -15.222  1.00  0.00    -0.021 N
HETATM    8  C10 UNL     1     -12.242  18.703 -16.143  1.00  0.00     0.707 A
ATOM      9  H8  UNL     1     -11.748  20.273 -14.964  1.00  0.00     0.203 HD
HETATM   10  N10 UNL     1     -13.228  17.883 -16.477  1.00  0.00    -0.020 N
HETATM   11  C13 UNL     1     -14.469  17.981 -15.909  1.00  0.00     0.725 A
ATOM     12  H10 UNL     1     -13.057  17.160 -17.176  1.00  0.00     0.203 HD
HETATM   13  N13 UNL     1     -14.675  18.932 -14.998  1.00  0.00    -0.020 N
ATOM     14  H13 UNL     1     -15.599  19.010 -14.571  1.00  0.00     0.203 HD
BRANCH   8  15
HETATM   15  N9  UNL     1     -11.053  18.678 -16.626  1.00  0.00    -0.223 N
ATOM     16  H9  UNL     1     -10.902  18.098 -17.451  1.00  0.00     0.177 HD
BRANCH  15  17
HETATM   17  C11 UNL     1      -9.925  19.384 -16.121  1.00  0.00     0.164 C
BRANCH  17  18
HETATM   18  C12 UNL     1      -9.194  20.088 -17.254  1.00  0.00     0.184 C
BRANCH  18  19
HETATM   19  O3  UNL     1      -9.109  19.188 -18.328  1.00  0.00    -0.399 OA
ATOM     20  H3  UNL     1      -9.989  19.055 -18.659  1.00  0.00     0.209 HD
ENDBRANCH  18  19
ENDBRANCH  17  18
ENDBRANCH  15  17
ENDBRANCH   8  15
BRANCH  11  21
HETATM   21  N11 UNL     1     -15.384  17.177 -16.263  1.00  0.00    -0.138 N
ATOM     22  H11 UNL     1     -15.170  16.180 -16.296  1.00  0.00     0.205 HD
BRANCH  21  23
HETATM   23  N12 UNL     1     -16.646  17.588 -16.604  1.00  0.00    -0.331 N
ATOM     24 2H12 UNL     1     -16.789  17.933 -17.553  1.00  0.00     0.177 HD
ATOM     25 1H12 UNL     1     -17.432  17.562 -15.954  1.00  0.00     0.177 HD
ENDBRANCH  21  23
ENDBRANCH  11  21
ENDBRANCH   5   6
BRANCH   1  26
HETATM   26  C4  UNL     1     -13.063  19.637 -11.642  1.00  0.00     0.179 C
BRANCH  26  27
HETATM   27  N6  UNL     1     -13.160  19.696 -10.230  1.00  0.00    -0.269 N
HETATM   28  N5  UNL     1     -12.315  20.494  -9.538  1.00  0.00    -0.238 N
HETATM   29  N4  UNL     1     -12.617  20.481  -8.280  1.00  0.00    -0.269 N
ATOM     30  H5  UNL     1     -11.550  21.029  -9.949  1.00  0.00     0.208 HD
HETATM   31  C3  UNL     1     -13.688  19.662  -8.077  1.00  0.00     0.154 A
ATOM     32  H4  UNL     1     -12.129  21.002  -7.552  1.00  0.00     0.190 HD
HETATM   33  N3  UNL     1     -14.375  19.286  -6.999  1.00  0.00    -0.335 N
HETATM   34  C14 UNL     1     -13.991  19.186  -9.362  1.00  0.00     0.141 A
HETATM   35  C2  UNL     1     -15.387  18.422  -7.162  1.00  0.00     0.183 A
ATOM     36  H3  UNL     1     -14.137  19.646  -6.075  1.00  0.00     0.168 HD
HETATM   37  N2  UNL     1     -15.711  17.940  -8.359  1.00  0.00    -0.337 N
HETATM   38  C1  UNL     1     -15.026  18.309  -9.470  1.00  0.00     0.132 A
ATOM     39  H2  UNL     1     -16.487  17.283  -8.443  1.00  0.00     0.168 HD
BRANCH  38  40
HETATM   40  N1  UNL     1     -15.324  17.801 -10.593  1.00  0.00    -0.383 N
ATOM     41  H12 UNL     1     -16.187  18.066 -11.068  1.00  0.00     0.157 HD
ATOM     42  H11 UNL     1     -14.680  17.151 -11.042  1.00  0.00     0.157 HD
ENDBRANCH  38  40
ENDBRANCH  26  27
ENDBRANCH   1  26
BRANCH   2  43
HETATM   43  O1  UNL     1     -16.059  20.599 -11.977  1.00  0.00    -0.391 OA
ATOM     44  H1  UNL     1     -16.586  20.357 -11.224  1.00  0.00     0.210 HD
ENDBRANCH   2  43
BRANCH   3  45
HETATM   45  O2  UNL     1     -14.209  23.539 -12.145  1.00  0.00    -0.391 OA
ATOM     46  H2  UNL     1     -13.530  23.548 -12.809  1.00  0.00     0.210 HD
ENDBRANCH   3  45
TORSDOF 12
ENDMDL