MODEL 1
REMARK VINA RESULT: -9.478538158      0.000      0.000
REMARK  11 active torsions:
REMARK  status: ('A' for Active; 'I' for Inactive)
REMARK    1  A    between atoms: C3_8  and  C4_9
REMARK    2  A    between atoms: C6_13  and  N5_14
REMARK    3  A    between atoms: N5_14  and  C7_16
REMARK    4  A    between atoms: C7_16  and  C8_17
REMARK    5  A    between atoms: C8_17  and  O1_18
REMARK    6  A    between atoms: C8_17  and  C9_20
REMARK    7  A    between atoms: C8_17  and  C10_23
REMARK    8  A    between atoms: C9_20  and  O2_21
REMARK    9  A    between atoms: C10_23  and  O3_24
REMARK   10  A    between atoms: C13_35  and  N8_36
REMARK   11  A    between atoms: N8_36  and  N9_38
ROOT
HETATM    1  N1  UNL     1     -12.859  18.117  -8.638  1.00  0.00    -0.190 NA
HETATM    2  C1  UNL     1     -13.069  18.103  -9.774  1.00  0.00     0.123 C
HETATM    3  C2  UNL     1     -13.302  18.097 -11.191  1.00  0.00     0.174 A
HETATM    4  N2  UNL     1     -12.319  18.527 -12.031  1.00  0.00    -0.286 N
ATOM      5  H2  UNL     1     -11.437  18.843 -11.628  1.00  0.00     0.188 HD
HETATM    6  N3  UNL     1     -12.460  18.551 -13.345  1.00  0.00    -0.287 N
ATOM      7  H3  UNL     1     -11.693  18.883 -13.929  1.00  0.00     0.188 HD
HETATM    8  C3  UNL     1     -13.599  18.144 -13.915  1.00  0.00     0.118 A
HETATM    9  N7  UNL     1     -14.584  17.716 -13.114  1.00  0.00    -0.326 N
ATOM     10  H7  UNL     1     -15.455  17.406 -13.544  1.00  0.00     0.169 HD
HETATM   11  C13 UNL     1     -14.484  17.674 -11.754  1.00  0.00     0.160 A
ENDROOT
BRANCH  11  12
HETATM   12  N8  UNL     1     -15.465  17.253 -11.050  1.00  0.00    -0.290 N
ATOM     13  H8  UNL     1     -16.040  17.976 -10.616  1.00  0.00     0.188 HD
BRANCH  12  14
HETATM   14  N9  UNL     1     -15.844  15.975 -10.802  1.00  0.00    -0.344 N
ATOM     15  H92 UNL     1     -15.328  15.272 -11.331  1.00  0.00     0.176 HD
ATOM     16  H91 UNL     1     -16.566  15.636 -10.166  1.00  0.00     0.176 HD
ENDBRANCH  12  14
ENDBRANCH  11  12
BRANCH   8  17
HETATM   17  C4  UNL     1     -13.805  18.150 -15.363  1.00  0.00     0.202 C
HETATM   18  C5  UNL     1     -14.573  19.299 -15.884  1.00  0.00     0.134 C
HETATM   19  N4  UNL     1     -15.798  18.921 -16.579  1.00  0.00    -0.354 N
HETATM   20  C11 UNL     1     -13.814  20.092 -16.846  1.00  0.00     0.122 C
HETATM   21  C6  UNL     1     -15.945  19.631 -17.643  1.00  0.00     0.172 C
ATOM     22  H4  UNL     1     -16.446  18.198 -16.265  1.00  0.00     0.163 HD
HETATM   23  N6  UNL     1     -14.852  20.552 -17.782  1.00  0.00    -0.355 N
ATOM     24  H6  UNL     1     -14.804  21.361 -18.402  1.00  0.00     0.163 HD
HETATM   25  C12 UNL     1     -12.800  19.276 -17.557  1.00  0.00     0.168 C
HETATM   26  S1  UNL     1     -12.240  18.204 -16.251  1.00  0.00     0.159 S
HETATM   27  O4  UNL     1     -11.194  18.907 -15.457  1.00  0.00    -0.227 OA
HETATM   28  O5  UNL     1     -11.833  16.871 -16.734  1.00  0.00    -0.227 OA
BRANCH  21  29
HETATM   29  N5  UNL     1     -17.021  19.537 -18.561  1.00  0.00    -0.359 N
ATOM     30  H5  UNL     1     -16.859  19.704 -19.555  1.00  0.00     0.162 HD
BRANCH  29  31
HETATM   31  C7  UNL     1     -18.338  19.206 -18.094  1.00  0.00     0.165 C
BRANCH  31  32
HETATM   32  C8  UNL     1     -18.958  18.065 -18.840  1.00  0.00     0.116 C
BRANCH  32  33
HETATM   33  O1  UNL     1     -18.174  17.828 -19.968  1.00  0.00    -0.384 OA
ATOM     34  H1  UNL     1     -18.647  17.217 -20.520  1.00  0.00     0.210 HD
ENDBRANCH  32  33
BRANCH  32  35
HETATM   35  C9  UNL     1     -20.346  18.400 -19.339  1.00  0.00     0.205 C
BRANCH  35  36
HETATM   36  O2  UNL     1     -20.408  18.490 -20.723  1.00  0.00    -0.398 OA
ATOM     37  H2  UNL     1     -21.232  18.175 -21.073  1.00  0.00     0.209 HD
ENDBRANCH  35  36
ENDBRANCH  32  35
BRANCH  32  38
HETATM   38  C10 UNL     1     -18.971  16.807 -17.998  1.00  0.00     0.205 C
BRANCH  38  39
HETATM   39  O3  UNL     1     -18.020  16.903 -16.966  1.00  0.00    -0.398 OA
ATOM     40  H3  UNL     1     -17.468  16.129 -16.954  1.00  0.00     0.209 HD
ENDBRANCH  38  39
ENDBRANCH  32  38
ENDBRANCH  31  32
ENDBRANCH  29  31
ENDBRANCH  21  29
ENDBRANCH   8  17
TORSDOF 11
ENDMDL