MODEL 3
REMARK VINA RESULT: -9.221739759      4.466      8.842
REMARK  9 active torsions:
REMARK  status: ('A' for Active; 'I' for Inactive)
REMARK    1  A    between atoms: N1_1  and  C1_4
REMARK    2  A    between atoms: N4_13  and  C5_14
REMARK    3  A    between atoms: C6_16  and  C7_17
REMARK    4  A    between atoms: C7_17  and  O3_18
REMARK    5  A    between atoms: O3_18  and  S1_19
REMARK    6  A    between atoms: C8_23  and  C9_24
REMARK       I    between atoms: C9_24  and  N5_26
REMARK    7  A    between atoms: N5_26  and  N6_28
REMARK    8  A    between atoms: C10_31  and  O8_32
REMARK    9  A    between atoms: C10_31  and  O9_34
ROOT
HETATM    1  C5  UNL     1     -15.935  19.826 -13.734  1.00  0.00     0.294 C
HETATM    2  O2  UNL     1     -17.003  18.998 -13.847  1.00  0.00    -0.352 OA
HETATM    3  C6  UNL     1     -17.670  19.389 -14.994  1.00  0.00     0.168 C
HETATM    4  C8  UNL     1     -16.668  20.053 -15.904  1.00  0.00     0.177 C
HETATM    5  C10 UNL     1     -15.375  19.789 -15.164  1.00  0.00     0.220 C
ENDROOT
BRANCH   1   6
HETATM    6  N4  UNL     1     -14.970  19.554 -12.729  1.00  0.00    -0.294 N
HETATM    7  C4  UNL     1     -14.839  18.318 -12.179  1.00  0.00     0.188 A
HETATM    8  N3  UNL     1     -13.858  18.365 -11.270  1.00  0.00    -0.345 N
HETATM    9  C3  UNL     1     -13.363  19.610 -11.233  1.00  0.00     0.147 A
ATOM     10  H3  UNL     1     -13.538  17.582 -10.699  1.00  0.00     0.167 HD
HETATM   11  C2  UNL     1     -12.343  20.152 -10.460  1.00  0.00     0.290 A
HETATM   12  C11 UNL     1     -14.072  20.357 -12.161  1.00  0.00     0.159 A
HETATM   13  N2  UNL     1     -12.089  21.457 -10.672  1.00  0.00    -0.154 N
HETATM   14  O1  UNL     1     -11.732  19.440  -9.638  1.00  0.00    -0.265 OA
HETATM   15  C1  UNL     1     -12.771  22.189 -11.567  1.00  0.00     0.680 A
ATOM     16  H2  UNL     1     -11.350  21.907 -10.132  1.00  0.00     0.187 HD
HETATM   17  N7  UNL     1     -13.767  21.663 -12.324  1.00  0.00    -0.174 N
ATOM     18  H7  UNL     1     -14.272  22.238 -12.998  1.00  0.00     0.186 HD
BRANCH  15  19
HETATM   19  N1  UNL     1     -12.467  23.427 -11.708  1.00  0.00    -0.234 N
ATOM     20  H12 UNL     1     -13.085  24.031 -12.248  1.00  0.00     0.174 HD
ATOM     21  H11 UNL     1     -11.610  23.771 -11.275  1.00  0.00     0.174 HD
ENDBRANCH  15  19
ENDBRANCH   1   6
BRANCH   5  22
HETATM   22  O8  UNL     1     -14.448  20.803 -15.356  1.00  0.00    -0.361 OA
ATOM     23  H8  UNL     1     -14.818  21.502 -15.882  1.00  0.00     0.213 HD
ENDBRANCH   5  22
BRANCH   5  24
HETATM   24  O9  UNL     1     -14.882  18.537 -15.401  1.00  0.00    -0.361 OA
ATOM     25  H9  UNL     1     -13.995  18.621 -15.730  1.00  0.00     0.213 HD
ENDBRANCH   5  24
BRANCH   3  26
HETATM   26  C7  UNL     1     -18.769  20.367 -14.582  1.00  0.00     0.226 C
BRANCH  26  27
HETATM   27  O3  UNL     1     -19.678  20.388 -15.642  1.00  0.00    -0.254 OA
BRANCH  27  28
HETATM   28  S1  UNL     1     -20.934  19.321 -15.442  1.00  0.00     0.251 S
HETATM   29  O4  UNL     1     -20.991  18.745 -14.052  1.00  0.00    -0.572 OA
HETATM   30  O5  UNL     1     -22.268  19.956 -15.714  1.00  0.00    -0.572 OA
HETATM   31  O6  UNL     1     -20.689  18.038 -16.515  1.00  0.00    -0.572 OA
ENDBRANCH  27  28
ENDBRANCH  26  27
ENDBRANCH   3  26
BRANCH   4  32
HETATM   32  C9  UNL     1     -16.694  19.587 -17.288  1.00  0.00     0.247 C
HETATM   33  O7  UNL     1     -15.666  19.826 -17.998  1.00  0.00    -0.271 OA
HETATM   34  N5  UNL     1     -17.751  18.900 -17.905  1.00  0.00    -0.276 N
ATOM     35  H5  UNL     1     -18.596  18.689 -17.373  1.00  0.00     0.189 HD
BRANCH  34  36
HETATM   36  N6  UNL     1     -17.658  18.504 -19.231  1.00  0.00    -0.343 N
ATOM     37  H62 UNL     1     -16.733  18.428 -19.655  1.00  0.00     0.176 HD
ATOM     38  H61 UNL     1     -18.497  18.295 -19.771  1.00  0.00     0.176 HD
ENDBRANCH  34  36
ENDBRANCH   4  32
TORSDOF 9
ENDMDL