MODEL 4
REMARK VINA RESULT: -9.603424336      3.834      5.392
REMARK  10 active torsions:
REMARK  status: ('A' for Active; 'I' for Inactive)
REMARK    1  A    between atoms: N1_1  and  N2_4
REMARK       I    between atoms: N2_4  and  C1_6
REMARK    2  A    between atoms: N4_8  and  N5_10
REMARK    3  A    between atoms: C3_13  and  C4_14
REMARK    4  A    between atoms: C5_19  and  N7_20
REMARK    5  A    between atoms: N7_20  and  N8_21
REMARK    6  A    between atoms: C6_24  and  O3_25
REMARK    7  A    between atoms: O3_25  and  C7_26
REMARK    8  A    between atoms: C10_31  and  C11_32
REMARK    9  A    between atoms: C11_32  and  N9_33
REMARK   10  A    between atoms: C14_40  and  O7_41
ROOT
HETATM    1  N5  UNL     1     -21.639  19.437 -17.229  1.00  0.00    -0.301 N
ATOM      2  H5  UNL     1     -22.128  19.278 -18.109  1.00  0.00     0.186 HD
HETATM    3  C2  UNL     1     -20.354  19.560 -17.240  1.00  0.00     0.068 C
HETATM    4  C3  UNL     1     -19.666  19.464 -18.531  1.00  0.00     0.230 C
HETATM    5  N6  UNL     1     -18.289  19.118 -18.485  1.00  0.00    -0.383 N
ATOM      6  H6  UNL     1     -17.723  19.062 -19.332  1.00  0.00     0.156 HD
HETATM    7  C5  UNL     1     -17.736  18.854 -17.199  1.00  0.00     0.225 C
HETATM    8  C6  UNL     1     -18.161  19.842 -16.132  1.00  0.00     0.203 C
HETATM    9  C14 UNL     1     -19.664  19.792 -15.934  1.00  0.00     0.200 C
ENDROOT
BRANCH   8  10
HETATM   10  O3  UNL     1     -17.569  19.498 -14.935  1.00  0.00    -0.335 OA
BRANCH  10  11
HETATM   11  C7  UNL     1     -16.518  20.059 -14.271  1.00  0.00     0.125 C
HETATM   12  C8  UNL     1     -15.264  19.641 -14.642  1.00  0.00     0.123 C
HETATM   13  C9  UNL     1     -14.048  20.339 -14.591  1.00  0.00     0.290 C
HETATM   14  O4  UNL     1     -13.132  19.888 -15.321  1.00  0.00    -0.260 OA
HETATM   15  O5  UNL     1     -13.767  21.384 -13.884  1.00  0.00    -0.278 OA
HETATM   16  C10 UNL     1     -14.539  22.042 -13.054  1.00  0.00     0.086 C
HETATM   17  C12 UNL     1     -15.881  21.938 -12.735  1.00  0.00     0.092 C
HETATM   18  C13 UNL     1     -16.767  20.998 -13.282  1.00  0.00     0.207 C
HETATM   19  O6  UNL     1     -17.926  20.987 -12.841  1.00  0.00    -0.285 OA
BRANCH  16  20
HETATM   20  C11 UNL     1     -13.814  23.116 -12.314  1.00  0.00     0.294 C
BRANCH  20  21
HETATM   21  N9  UNL     1     -12.504  22.727 -11.893  1.00  0.00    -0.074 N
ATOM     22  H93 UNL     1     -12.456  21.720 -11.744  1.00  0.00     0.274 HD
ATOM     23  H92 UNL     1     -11.836  22.816 -12.658  1.00  0.00     0.274 HD
ATOM     24  H91 UNL     1     -12.179  23.231 -11.067  1.00  0.00     0.274 HD
ENDBRANCH  20  21
ENDBRANCH  16  20
ENDBRANCH  10  11
ENDBRANCH   8  10
BRANCH   7  25
HETATM   25  N7  UNL     1     -18.002  17.480 -16.763  1.00  0.00    -0.120 NA
BRANCH  25  26
HETATM   26  N8  UNL     1     -17.875  16.579 -17.799  1.00  0.00    -0.346 N
ATOM     27  H82 UNL     1     -17.070  15.962 -17.907  1.00  0.00     0.172 HD
ATOM     28  H81 UNL     1     -18.675  16.612 -18.430  1.00  0.00     0.172 HD
ENDBRANCH  25  26
ENDBRANCH   7  25
BRANCH   9  29
HETATM   29  O7  UNL     1     -20.023  18.845 -14.998  1.00  0.00    -0.387 OA
ATOM     30  H7  UNL     1     -19.338  18.199 -14.877  1.00  0.00     0.210 HD
ENDBRANCH   9  29
BRANCH   4  31
HETATM   31  C4  UNL     1     -20.418  18.558 -19.465  1.00  0.00     0.202 C
HETATM   32  O1  UNL     1     -21.069  19.067 -20.407  1.00  0.00    -0.646 OA
HETATM   33  O2  UNL     1     -20.426  17.196 -19.336  1.00  0.00    -0.646 OA
ENDBRANCH   4  31
BRANCH   1  34
HETATM   34  N4  UNL     1     -22.375  19.514 -16.053  1.00  0.00    -0.272 N
HETATM   35  C1  UNL     1     -23.118  18.570 -15.612  1.00  0.00     0.221 C
HETATM   36  N2  UNL     1     -23.206  17.371 -16.358  1.00  0.00    -0.279 N
HETATM   37  N3  UNL     1     -23.850  18.697 -14.406  1.00  0.00    -0.061 NA
ATOM     38  H2  UNL     1     -24.112  17.006 -16.651  1.00  0.00     0.189 HD
ATOM     39  H4  UNL     1     -22.319  20.374 -15.509  1.00  0.00     0.189 HD
BRANCH  36  40
HETATM   40  N1  UNL     1     -22.029  16.699 -16.685  1.00  0.00    -0.343 N
ATOM     41  H12 UNL     1     -21.247  16.701 -16.030  1.00  0.00     0.176 HD
ATOM     42  H11 UNL     1     -21.975  16.215 -17.582  1.00  0.00     0.176 HD
ENDBRANCH  36  40
ENDBRANCH   1  34
TORSDOF 10
ENDMDL