MODEL 1
REMARK VINA RESULT: -9.414226263      0.000      0.000
REMARK  11 active torsions:
REMARK  status: ('A' for Active; 'I' for Inactive)
REMARK    1  A    between atoms: N1_1  and  C1_4
REMARK    2  A    between atoms: N6_15  and  C5_16
REMARK    3  A    between atoms: C6_18  and  N7_19
REMARK       I    between atoms: N7_19  and  C7_21
REMARK    4  A    between atoms: C7_21  and  C8_23
REMARK    5  A    between atoms: C8_23  and  N8_24
REMARK    6  A    between atoms: C8_23  and  C9_28
REMARK    7  A    between atoms: C9_28  and  N9_29
REMARK    8  A    between atoms: C9_28  and  S1_33
REMARK    9  A    between atoms: S1_33  and  N10_34
REMARK   10  A    between atoms: C10_39  and  O5_40
REMARK   11  A    between atoms: C11_42  and  O6_43
ROOT
HETATM    1  C5  UNL     1     -19.087  19.008 -18.147  1.00  0.00     0.278 C
HETATM    2  O1  UNL     1     -20.347  18.989 -17.557  1.00  0.00    -0.335 OA
HETATM    3  C6  UNL     1     -20.552  17.632 -17.342  1.00  0.00     0.257 C
HETATM    4  C10 UNL     1     -20.285  17.056 -18.690  1.00  0.00     0.200 C
HETATM    5  C11 UNL     1     -18.985  17.798 -19.048  1.00  0.00     0.201 C
ENDROOT
BRANCH   3   6
HETATM    6  N7  UNL     1     -21.857  17.350 -16.793  1.00  0.00    -0.330 N
HETATM    7  C7  UNL     1     -22.251  17.687 -15.489  1.00  0.00     0.253 C
HETATM    8  O2  UNL     1     -21.397  18.285 -14.742  1.00  0.00    -0.271 OA
ATOM      9  H7  UNL     1     -22.535  16.877 -17.390  1.00  0.00     0.165 HD
BRANCH   7  10
HETATM   10  C8  UNL     1     -23.573  17.409 -14.919  1.00  0.00     0.321 C
BRANCH  10  11
HETATM   11  N8  UNL     1     -24.552  17.735 -16.002  1.00  0.00    -0.063 N
ATOM     12  H83 UNL     1     -25.465  17.298 -15.875  1.00  0.00     0.275 HD
ATOM     13  H82 UNL     1     -24.878  18.701 -15.984  1.00  0.00     0.275 HD
ATOM     14  H81 UNL     1     -24.090  17.473 -16.873  1.00  0.00     0.275 HD
ENDBRANCH  10  11
BRANCH  10  15
HETATM   15  C9  UNL     1     -23.970  18.275 -13.750  1.00  0.00     0.364 C
BRANCH  15  16
HETATM   16  N9  UNL     1     -24.298  19.589 -14.357  1.00  0.00    -0.057 N
ATOM     17  H93 UNL     1     -23.795  20.376 -13.946  1.00  0.00     0.276 HD
ATOM     18  H92 UNL     1     -23.941  19.711 -15.305  1.00  0.00     0.276 HD
ATOM     19  H91 UNL     1     -25.313  19.658 -14.281  1.00  0.00     0.276 HD
ENDBRANCH  15  16
BRANCH  15  20
HETATM   20  S1  UNL     1     -25.423  17.753 -12.934  1.00  0.00     0.256 S
HETATM   21  O3  UNL     1     -25.077  17.584 -11.465  1.00  0.00    -0.204 OA
HETATM   22  O4  UNL     1     -26.027  16.523 -13.489  1.00  0.00    -0.204 OA
BRANCH  20  23
HETATM   23  N10 UNL     1     -26.590  19.037 -13.004  1.00  0.00    -0.327 N
ATOM     24 2H10 UNL     1     -27.184  19.243 -13.807  1.00  0.00     0.168 HD
ATOM     25 1H10 UNL     1     -26.575  19.538 -12.116  1.00  0.00     0.168 HD
ENDBRANCH  20  23
ENDBRANCH  15  20
ENDBRANCH  10  15
ENDBRANCH   7  10
ENDBRANCH   3   6
BRANCH   4  26
HETATM   26  O5  UNL     1     -20.039  15.684 -18.661  1.00  0.00    -0.388 OA
ATOM     27  H5  UNL     1     -20.480  15.210 -19.357  1.00  0.00     0.210 HD
ENDBRANCH   4  26
BRANCH   1  28
HETATM   28  N6  UNL     1     -18.108  19.011 -17.082  1.00  0.00    -0.226 N
HETATM   29  C3  UNL     1     -18.233  19.653 -15.904  1.00  0.00     0.156 A
HETATM   30  N3  UNL     1     -19.207  20.423 -15.384  1.00  0.00    -0.336 N
HETATM   31  C4  UNL     1     -17.095  19.396 -15.196  1.00  0.00     0.135 A
HETATM   32  C2  UNL     1     -19.081  20.959 -14.153  1.00  0.00     0.183 A
ATOM     33  H3  UNL     1     -20.050  20.603 -15.928  1.00  0.00     0.168 HD
HETATM   34  N2  UNL     1     -17.955  20.706 -13.447  1.00  0.00    -0.337 N
HETATM   35  C1  UNL     1     -16.958  19.945 -13.924  1.00  0.00     0.132 A
ATOM     36  H2  UNL     1     -17.860  21.111 -12.515  1.00  0.00     0.168 HD
HETATM   37  N4  UNL     1     -16.292  18.610 -15.935  1.00  0.00    -0.277 N
HETATM   38  N5  UNL     1     -16.938  18.398 -17.068  1.00  0.00    -0.015 NA
ATOM     39  H4  UNL     1     -15.374  18.251 -15.674  1.00  0.00     0.184 HD
BRANCH  35  40
HETATM   40  N1  UNL     1     -15.870  19.688 -13.273  1.00  0.00    -0.383 N
ATOM     41  H12 UNL     1     -15.749  20.128 -12.360  1.00  0.00     0.157 HD
ATOM     42  H11 UNL     1     -15.132  19.074 -13.617  1.00  0.00     0.157 HD
ENDBRANCH  35  40
ENDBRANCH   1  28
BRANCH   5  43
HETATM   43  O6  UNL     1     -18.965  18.125 -20.383  1.00  0.00    -0.388 OA
ATOM     44  H6  UNL     1     -19.265  17.417 -20.941  1.00  0.00     0.210 HD
ENDBRANCH   5  43
TORSDOF 11
ENDMDL