MODEL 5
REMARK VINA RESULT: -8.540806560      1.248      2.489
REMARK  9 active torsions:
REMARK  status: ('A' for Active; 'I' for Inactive)
REMARK    1  A    between atoms: N1_2  and  S1_4
REMARK    2  A    between atoms: S1_4  and  C2_7
REMARK    3  A    between atoms: N4_15  and  N5_16
REMARK    4  A    between atoms: C6_19  and  N6_20
REMARK    5  A    between atoms: N7_23  and  C7_24
REMARK    6  A    between atoms: N9_26  and  C8_27
REMARK    7  A    between atoms: C8_27  and  C9_28
REMARK    8  A    between atoms: C11_32  and  O5_33
REMARK    9  A    between atoms: C12_35  and  O6_36
ROOT
HETATM    1  C2  UNL     1     -14.345  18.323 -10.261  1.00  0.00     0.183 A
HETATM    2  N2  UNL     1     -14.466  17.024 -10.722  1.00  0.00    -0.340 N
ATOM      3  H2  UNL     1     -14.788  16.300 -10.078  1.00  0.00     0.167 HD
HETATM    4  C3  UNL     1     -14.179  16.692 -11.967  1.00  0.00     0.183 A
HETATM    5  N3  UNL     1     -13.756  17.635 -12.814  1.00  0.00    -0.336 N
ATOM      6  H3  UNL     1     -13.533  17.376 -13.774  1.00  0.00     0.168 HD
HETATM    7  C4  UNL     1     -13.617  18.919 -12.430  1.00  0.00     0.159 A
HETATM    8  C5  UNL     1     -13.916  19.285 -11.122  1.00  0.00     0.159 A
HETATM    9  N4  UNL     1     -13.700  20.597 -11.026  1.00  0.00    -0.086 N
HETATM   10  C6  UNL     1     -13.274  21.022 -12.260  1.00  0.00     0.702 A
HETATM   11  N7  UNL     1     -13.222  20.011 -13.110  1.00  0.00    -0.141 N
ENDROOT
BRANCH  11  12
HETATM   12  C7  UNL     1     -12.825  20.028 -14.510  1.00  0.00     0.249 C
HETATM   13  N8  UNL     1     -11.789  19.035 -14.711  1.00  0.00    -0.135 NA
HETATM   14  N9  UNL     1     -11.254  19.127 -15.978  1.00  0.00    -0.220 NA
HETATM   15  C10 UNL     1     -12.188  18.967 -17.038  1.00  0.00     0.144 C
HETATM   16  C11 UNL     1     -13.617  18.896 -16.609  1.00  0.00     0.164 C
HETATM   17  C12 UNL     1     -13.955  19.784 -15.449  1.00  0.00     0.189 C
BRANCH  14  18
HETATM   18  C8  UNL     1     -10.361  20.252 -16.159  1.00  0.00     0.222 C
BRANCH  18  19
HETATM   19  C9  UNL     1      -9.136  19.885 -16.887  1.00  0.00     0.187 C
HETATM   20  O3  UNL     1      -8.050  19.912 -16.253  1.00  0.00    -0.647 OA
HETATM   21  O4  UNL     1      -9.139  19.518 -18.222  1.00  0.00    -0.647 OA
ENDBRANCH  18  19
ENDBRANCH  14  18
BRANCH  16  22
HETATM   22  O5  UNL     1     -14.007  17.573 -16.404  1.00  0.00    -0.392 OA
ATOM     23  H5  UNL     1     -14.855  17.535 -15.979  1.00  0.00     0.210 HD
ENDBRANCH  16  22
BRANCH  17  24
HETATM   24  O6  UNL     1     -14.423  21.027 -15.934  1.00  0.00    -0.389 OA
ATOM     25  H6  UNL     1     -13.703  21.485 -16.351  1.00  0.00     0.210 HD
ENDBRANCH  17  24
ENDBRANCH  11  12
BRANCH  10  26
HETATM   26  N6  UNL     1     -12.979  22.266 -12.482  1.00  0.00    -0.233 N
ATOM     27  H62 UNL     1     -13.418  22.905 -13.144  1.00  0.00     0.174 HD
ATOM     28  H61 UNL     1     -12.229  22.734 -11.972  1.00  0.00     0.174 HD
ENDBRANCH  10  26
BRANCH   9  29
HETATM   29  N5  UNL     1     -13.861  21.453  -9.941  1.00  0.00    -0.324 N
ATOM     30  H52 UNL     1     -14.772  21.777  -9.616  1.00  0.00     0.178 HD
ATOM     31  H51 UNL     1     -13.162  21.865  -9.322  1.00  0.00     0.178 HD
ENDBRANCH   9  29
BRANCH   1  32
HETATM   32  S1  UNL     1     -14.764  18.607  -8.603  1.00  0.00     0.276 S
HETATM   33  O1  UNL     1     -13.779  19.254  -7.726  1.00  0.00    -0.199 OA
HETATM   34  O2  UNL     1     -16.035  19.534  -8.617  1.00  0.00    -0.199 OA
BRANCH  32  35
HETATM   35  N1  UNL     1     -15.272  17.122  -7.895  1.00  0.00    -0.319 N
HETATM   36  C1  UNL     1     -15.100  16.979  -6.509  1.00  0.00     0.159 C
ATOM     37  H1  UNL     1     -15.681  16.377  -8.459  1.00  0.00     0.171 HD
ENDBRANCH  32  35
ENDBRANCH   1  32
TORSDOF 9
ENDMDL