MODEL 4
REMARK VINA RESULT: -8.829869557      3.941      7.687
REMARK  12 active torsions:
REMARK  status: ('A' for Active; 'I' for Inactive)
REMARK    1  A    between atoms: C2_3  and  C3_4
REMARK    2  A    between atoms: C3_4  and  C4_5
REMARK    3  A    between atoms: C4_5  and  C5_7
REMARK    4  A    between atoms: C5_7  and  O2_8
REMARK    5  A    between atoms: C5_7  and  O3_10
REMARK    6  A    between atoms: C6_13  and  N2_14
REMARK    7  A    between atoms: C7_15  and  C8_16
REMARK    8  A    between atoms: C8_16  and  N3_17
REMARK    9  A    between atoms: C8_16  and  O5_21
REMARK   10  A    between atoms: C11_30  and  N6_31
REMARK   11  A    between atoms: C13_37  and  O7_38
REMARK   12  A    between atoms: C14_40  and  O8_41
ROOT
HETATM    1  N1  UNL     1     -15.934  19.515  -8.970  1.00  0.00    -0.194 NA
HETATM    2  C1  UNL     1     -15.103  19.829  -9.728  1.00  0.00     0.101 C
HETATM    3  C2  UNL     1     -14.050  20.217 -10.673  1.00  0.00     0.186 C
HETATM    4  O4  UNL     1     -14.301  19.669 -11.899  1.00  0.00    -0.335 OA
HETATM    5  C6  UNL     1     -14.966  20.619 -12.671  1.00  0.00     0.265 C
HETATM    6  C13 UNL     1     -14.154  21.872 -12.335  1.00  0.00     0.200 C
HETATM    7  C14 UNL     1     -14.107  21.726 -10.815  1.00  0.00     0.200 C
ENDROOT
BRANCH   3   8
HETATM    8  C3  UNL     1     -12.708  19.870 -10.102  1.00  0.00     0.140 C
BRANCH   8   9
HETATM    9  C4  UNL     1     -12.527  18.447  -9.804  1.00  0.00     0.184 C
HETATM   10  O1  UNL     1     -12.503  17.938  -8.696  1.00  0.00    -0.292 OA
BRANCH   9  11
HETATM   11  C5  UNL     1     -12.354  17.524 -10.961  1.00  0.00     0.325 C
BRANCH  11  12
HETATM   12  O2  UNL     1     -13.468  16.756 -11.211  1.00  0.00    -0.365 OA
ATOM     13  H2  UNL     1     -14.228  17.271 -11.457  1.00  0.00     0.213 HD
ENDBRANCH  11  12
BRANCH  11  14
HETATM   14  O3  UNL     1     -11.916  18.207 -12.095  1.00  0.00    -0.365 OA
ATOM     15  H3  UNL     1     -11.162  18.752 -11.901  1.00  0.00     0.213 HD
ENDBRANCH  11  14
ENDBRANCH   9  11
ENDBRANCH   8   9
ENDBRANCH   3   8
BRANCH   7  16
HETATM   16  O8  UNL     1     -12.958  22.346 -10.349  1.00  0.00    -0.389 OA
ATOM     17  H8  UNL     1     -12.514  21.836  -9.682  1.00  0.00     0.210 HD
ENDBRANCH   7  16
BRANCH   5  18
HETATM   18  N2  UNL     1     -14.960  20.326 -14.060  1.00  0.00    -0.286 N
HETATM   19  C7  UNL     1     -16.039  20.293 -14.862  1.00  0.00     0.145 A
HETATM   20  N4  UNL     1     -15.638  19.977 -16.126  1.00  0.00    -0.335 N
HETATM   21  C9  UNL     1     -14.307  19.816 -16.094  1.00  0.00     0.148 A
ATOM     22  H4  UNL     1     -16.239  19.880 -16.944  1.00  0.00     0.167 HD
HETATM   23  C10 UNL     1     -13.401  19.498 -17.069  1.00  0.00     0.290 A
HETATM   24  C12 UNL     1     -13.879  20.035 -14.800  1.00  0.00     0.159 A
HETATM   25  O6  UNL     1     -13.772  19.294 -18.262  1.00  0.00    -0.265 OA
HETATM   26  N5  UNL     1     -12.100  19.403 -16.744  1.00  0.00    -0.154 N
HETATM   27  C11 UNL     1     -11.654  19.608 -15.496  1.00  0.00     0.680 A
ATOM     28  H5  UNL     1     -11.428  19.165 -17.473  1.00  0.00     0.187 HD
HETATM   29  N7  UNL     1     -12.568  19.923 -14.549  1.00  0.00    -0.174 N
ATOM     30  H7  UNL     1     -12.242  20.082 -13.596  1.00  0.00     0.186 HD
BRANCH  19  31
HETATM   31  C8  UNL     1     -17.461  20.542 -14.533  1.00  0.00     0.385 C
BRANCH  31  32
HETATM   32  N3  UNL     1     -17.605  21.443 -13.388  1.00  0.00    -0.046 N
ATOM     33  H33 UNL     1     -17.950  20.946 -12.566  1.00  0.00     0.277 HD
ATOM     34  H32 UNL     1     -16.696  21.735 -13.029  1.00  0.00     0.277 HD
ATOM     35  H31 UNL     1     -18.192  22.247 -13.609  1.00  0.00     0.277 HD
ENDBRANCH  31  32
BRANCH  31  36
HETATM   36  O5  UNL     1     -18.063  19.332 -14.199  1.00  0.00    -0.364 OA
ATOM     37  H5  UNL     1     -18.953  19.330 -14.531  1.00  0.00     0.212 HD
ENDBRANCH  31  36
ENDBRANCH  19  31
BRANCH  27  38
HETATM   38  N6  UNL     1     -10.385  19.513 -15.190  1.00  0.00    -0.234 N
ATOM     39  H62 UNL     1      -9.670  19.605 -15.912  1.00  0.00     0.174 HD
ATOM     40  H61 UNL     1     -10.072  19.345 -14.234  1.00  0.00     0.174 HD
ENDBRANCH  27  38
ENDBRANCH   5  18
BRANCH   6  41
HETATM   41  O7  UNL     1     -14.832  23.025 -12.708  1.00  0.00    -0.388 OA
ATOM     42  H7  UNL     1     -14.737  23.195 -13.638  1.00  0.00     0.210 HD
ENDBRANCH   6  41
TORSDOF 12
ENDMDL