MODEL 4
REMARK VINA RESULT: -9.333638970      2.048      8.616
REMARK  9 active torsions:
REMARK  status: ('A' for Active; 'I' for Inactive)
REMARK       I    between atoms: C2_2  and  N1_4
REMARK    1  A    between atoms: N1_4  and  C3_6
REMARK    2  A    between atoms: C4_7  and  O2_8
REMARK    3  A    between atoms: C6_11  and  N2_12
REMARK    4  A    between atoms: C8_16  and  N4_17
REMARK    5  A    between atoms: N4_17  and  O3_18
REMARK    6  A    between atoms: N4_17  and  N5_20
REMARK    7  A    between atoms: N5_20  and  N6_22
REMARK    8  A    between atoms: N8_29  and  C11_30
REMARK    9  A    between atoms: C13_36  and  O7_37
ROOT
HETATM    1  N2  UNL     1     -15.456  20.639 -13.172  1.00  0.00    -0.321 N
HETATM    2  C7  UNL     1     -14.125  20.407 -13.391  1.00  0.00     0.186 A
HETATM    3  N3  UNL     1     -13.431  20.609 -12.278  1.00  0.00    -0.339 N
ATOM      4  H3  UNL     1     -12.421  20.502 -12.178  1.00  0.00     0.167 HD
HETATM    5  C8  UNL     1     -14.281  20.976 -11.306  1.00  0.00     0.147 A
HETATM    6  C12 UNL     1     -15.530  20.989 -11.878  1.00  0.00     0.140 A
ENDROOT
BRANCH   1   7
HETATM    7  C6  UNL     1     -16.421  20.494 -14.205  1.00  0.00     0.296 C
HETATM    8  C5  UNL     1     -17.839  20.611 -13.738  1.00  0.00     0.089 C
HETATM    9  C4  UNL     1     -18.779  20.633 -14.923  1.00  0.00     0.148 C
HETATM   10  C3  UNL     1     -18.481  19.486 -15.837  1.00  0.00     0.169 C
HETATM   11  C13 UNL     1     -17.021  19.496 -16.203  1.00  0.00     0.346 C
HETATM   12  N9  UNL     1     -16.252  19.264 -14.996  1.00  0.00    -0.025 N
ATOM     13  H92 UNL     1     -15.279  19.010 -15.166  1.00  0.00     0.282 HD
ATOM     14  H91 UNL     1     -16.507  18.411 -14.498  1.00  0.00     0.282 HD
BRANCH   9  15
HETATM   15  O2  UNL     1     -20.078  20.574 -14.416  1.00  0.00    -0.393 OA
ATOM     16  H2  UNL     1     -20.338  19.684 -14.209  1.00  0.00     0.210 HD
ENDBRANCH   9  15
BRANCH  10  17
HETATM   17  N1  UNL     1     -19.328  19.470 -17.009  1.00  0.00    -0.350 N
HETATM   18  C2  UNL     1     -20.513  18.730 -17.135  1.00  0.00     0.214 C
HETATM   19  C1  UNL     1     -21.305  18.782 -18.380  1.00  0.00     0.117 C
HETATM   20  O1  UNL     1     -20.907  18.020 -16.188  1.00  0.00    -0.274 OA
ATOM     21  H1  UNL     1     -19.041  20.040 -17.805  1.00  0.00     0.163 HD
ENDBRANCH  10  17
BRANCH  11  22
HETATM   22  O7  UNL     1     -16.762  18.483 -17.127  1.00  0.00    -0.368 OA
ATOM     23  H7  UNL     1     -17.581  18.105 -17.425  1.00  0.00     0.212 HD
ENDBRANCH  11  22
ENDBRANCH   1   7
BRANCH   5  24
HETATM   24  N4  UNL     1     -13.903  21.274  -9.979  1.00  0.00    -0.036 NA
BRANCH  24  25
HETATM   25  O3  UNL     1     -12.970  22.257  -9.951  1.00  0.00    -0.287 OA
ATOM     26  H3  UNL     1     -13.362  23.089  -9.714  1.00  0.00     0.239 HD
ENDBRANCH  24  25
BRANCH  24  27
HETATM   27  N5  UNL     1     -13.482  20.169  -9.264  1.00  0.00    -0.206 N
ATOM     28  H5  UNL     1     -12.676  20.274  -8.647  1.00  0.00     0.207 HD
BRANCH  27  29
HETATM   29  N6  UNL     1     -14.095  18.915  -9.336  1.00  0.00    -0.116 N
HETATM   30  C9  UNL     1     -15.347  18.716  -8.921  1.00  0.00     0.366 A
HETATM   31  O4  UNL     1     -16.155  19.574  -8.420  1.00  0.00    -0.243 OA
HETATM   32  N7  UNL     1     -15.640  17.423  -9.118  1.00  0.00    -0.256 N
HETATM   33  C10 UNL     1     -14.563  16.840  -9.653  1.00  0.00     0.353 A
ATOM     34  H7  UNL     1     -16.526  16.966  -8.899  1.00  0.00     0.175 HD
HETATM   35  O5  UNL     1     -14.425  15.616  -9.994  1.00  0.00    -0.244 OA
HETATM   36  N8  UNL     1     -13.615  17.780  -9.782  1.00  0.00    -0.153 N
BRANCH  36  37
HETATM   37  C11 UNL     1     -12.288  17.549 -10.318  1.00  0.00     0.383 C
HETATM   38  O6  UNL     1     -11.487  18.457 -10.601  1.00  0.00    -0.281 OA
ENDBRANCH  36  37
ENDBRANCH  27  29
ENDBRANCH  24  27
ENDBRANCH   5  24
TORSDOF 9
ENDMDL