MODEL 3
REMARK VINA RESULT: -4.904835019      1.092      1.942
REMARK  2 active torsions:
REMARK  status: ('A' for Active; 'I' for Inactive)
REMARK    1  A    between atoms: N1_1  and  C1_4
REMARK    2  A    between atoms: N4_12  and  C4_13
ROOT
HETATM    1  C1  UNL     1     -44.834  15.124  -8.005  1.00  0.00     0.702 A
HETATM    2  N2  UNL     1     -43.679  15.810  -7.928  1.00  0.00    -0.153 N
ATOM      3  H2  UNL     1     -43.703  16.826  -7.833  1.00  0.00     0.187 HD
HETATM    4  C2  UNL     1     -42.478  15.167  -7.973  1.00  0.00     0.276 A
HETATM    5  O1  UNL     1     -41.385  15.780  -7.904  1.00  0.00    -0.266 OA
HETATM    6  C3  UNL     1     -42.516  13.799  -8.100  1.00  0.00     0.183 A
HETATM    7  N3  UNL     1     -43.681  13.170  -8.172  1.00  0.00    -0.284 N
ATOM      8  H3  UNL     1     -43.679  12.155  -8.267  1.00  0.00     0.187 HD
HETATM    9  N4  UNL     1     -44.860  13.805  -8.128  1.00  0.00    -0.069 N
ENDROOT
BRANCH   9  10
HETATM   10  C4  UNL     1     -46.054  13.038  -8.213  1.00  0.00     0.161 A
HETATM   11  C5  UNL     1     -46.762  12.792  -9.389  1.00  0.00     0.071 A
HETATM   12  C6  UNL     1     -47.865  12.016  -9.095  1.00  0.00     0.111 A
HETATM   13  N5  UNL     1     -47.803  11.812  -7.765  1.00  0.00    -0.310 N
HETATM   14  N6  UNL     1     -46.745  12.410  -7.245  1.00  0.00    -0.284 N
ATOM     15  H5  UNL     1     -48.482  11.269  -7.231  1.00  0.00     0.186 HD
ATOM     16  H6  UNL     1     -46.490  12.396  -6.257  1.00  0.00     0.188 HD
ENDBRANCH   9  10
BRANCH   1  17
HETATM   17  N1  UNL     1     -45.941  15.786  -7.958  1.00  0.00    -0.233 N
ATOM     18  H12 UNL     1     -45.996  16.712  -8.382  1.00  0.00     0.174 HD
ATOM     19  H11 UNL     1     -46.739  15.357  -7.490  1.00  0.00     0.174 HD
ENDBRANCH   1  17
TORSDOF 2
ENDMDL