MODEL 2
REMARK VINA RESULT: -4.855677730      2.067      3.718
REMARK  2 active torsions:
REMARK  status: ('A' for Active; 'I' for Inactive)
REMARK    1  A    between atoms: N1_1  and  C1_5
REMARK    2  A    between atoms: C1_5  and  C2_6
REMARK       I    between atoms: C2_6  and  N2_8
ROOT
HETATM    1  C2  UNL     1     -43.747  17.009  -7.557  1.00  0.00     0.259 C
HETATM    2  O1  UNL     1     -42.803  17.832  -7.233  1.00  0.00    -0.271 OA
HETATM    3  N2  UNL     1     -43.364  15.672  -7.836  1.00  0.00    -0.213 N
HETATM    4  C3  UNL     1     -42.102  15.187  -7.893  1.00  0.00     0.336 A
HETATM    5  O2  UNL     1     -41.090  15.924  -7.730  1.00  0.00    -0.246 OA
HETATM    6  N3  UNL     1     -42.093  13.876  -8.138  1.00  0.00    -0.291 N
ATOM      7  H3  UNL     1     -41.271  13.279  -8.229  1.00  0.00     0.172 HD
HETATM    8  C4  UNL     1     -43.374  13.498  -8.241  1.00  0.00     0.156 A
HETATM    9  N4  UNL     1     -44.124  12.412  -8.453  1.00  0.00    -0.335 N
ATOM     10  H4  UNL     1     -43.789  11.463  -8.620  1.00  0.00     0.168 HD
HETATM   11  C5  UNL     1     -45.397  12.814  -8.402  1.00  0.00     0.183 A
HETATM   12  N5  UNL     1     -45.429  14.150  -8.159  1.00  0.00    -0.335 N
ATOM     13  H5  UNL     1     -46.273  14.716  -8.070  1.00  0.00     0.168 HD
HETATM   14  C6  UNL     1     -44.169  14.605  -8.055  1.00  0.00     0.164 A
ENDROOT
BRANCH   1  15
HETATM   15  C1  UNL     1     -45.090  17.554  -7.598  1.00  0.00     0.333 C
BRANCH  15  16
HETATM   16  N1  UNL     1     -45.806  17.357  -6.354  1.00  0.00    -0.071 N
ATOM     17  H13 UNL     1     -46.434  18.139  -6.164  1.00  0.00     0.274 HD
ATOM     18  H12 UNL     1     -46.496  16.611  -6.441  1.00  0.00     0.274 HD
ATOM     19  H11 UNL     1     -45.181  17.189  -5.567  1.00  0.00     0.274 HD
ENDBRANCH  15  16
ENDBRANCH   1  15
TORSDOF 2
ENDMDL