MODEL 1
REMARK VINA RESULT: -4.936433024      0.000      0.000
REMARK  1 active torsions:
REMARK  status: ('A' for Active; 'I' for Inactive)
REMARK    1  A    between atoms: C1_4  and  C2_6
ROOT
HETATM    1  C2  UNL     1     -44.163  14.430  -8.230  1.00  0.00     0.166 A
HETATM    2  N3  UNL     1     -42.860  14.754  -8.322  1.00  0.00    -0.172 N
ATOM      3  H3  UNL     1     -42.184  14.029  -8.565  1.00  0.00     0.186 HD
HETATM    4  C3  UNL     1     -42.418  16.027  -8.096  1.00  0.00     0.694 A
HETATM    5  N4  UNL     1     -41.206  16.611  -8.119  1.00  0.00    -0.200 N
ATOM      6  H4  UNL     1     -40.333  16.129  -8.335  1.00  0.00     0.183 HD
HETATM    7  C4  UNL     1     -41.305  17.919  -7.819  1.00  0.00     0.124 A
HETATM    8  C5  UNL     1     -42.647  18.147  -7.602  1.00  0.00     0.137 A
HETATM    9  N5  UNL     1     -43.314  16.984  -7.774  1.00  0.00    -0.105 N
HETATM   10  C6  UNL     1     -44.618  16.637  -7.687  1.00  0.00     0.346 A
HETATM   11  O1  UNL     1     -45.431  17.541  -7.387  1.00  0.00    -0.246 OA
HETATM   12  N6  UNL     1     -45.056  15.384  -7.909  1.00  0.00    -0.290 N
ATOM     13  H6  UNL     1     -46.049  15.161  -7.833  1.00  0.00     0.172 HD
ENDROOT
BRANCH   1  14
HETATM   14  C1  UNL     1     -44.594  13.060  -8.477  1.00  0.00     0.155 C
HETATM   15  N1  UNL     1     -45.629  12.593  -7.876  1.00  0.00    -0.385 N
ATOM     16  H12 UNL     1     -45.930  11.634  -8.048  1.00  0.00     0.157 HD
ATOM     17  H11 UNL     1     -46.129  13.207  -7.232  1.00  0.00     0.157 HD
HETATM   18  N2  UNL     1     -43.905  12.213  -9.365  1.00  0.00    -0.079 NA
ENDBRANCH   1  14
TORSDOF 1
ENDMDL