MODEL 1
REMARK VINA RESULT: -5.026033287      0.000      0.000
REMARK  1 active torsions:
REMARK  status: ('A' for Active; 'I' for Inactive)
REMARK    1  A    between atoms: C1_4  and  C2_6
ROOT
HETATM    1  C2  UNL     1     -43.712  16.209  -8.067  1.00  0.00     0.117 A
HETATM    2  C3  UNL     1     -44.850  16.979  -7.724  1.00  0.00     0.140 A
HETATM    3  N3  UNL     1     -45.857  16.111  -7.625  1.00  0.00    -0.198 N
ATOM      4  H3  UNL     1     -46.819  16.357  -7.389  1.00  0.00     0.183 HD
HETATM    5  C4  UNL     1     -45.425  14.870  -7.882  1.00  0.00     0.706 A
HETATM    6  N4  UNL     1     -46.129  13.729  -7.884  1.00  0.00    -0.132 N
ATOM      7  H4  UNL     1     -47.126  13.754  -7.669  1.00  0.00     0.205 HD
HETATM    8  N5  UNL     1     -45.550  12.571  -8.161  1.00  0.00    -0.292 N
ATOM      9  H5  UNL     1     -46.098  11.711  -8.159  1.00  0.00     0.186 HD
HETATM   10  C5  UNL     1     -44.242  12.533  -8.442  1.00  0.00     0.183 A
HETATM   11  C6  UNL     1     -43.527  13.740  -8.435  1.00  0.00     0.283 A
HETATM   12  O1  UNL     1     -42.318  13.693  -8.697  1.00  0.00    -0.266 OA
HETATM   13  N6  UNL     1     -44.092  14.922  -8.157  1.00  0.00    -0.104 N
ENDROOT
BRANCH   1  14
HETATM   14  C1  UNL     1     -42.395  16.758  -8.274  1.00  0.00     0.139 C
HETATM   15  N1  UNL     1     -42.062  16.896  -9.560  1.00  0.00    -0.386 N
ATOM     16  H12 UNL     1     -41.131  17.284  -9.707  1.00  0.00     0.157 HD
ATOM     17  H11 UNL     1     -42.757  16.603 -10.247  1.00  0.00     0.157 HD
HETATM   18  N2  UNL     1     -41.440  17.161  -7.328  1.00  0.00    -0.081 NA
ENDBRANCH   1  14
TORSDOF 1
ENDMDL