MODEL 5
REMARK VINA RESULT: -4.326701283      5.716      9.276
REMARK  3 active torsions:
REMARK  status: ('A' for Active; 'I' for Inactive)
REMARK    1  A    between atoms: N1_1  and  N2_4
REMARK    2  A    between atoms: C3_9  and  N4_10
REMARK    3  A    between atoms: N4_10  and  C4_12
ROOT
HETATM    1  N4  UNL     1     -47.794  12.124  -7.016  1.00  0.00    -0.019 N
ATOM      2  H4  UNL     1     -48.079  12.163  -6.037  1.00  0.00     0.203 HD
ENDROOT
BRANCH   1   3
HETATM    3  C3  UNL     1     -48.451  11.235  -7.888  1.00  0.00     0.709 C
HETATM    4  N2  UNL     1     -49.111  10.015  -7.526  1.00  0.00    -0.129 N
HETATM    5  C1  UNL     1     -49.209   9.237  -8.747  1.00  0.00     0.187 C
HETATM    6  C2  UNL     1     -49.277  10.333  -9.779  1.00  0.00     0.160 C
HETATM    7  N3  UNL     1     -48.548  11.409  -9.158  1.00  0.00    -0.223 N
ATOM      8  H3  UNL     1     -48.159  12.206  -9.661  1.00  0.00     0.177 HD
BRANCH   4   9
HETATM    9  N1  UNL     1     -49.542   9.713  -6.236  1.00  0.00    -0.329 N
ATOM     10  H12 UNL     1     -48.943   9.748  -5.410  1.00  0.00     0.177 HD
ATOM     11  H11 UNL     1     -50.461   9.424  -5.902  1.00  0.00     0.177 HD
ENDBRANCH   4   9
ENDBRANCH   1   3
BRANCH   1  12
HETATM   12  C4  UNL     1     -46.849  12.884  -7.419  1.00  0.00     0.712 A
HETATM   13  N5  UNL     1     -45.653  12.495  -7.897  1.00  0.00    -0.185 N
HETATM   14  C5  UNL     1     -44.899  13.559  -8.229  1.00  0.00     0.215 A
ATOM     15  H5  UNL     1     -45.358  11.523  -7.995  1.00  0.00     0.185 HD
HETATM   16  N6  UNL     1     -45.645  14.644  -7.950  1.00  0.00    -0.281 N
HETATM   17  N7  UNL     1     -46.822  14.229  -7.461  1.00  0.00    -0.131 N
ATOM     18  H6  UNL     1     -45.364  15.615  -8.088  1.00  0.00     0.188 HD
ATOM     19  H7  UNL     1     -47.582  14.841  -7.165  1.00  0.00     0.205 HD
ENDBRANCH   1  12
TORSDOF 3
ENDMDL