MODEL 2
REMARK VINA RESULT: -4.480333066      2.262      4.050
REMARK  2 active torsions:
REMARK  status: ('A' for Active; 'I' for Inactive)
REMARK    1  A    between atoms: C3_4  and  N2_5
REMARK    2  A    between atoms: N2_5  and  N3_7
ROOT
HETATM    1  N1  UNL     1     -42.600  15.731  -9.286  1.00  0.00    -0.191 NA
HETATM    2  C1  UNL     1     -43.528  15.186  -8.877  1.00  0.00     0.109 C
HETATM    3  C2  UNL     1     -44.674  14.470  -8.376  1.00  0.00     0.157 A
HETATM    4  C3  UNL     1     -45.723  15.143  -7.807  1.00  0.00     0.150 A
HETATM    5  N4  UNL     1     -46.765  14.384  -7.361  1.00  0.00    -0.292 N
ATOM      6  H4  UNL     1     -47.558  14.862  -6.934  1.00  0.00     0.172 HD
HETATM    7  C4  UNL     1     -46.808  13.049  -7.450  1.00  0.00     0.328 A
HETATM    8  O1  UNL     1     -47.813  12.389  -7.014  1.00  0.00    -0.247 OA
HETATM    9  N5  UNL     1     -45.760  12.426  -8.014  1.00  0.00    -0.274 N
ATOM     10  H5  UNL     1     -45.783  11.410  -8.087  1.00  0.00     0.173 HD
HETATM   11  C5  UNL     1     -44.687  13.070  -8.486  1.00  0.00     0.274 A
HETATM   12  O2  UNL     1     -43.724  12.489  -9.004  1.00  0.00    -0.266 OA
ENDROOT
BRANCH   4  13
HETATM   13  N2  UNL     1     -45.787  16.551  -7.659  1.00  0.00    -0.291 N
ATOM     14  H2  UNL     1     -46.221  17.112  -8.392  1.00  0.00     0.188 HD
BRANCH  13  15
HETATM   15  N3  UNL     1     -45.277  17.172  -6.548  1.00  0.00    -0.344 N
ATOM     16  H32 UNL     1     -45.253  18.191  -6.530  1.00  0.00     0.176 HD
ATOM     17  H31 UNL     1     -44.927  16.633  -5.756  1.00  0.00     0.176 HD
ENDBRANCH  13  15
ENDBRANCH   4  13
TORSDOF 2
ENDMDL