MODEL 2
REMARK VINA RESULT: -4.672090454      0.465      1.428
REMARK  2 active torsions:
REMARK  status: ('A' for Active; 'I' for Inactive)
REMARK    1  A    between atoms: N1_1  and  C1_4
REMARK    2  A    between atoms: C3_10  and  N4_11
ROOT
HETATM    1  C1  UNL     1     -47.486  12.669  -7.377  1.00  0.00     0.691 A
HETATM    2  N2  UNL     1     -48.435  13.570  -7.701  1.00  0.00    -0.187 N
ATOM      3  H2  UNL     1     -49.420  13.354  -7.551  1.00  0.00     0.185 HD
HETATM    4  C2  UNL     1     -48.072  14.765  -8.227  1.00  0.00     0.215 A
HETATM    5  N3  UNL     1     -46.764  15.042  -8.422  1.00  0.00    -0.187 N
ATOM      6  H3  UNL     1     -46.500  15.945  -8.817  1.00  0.00     0.185 HD
HETATM    7  C3  UNL     1     -45.798  14.156  -8.106  1.00  0.00     0.695 A
HETATM    8  N6  UNL     1     -46.192  12.979  -7.585  1.00  0.00    -0.022 N
ATOM      9  H6  UNL     1     -45.480  12.292  -7.338  1.00  0.00     0.203 HD
ENDROOT
BRANCH   7  10
HETATM   10  N4  UNL     1     -44.429  14.451  -8.311  1.00  0.00    -0.214 N
HETATM   11  C4  UNL     1     -44.006  15.806  -8.342  1.00  0.00     0.160 C
HETATM   12  C5  UNL     1     -42.565  16.044  -8.559  1.00  0.00     0.134 C
HETATM   13  N5  UNL     1     -41.706  14.914  -8.481  1.00  0.00    -0.418 N
HETATM   14  C6  UNL     1     -42.214  13.786  -7.770  1.00  0.00     0.134 C
ATOM     15  H5  UNL     1     -40.780  14.911  -8.910  1.00  0.00     0.153 HD
HETATM   16  C7  UNL     1     -43.503  13.361  -8.484  1.00  0.00     0.160 C
ENDBRANCH   7  10
BRANCH   1  17
HETATM   17  N1  UNL     1     -47.851  11.527  -6.875  1.00  0.00    -0.234 N
ATOM     18  H12 UNL     1     -48.345  11.460  -5.984  1.00  0.00     0.174 HD
ATOM     19  H11 UNL     1     -47.635  10.672  -7.388  1.00  0.00     0.174 HD
ENDBRANCH   1  17
TORSDOF 2
ENDMDL