MODEL 2
REMARK VINA RESULT: -4.562890589      7.731      8.961
REMARK  2 active torsions:
REMARK  status: ('A' for Active; 'I' for Inactive)
REMARK    1  A    between atoms: N1_1  and  C1_4
REMARK    2  A    between atoms: N4_13  and  C5_14
ROOT
HETATM    1  C1  UNL     1     -49.184  11.669 -11.285  1.00  0.00     0.680 A
HETATM    2  N2  UNL     1     -49.334  10.765 -12.269  1.00  0.00    -0.154 N
ATOM      3  H2  UNL     1     -49.357  11.091 -13.236  1.00  0.00     0.187 HD
HETATM    4  C2  UNL     1     -49.452   9.453 -12.028  1.00  0.00     0.290 A
HETATM    5  O1  UNL     1     -49.592   8.587 -12.920  1.00  0.00    -0.265 OA
HETATM    6  C3  UNL     1     -49.420   9.025 -10.721  1.00  0.00     0.148 A
HETATM    7  N3  UNL     1     -49.510   7.808 -10.150  1.00  0.00    -0.344 N
ATOM      8  H3  UNL     1     -49.628   6.933 -10.662  1.00  0.00     0.167 HD
HETATM    9  C4  UNL     1     -49.422   7.904  -8.819  1.00  0.00     0.193 A
HETATM   10  N4  UNL     1     -49.271   9.232  -8.539  1.00  0.00    -0.269 N
HETATM   11  C6  UNL     1     -49.266   9.944  -9.678  1.00  0.00     0.163 A
HETATM   12  N5  UNL     1     -49.153  11.246 -10.010  1.00  0.00    -0.174 N
ATOM     13  H5  UNL     1     -49.041  11.935  -9.266  1.00  0.00     0.186 HD
ENDROOT
BRANCH   1  14
HETATM   14  N1  UNL     1     -49.076  12.927 -11.612  1.00  0.00    -0.234 N
ATOM     15  H12 UNL     1     -48.419  13.257 -12.319  1.00  0.00     0.174 HD
ATOM     16  H11 UNL     1     -49.674  13.603 -11.137  1.00  0.00     0.174 HD
ENDBRANCH   1  14
BRANCH  10  17
HETATM   17  C5  UNL     1     -49.139   9.786  -7.230  1.00  0.00     0.362 C
HETATM   18  O2  UNL     1     -48.819  10.979  -7.036  1.00  0.00    -0.283 OA
ENDBRANCH  10  17
TORSDOF 2
ENDMDL