MODEL 1
REMARK VINA RESULT: -4.997107364      0.000      0.000
REMARK  1 active torsions:
REMARK  status: ('A' for Active; 'I' for Inactive)
REMARK    1  A    between atoms: N2_7  and  C3_8
ROOT
HETATM    1  O1  UNL     1     -47.929  13.227  -7.657  1.00  0.00    -0.245 OA
HETATM    2  C1  UNL     1     -46.704  13.272  -7.981  1.00  0.00     0.343 A
HETATM    3  N1  UNL     1     -45.989  12.337  -8.652  1.00  0.00    -0.257 N
ATOM      4  H1  UNL     1     -46.354  11.447  -8.994  1.00  0.00     0.175 HD
HETATM    5  C2  UNL     1     -44.718  12.768  -8.797  1.00  0.00     0.364 A
HETATM    6  O2  UNL     1     -43.760  12.175  -9.366  1.00  0.00    -0.244 OA
HETATM    7  N2  UNL     1     -44.639  13.978  -8.214  1.00  0.00    -0.026 N
HETATM    8  N6  UNL     1     -45.829  14.269  -7.730  1.00  0.00    -0.226 N
ATOM      9  H6  UNL     1     -46.058  15.130  -7.234  1.00  0.00     0.193 HD
ENDROOT
BRANCH   7  10
HETATM   10  C3  UNL     1     -43.478  14.799  -8.132  1.00  0.00     0.723 A
HETATM   11  N3  UNL     1     -43.458  16.133  -7.829  1.00  0.00    -0.183 N
HETATM   12  C4  UNL     1     -42.207  16.579  -7.841  1.00  0.00     0.215 A
ATOM     13  H3  UNL     1     -44.281  16.700  -7.624  1.00  0.00     0.185 HD
HETATM   14  N4  UNL     1     -41.402  15.550  -8.149  1.00  0.00    -0.281 N
HETATM   15  N5  UNL     1     -42.186  14.477  -8.324  1.00  0.00    -0.129 N
ATOM     16  H4  UNL     1     -40.386  15.580  -8.234  1.00  0.00     0.188 HD
ATOM     17  H5  UNL     1     -41.849  13.546  -8.568  1.00  0.00     0.205 HD
ENDBRANCH   7  10
TORSDOF 1
ENDMDL