MODEL 3
REMARK VINA RESULT: -4.836747981      2.063      4.909
REMARK  1 active torsions:
REMARK  status: ('A' for Active; 'I' for Inactive)
REMARK    1  A    between atoms: C3_6  and  N2_7
ROOT
HETATM    1  O1  UNL     1     -41.187  15.800  -7.651  1.00  0.00    -0.247 OA
HETATM    2  C1  UNL     1     -42.268  15.173  -7.867  1.00  0.00     0.327 A
HETATM    3  N1  UNL     1     -42.322  13.832  -7.944  1.00  0.00    -0.316 N
ATOM      4  H1  UNL     1     -41.470  13.283  -7.827  1.00  0.00     0.170 HD
HETATM    5  C2  UNL     1     -43.490  13.210  -8.174  1.00  0.00     0.129 A
HETATM    6  C3  UNL     1     -44.681  13.902  -8.341  1.00  0.00     0.137 A
HETATM    7  C6  UNL     1     -44.600  15.277  -8.259  1.00  0.00     0.279 A
HETATM    8  O2  UNL     1     -45.660  15.945  -8.404  1.00  0.00    -0.265 OA
HETATM    9  N5  UNL     1     -43.400  15.880  -8.024  1.00  0.00    -0.274 N
ATOM     10  H5  UNL     1     -43.360  16.897  -7.965  1.00  0.00     0.173 HD
ENDROOT
BRANCH   6  11
HETATM   11  N2  UNL     1     -45.920  13.248  -8.585  1.00  0.00    -0.243 N
HETATM   12  C4  UNL     1     -46.760  12.863  -7.592  1.00  0.00     0.133 A
HETATM   13  C5  UNL     1     -47.870  12.258  -8.169  1.00  0.00     0.123 A
HETATM   14  N3  UNL     1     -47.644  12.307  -9.498  1.00  0.00    -0.294 N
HETATM   15  N4  UNL     1     -46.479  12.898  -9.733  1.00  0.00    -0.016 NA
ATOM     16  H3  UNL     1     -48.273  11.944 -10.214  1.00  0.00     0.183 HD
ENDBRANCH   6  11
TORSDOF 1
ENDMDL