MODEL 4
REMARK VINA RESULT: -8.285970597      4.163      7.025
REMARK  15 active torsions:
REMARK  status: ('A' for Active; 'I' for Inactive)
REMARK    1  A    between atoms: C2_2  and  O1_3
REMARK    2  A    between atoms: O1_3  and  C3_4
REMARK    3  A    between atoms: C3_4  and  C4_5
REMARK    4  A    between atoms: C3_4  and  C24_37
REMARK       I    between atoms: C4_5  and  N1_7
REMARK    5  A    between atoms: N1_7  and  C5_9
REMARK    6  A    between atoms: C5_9  and  C6_10
REMARK    7  A    between atoms: C6_10  and  C7_11
REMARK    8  A    between atoms: C7_11  and  C8_12
REMARK    9  A    between atoms: C8_12  and  C10_14
REMARK   10  A    between atoms: C11_15  and  O3_16
REMARK   11  A    between atoms: C12_18  and  O4_19
REMARK   12  A    between atoms: C14_22  and  N2_23
REMARK       I    between atoms: N2_23  and  C15_25
REMARK   13  A    between atoms: C15_25  and  C16_27
REMARK   14  A    between atoms: C16_27  and  C17_28
REMARK   15  A    between atoms: C23_34  and  O6_35
ROOT
HETATM    1  C10 UNL     1       3.918 -25.531   6.578  1.00  0.00     0.051 C
HETATM    2  C11 UNL     1       4.299 -24.534   7.607  1.00  0.00     0.153 C
HETATM    3  C12 UNL     1       5.674 -24.034   7.651  1.00  0.00     0.149 C
HETATM    4  C13 UNL     1       6.549 -24.302   6.488  1.00  0.00     0.062 C
HETATM    5  C14 UNL     1       5.799 -24.514   5.204  1.00  0.00     0.116 C
HETATM    6  C23 UNL     1       4.674 -25.452   5.294  1.00  0.00     0.148 C
ENDROOT
BRANCH   1   7
HETATM    7  C8  UNL     1       3.941 -26.969   7.114  1.00  0.00    -0.009 C
HETATM    8  C9  UNL     1       4.299 -26.977   8.587  1.00  0.00     0.010 C
BRANCH   7   9
HETATM    9  C7  UNL     1       2.629 -27.655   6.980  1.00  0.00     0.006 C
BRANCH   9  10
HETATM   10  C6  UNL     1       2.502 -28.608   5.805  1.00  0.00     0.020 C
BRANCH  10  11
HETATM   11  C5  UNL     1       3.917 -28.986   5.439  1.00  0.00     0.122 C
BRANCH  11  12
HETATM   12  N1  UNL     1       3.924 -29.739   4.215  1.00  0.00    -0.359 N
HETATM   13  C4  UNL     1       4.286 -29.145   2.984  1.00  0.00     0.248 C
HETATM   14  O2  UNL     1       4.632 -27.942   2.976  1.00  0.00    -0.271 OA
ATOM     15  H1  UNL     1       3.663 -30.725   4.235  1.00  0.00     0.162 HD
BRANCH  13  16
HETATM   16  C3  UNL     1       4.256 -29.906   1.729  1.00  0.00     0.231 C
BRANCH  16  17
HETATM   17  O1  UNL     1       3.332 -30.916   1.734  1.00  0.00    -0.375 OA
BRANCH  17  18
HETATM   18  C2  UNL     1       2.150 -30.701   1.088  1.00  0.00     0.164 C
HETATM   19  C1  UNL     1       1.011 -30.685   2.119  1.00  0.00     0.033 C
ENDBRANCH  17  18
ENDBRANCH  16  17
BRANCH  16  20
HETATM   20  C24 UNL     1       5.666 -30.471   1.438  1.00  0.00     0.116 C
HETATM   21  C25 UNL     1       5.851 -31.807   2.083  1.00  0.00     0.030 C
HETATM   22 CL1  UNL     1       5.798 -30.656  -0.316  1.00  0.00    -0.122 Cl
ENDBRANCH  16  20
ENDBRANCH  13  16
ENDBRANCH  11  12
ENDBRANCH  10  11
ENDBRANCH   9  10
ENDBRANCH   7   9
ENDBRANCH   1   7
BRANCH   2  23
HETATM   23  O3  UNL     1       3.376 -23.455   7.580  1.00  0.00    -0.393 OA
ATOM     24  H3  UNL     1       3.764 -22.721   7.119  1.00  0.00     0.210 HD
ENDBRANCH   2  23
BRANCH   6  25
HETATM   25  O6  UNL     1       3.814 -25.163   4.204  1.00  0.00    -0.393 OA
ATOM     26  H6  UNL     1       4.298 -25.086   3.390  1.00  0.00     0.210 HD
ENDBRANCH   6  25
BRANCH   3  27
HETATM   27  O4  UNL     1       5.644 -22.630   7.838  1.00  0.00    -0.393 OA
ATOM     28  H4  UNL     1       6.532 -22.295   7.787  1.00  0.00     0.210 HD
ENDBRANCH   3  27
BRANCH   5  29
HETATM   29  N2  UNL     1       6.808 -25.030   4.257  1.00  0.00    -0.354 N
HETATM   30  C15 UNL     1       7.587 -26.182   4.552  1.00  0.00     0.218 C
HETATM   31  O5  UNL     1       7.400 -26.762   5.644  1.00  0.00    -0.274 OA
ATOM     32  H2  UNL     1       6.950 -24.549   3.368  1.00  0.00     0.162 HD
BRANCH  30  33
HETATM   33  C16 UNL     1       8.575 -26.649   3.578  1.00  0.00     0.107 C
BRANCH  33  34
HETATM   34  C17 UNL     1       9.998 -26.305   3.888  1.00  0.00    -0.006 C
HETATM   35  C18 UNL     1      10.679 -27.315   4.750  1.00  0.00     0.005 C
HETATM   36  C19 UNL     1      12.174 -26.992   4.755  1.00  0.00     0.000 C
HETATM   37  C20 UNL     1      12.452 -25.590   5.212  1.00  0.00     0.000 C
HETATM   38  C21 UNL     1      11.145 -24.968   5.662  1.00  0.00     0.000 C
HETATM   39  C22 UNL     1      10.190 -24.932   4.462  1.00  0.00     0.005 C
ENDBRANCH  33  34
ENDBRANCH  30  33
ENDBRANCH   5  29
TORSDOF 15
ENDMDL