MODEL 2
REMARK VINA RESULT: -7.898588184      1.263      1.505
REMARK  14 active torsions:
REMARK  status: ('A' for Active; 'I' for Inactive)
REMARK    1  A    between atoms: C1_2  and  C2_4
REMARK    2  A    between atoms: C2_4  and  C3_5
REMARK    3  A    between atoms: C3_5  and  O3_6
REMARK    4  A    between atoms: C3_5  and  C4_8
REMARK    5  A    between atoms: C4_8  and  C5_9
REMARK    6  A    between atoms: C4_8  and  C12_16
REMARK    7  A    between atoms: C5_9  and  C6_10
REMARK       I    between atoms: C12_16  and  N1_18
REMARK    8  A    between atoms: N1_18  and  C13_20
REMARK    9  A    between atoms: C13_20  and  C14_21
REMARK   10  A    between atoms: C14_21  and  C15_22
REMARK   11  A    between atoms: C14_21  and  N2_25
REMARK   12  A    between atoms: N2_25  and  C16_26
REMARK   13  A    between atoms: N2_25  and  C18_30
REMARK   14  A    between atoms: C16_26  and  C17_27
ROOT
HETATM    1  C12 UNL     1       6.056 -24.688   5.655  1.00  0.00     0.224 C
HETATM    2  O4  UNL     1       5.187 -24.313   4.839  1.00  0.00    -0.273 OA
HETATM    3  N1  UNL     1       6.136 -26.081   5.993  1.00  0.00    -0.358 N
ATOM      4  H1  UNL     1       6.857 -26.368   6.654  1.00  0.00     0.162 HD
ENDROOT
BRANCH   3   5
HETATM    5  C13 UNL     1       5.281 -27.087   5.472  1.00  0.00     0.159 C
BRANCH   5   6
HETATM    6  C14 UNL     1       4.740 -27.998   6.515  1.00  0.00     0.204 C
BRANCH   6   7
HETATM    7  C15 UNL     1       4.991 -27.593   7.904  1.00  0.00     0.198 C
HETATM    8  O5  UNL     1       4.539 -26.555   8.417  1.00  0.00    -0.646 OA
HETATM    9  O6  UNL     1       5.786 -28.380   8.769  1.00  0.00    -0.646 OA
ENDBRANCH   6   7
BRANCH   6  10
HETATM   10  N2  UNL     1       3.296 -28.174   6.266  1.00  0.00    -0.349 N
BRANCH  10  11
HETATM   11  C16 UNL     1       2.440 -27.057   6.424  1.00  0.00     0.237 C
BRANCH  11  12
HETATM   12  C17 UNL     1       2.203 -26.220   5.241  1.00  0.00     0.191 C
HETATM   13  O7  UNL     1       2.185 -24.963   5.292  1.00  0.00    -0.647 OA
HETATM   14  O8  UNL     1       1.987 -26.788   4.009  1.00  0.00    -0.647 OA
ENDBRANCH  11  12
ENDBRANCH  10  11
BRANCH  10  15
HETATM   15  C18 UNL     1       2.897 -29.498   5.878  1.00  0.00     0.074 A
HETATM   16  C19 UNL     1       3.687 -30.519   5.419  1.00  0.00     0.039 A
HETATM   17  C20 UNL     1       3.077 -31.685   5.128  1.00  0.00     0.034 A
HETATM   18  C21 UNL     1       1.726 -31.748   5.316  1.00  0.00     0.076 A
HETATM   19 CL1  UNL     1       0.659 -33.138   5.022  1.00  0.00    -0.076 Cl
HETATM   20  S1  UNL     1       1.342 -30.192   5.890  1.00  0.00    -0.060 SA
ENDBRANCH  10  15
ENDBRANCH   6  10
ENDBRANCH   5   6
ENDBRANCH   3   5
BRANCH   1  21
HETATM   21  C4  UNL     1       6.958 -23.699   6.238  1.00  0.00     0.107 C
BRANCH  21  22
HETATM   22  C3  UNL     1       6.341 -23.358   7.605  1.00  0.00     0.141 C
BRANCH  22  23
HETATM   23  C2  UNL     1       6.207 -21.886   7.827  1.00  0.00     0.145 C
BRANCH  23  24
HETATM   24  C1  UNL     1       4.954 -21.279   7.389  1.00  0.00     0.175 C
HETATM   25  O1  UNL     1       4.071 -21.761   6.671  1.00  0.00    -0.648 OA
HETATM   26  O2  UNL     1       4.725 -19.966   7.851  1.00  0.00    -0.648 OA
ENDBRANCH  23  24
ENDBRANCH  22  23
BRANCH  22  27
HETATM   27  O3  UNL     1       5.155 -23.987   7.749  1.00  0.00    -0.394 OA
ATOM     28  H3  UNL     1       5.234 -24.751   8.309  1.00  0.00     0.210 HD
ENDBRANCH  22  27
ENDBRANCH  21  22
BRANCH  21  29
HETATM   29  C5  UNL     1       8.339 -24.156   6.417  1.00  0.00     0.021 C
BRANCH  29  30
HETATM   30  C6  UNL     1       9.375 -23.958   5.380  1.00  0.00    -0.014 C
HETATM   31  C7  UNL     1      10.741 -23.728   6.107  1.00  0.00     0.005 C
HETATM   32  C8  UNL     1      11.888 -24.257   5.322  1.00  0.00     0.000 C
HETATM   33  C9  UNL     1      11.817 -25.771   5.163  1.00  0.00     0.000 C
HETATM   34  C10 UNL     1      10.361 -26.209   5.066  1.00  0.00     0.000 C
HETATM   35  C11 UNL     1       9.618 -25.064   4.406  1.00  0.00     0.005 C
ENDBRANCH  29  30
ENDBRANCH  21  29
ENDBRANCH   1  21
TORSDOF 14
ENDMDL