MODEL 1
REMARK VINA RESULT: -7.661376556      0.000      0.000
REMARK  17 active torsions:
REMARK  status: ('A' for Active; 'I' for Inactive)
REMARK    1  A    between atoms: C2_2  and  C3_4
REMARK    2  A    between atoms: C7_8  and  C8_9
REMARK    3  A    between atoms: C8_9  and  O2_10
REMARK    4  A    between atoms: C8_9  and  C9_12
REMARK    5  A    between atoms: C9_12  and  O3_13
REMARK    6  A    between atoms: C9_12  and  C10_15
REMARK    7  A    between atoms: C10_15  and  O4_16
REMARK    8  A    between atoms: C10_15  and  C11_18
REMARK    9  A    between atoms: C11_18  and  C12_19
REMARK   10  A    between atoms: C12_19  and  C14_21
REMARK   11  A    between atoms: C14_21  and  O5_22
REMARK   12  A    between atoms: C14_21  and  C15_24
REMARK   13  A    between atoms: C16_25  and  C17_26
REMARK   14  A    between atoms: C17_26  and  C18_27
REMARK   15  A    between atoms: C18_27  and  C19_28
REMARK       I    between atoms: C19_28  and  N1_30
REMARK   16  A    between atoms: N1_30  and  C20_32
REMARK   17  A    between atoms: C20_32  and  C21_33
ROOT
HETATM    1  C10 UNL     1       4.394 -24.608   6.675  1.00  0.00     0.150 C
ENDROOT
BRANCH   1   2
HETATM    2  C9  UNL     1       5.429 -23.739   7.307  1.00  0.00     0.179 C
BRANCH   2   3
HETATM    3  C8  UNL     1       6.295 -23.151   6.160  1.00  0.00     0.174 C
BRANCH   3   4
HETATM    4  C7  UNL     1       6.716 -24.183   5.241  1.00  0.00     0.044 C
HETATM    5  C6  UNL     1       7.908 -24.662   4.957  1.00  0.00     0.075 A
HETATM    6  C4  UNL     1       9.232 -24.329   5.464  1.00  0.00    -0.016 A
HETATM    7  O7  UNL     1       8.141 -25.673   4.027  1.00  0.00    -0.341 OA
HETATM    8  C3  UNL     1      10.165 -25.065   4.899  1.00  0.00     0.025 A
HETATM    9  C5  UNL     1       9.550 -23.271   6.477  1.00  0.00     0.052 C
HETATM   10  C22 UNL     1       9.460 -26.011   3.991  1.00  0.00     0.162 A
HETATM   11  C23 UNL     1       9.605 -27.402   4.603  1.00  0.00     0.045 C
BRANCH   8  12
HETATM   12  C2  UNL     1      11.635 -25.064   5.066  1.00  0.00     0.154 C
HETATM   13  C1  UNL     1      12.410 -26.311   4.708  1.00  0.00     0.096 C
HETATM   14  O1  UNL     1      12.332 -24.131   5.481  1.00  0.00    -0.293 OA
ENDBRANCH   8  12
ENDBRANCH   3   4
BRANCH   3  15
HETATM   15  O2  UNL     1       5.558 -22.180   5.497  1.00  0.00    -0.389 OA
ATOM     16  H2  UNL     1       6.119 -21.462   5.229  1.00  0.00     0.210 HD
ENDBRANCH   3  15
ENDBRANCH   2   3
BRANCH   2  17
HETATM   17  O3  UNL     1       4.796 -22.696   7.993  1.00  0.00    -0.390 OA
ATOM     18  H3  UNL     1       5.438 -22.223   8.509  1.00  0.00     0.210 HD
ENDBRANCH   2  17
ENDBRANCH   1   2
BRANCH   1  19
HETATM   19  O4  UNL     1       3.193 -23.926   6.550  1.00  0.00    -0.393 OA
ATOM     20  H4  UNL     1       3.346 -23.009   6.356  1.00  0.00     0.210 HD
ENDBRANCH   1  19
BRANCH   1  21
HETATM   21  C11 UNL     1       4.107 -25.847   7.535  1.00  0.00     0.041 C
BRANCH  21  22
HETATM   22  C12 UNL     1       5.074 -26.921   7.020  1.00  0.00     0.016 C
HETATM   23  C13 UNL     1       5.515 -27.801   8.161  1.00  0.00     0.013 C
BRANCH  22  24
HETATM   24  C14 UNL     1       4.408 -27.754   5.941  1.00  0.00     0.144 C
BRANCH  24  25
HETATM   25  O5  UNL     1       4.390 -29.103   6.284  1.00  0.00    -0.391 OA
ATOM     26  H5  UNL     1       3.563 -29.507   6.049  1.00  0.00     0.210 HD
ENDBRANCH  24  25
BRANCH  24  27
HETATM   27  C15 UNL     1       5.105 -27.489   4.665  1.00  0.00     0.001 C
HETATM   28  C16 UNL     1       4.508 -27.573   3.498  1.00  0.00    -0.028 C
BRANCH  28  29
HETATM   29  C17 UNL     1       3.083 -27.944   3.405  1.00  0.00     0.036 C
BRANCH  29  30
HETATM   30  C18 UNL     1       2.885 -29.220   2.586  1.00  0.00     0.106 C
BRANCH  30  31
HETATM   31  C19 UNL     1       2.423 -30.283   3.515  1.00  0.00     0.217 C
HETATM   32  O6  UNL     1       2.578 -31.490   3.197  1.00  0.00    -0.274 OA
HETATM   33  N1  UNL     1       1.820 -29.896   4.739  1.00  0.00    -0.360 N
ATOM     34  H1  UNL     1       1.715 -28.903   4.945  1.00  0.00     0.162 HD
BRANCH  33  35
HETATM   35  C20 UNL     1       1.349 -30.861   5.699  1.00  0.00     0.133 C
BRANCH  35  36
HETATM   36  C21 UNL     1       0.606 -30.176   6.818  1.00  0.00     0.104 C
HETATM   37 BR1  UNL     1       0.690 -28.254   6.614  1.00  0.00    -0.095 Br
ENDBRANCH  35  36
ENDBRANCH  33  35
ENDBRANCH  30  31
ENDBRANCH  29  30
ENDBRANCH  28  29
ENDBRANCH  24  27
ENDBRANCH  22  24
ENDBRANCH  21  22
ENDBRANCH   1  21
TORSDOF 17
ENDMDL