MODEL 5
REMARK VINA RESULT: -7.239503451      2.708      5.890
REMARK  15 active torsions:
REMARK  status: ('A' for Active; 'I' for Inactive)
REMARK    1  A    between atoms: C2_2  and  C4_4
REMARK    2  A    between atoms: C4_4  and  C5_5
REMARK    3  A    between atoms: C5_5  and  C6_6
REMARK    4  A    between atoms: C5_5  and  N1_13
REMARK    5  A    between atoms: C6_6  and  C7_7
REMARK    6  A    between atoms: C7_7  and  C8_8
REMARK       I    between atoms: N1_13  and  C12_15
REMARK    7  A    between atoms: C12_15  and  C13_17
REMARK    8  A    between atoms: C13_17  and  C14_18
REMARK    9  A    between atoms: C14_18  and  N2_19
REMARK   10  A    between atoms: C14_18  and  C20_28
REMARK       I    between atoms: N2_19  and  C15_21
REMARK   11  A    between atoms: C15_21  and  O3_23
REMARK   12  A    between atoms: O3_23  and  C16_24
REMARK       I    between atoms: C20_28  and  N3_30
REMARK   13  A    between atoms: N3_30  and  C21_32
REMARK   14  A    between atoms: C21_32  and  C22_33
REMARK   15  A    between atoms: C21_32  and  C23_35
ROOT
HETATM    1  C14 UNL     1       3.420 -29.205   5.574  1.00  0.00     0.187 C
ENDROOT
BRANCH   1   2
HETATM    2  C13 UNL     1       3.881 -27.953   4.875  1.00  0.00     0.137 C
BRANCH   2   3
HETATM    3  C12 UNL     1       5.079 -27.314   5.408  1.00  0.00     0.220 C
HETATM    4  N1  UNL     1       6.103 -26.910   4.529  1.00  0.00    -0.356 N
ATOM      5  H1  UNL     1       5.968 -27.080   3.533  1.00  0.00     0.162 HD
HETATM    6  O1  UNL     1       5.213 -27.119   6.628  1.00  0.00    -0.274 OA
BRANCH   4   7
HETATM    7  C5  UNL     1       7.351 -26.261   4.950  1.00  0.00     0.084 C
BRANCH   7   8
HETATM    8  C4  UNL     1       7.135 -24.795   5.052  1.00  0.00     0.029 C
BRANCH   8   9
HETATM    9  C2  UNL     1       7.741 -24.148   6.278  1.00  0.00    -0.021 C
HETATM   10  C1  UNL     1       6.628 -23.705   7.238  1.00  0.00     0.009 C
HETATM   11  C3  UNL     1       8.565 -22.937   5.979  1.00  0.00     0.009 C
ENDBRANCH   8   9
ENDBRANCH   7   8
BRANCH   7  12
HETATM   12  C6  UNL     1       8.380 -26.662   3.974  1.00  0.00     0.026 C
BRANCH  12  13
HETATM   13  C7  UNL     1       9.568 -27.433   4.379  1.00  0.00     0.009 C
BRANCH  13  14
HETATM   14  C8  UNL     1      10.897 -26.817   4.230  1.00  0.00     0.020 C
HETATM   15  C9  UNL     1      11.002 -25.557   5.146  1.00  0.00     0.010 C
HETATM   16  C10 UNL     1      12.520 -25.869   5.103  1.00  0.00     0.038 C
HETATM   17  C11 UNL     1      12.025 -27.352   5.038  1.00  0.00     0.174 C
HETATM   18  F1  UNL     1      11.668 -27.640   6.356  1.00  0.00    -0.249 F
ENDBRANCH  13  14
ENDBRANCH  12  13
ENDBRANCH   7  12
ENDBRANCH   4   7
ENDBRANCH   2   3
ENDBRANCH   1   2
BRANCH   1  19
HETATM   19  N2  UNL     1       1.939 -29.124   5.464  1.00  0.00    -0.323 N
HETATM   20  C15 UNL     1       1.162 -28.452   6.433  1.00  0.00     0.362 C
HETATM   21  O2  UNL     1       1.738 -27.913   7.403  1.00  0.00    -0.238 OA
ATOM     22  H2  UNL     1       1.474 -29.564   4.671  1.00  0.00     0.165 HD
BRANCH  20  23
HETATM   23  O3  UNL     1      -0.214 -28.365   6.354  1.00  0.00    -0.294 OA
BRANCH  23  24
HETATM   24  C16 UNL     1      -1.114 -29.365   6.797  1.00  0.00     0.061 C
HETATM   25  C17 UNL     1      -1.927 -29.810   5.609  1.00  0.00     0.046 C
HETATM   26  C18 UNL     1      -0.413 -30.548   7.406  1.00  0.00     0.046 C
HETATM   27  C19 UNL     1      -2.080 -28.820   7.832  1.00  0.00     0.046 C
ENDBRANCH  23  24
ENDBRANCH  20  23
ENDBRANCH   1  19
BRANCH   1  28
HETATM   28  C20 UNL     1       3.774 -30.455   4.857  1.00  0.00     0.241 C
HETATM   29  O4  UNL     1       3.586 -31.537   5.515  1.00  0.00    -0.271 OA
HETATM   30  N3  UNL     1       4.288 -30.500   3.536  1.00  0.00    -0.346 N
ATOM     31  H3  UNL     1       4.432 -29.621   3.041  1.00  0.00     0.163 HD
BRANCH  30  32
HETATM   32  C21 UNL     1       4.618 -31.731   2.861  1.00  0.00     0.183 C
BRANCH  32  33
HETATM   33  C22 UNL     1       3.541 -32.218   1.933  1.00  0.00     0.120 C
HETATM   34  S1  UNL     1       2.499 -33.476   2.704  1.00  0.00    -0.095 SA
ENDBRANCH  32  33
BRANCH  32  35
HETATM   35  C23 UNL     1       5.922 -31.712   2.190  1.00  0.00     0.254 C
HETATM   36  N4  UNL     1       6.584 -32.934   1.932  1.00  0.00    -0.060 NA
HETATM   37  O5  UNL     1       6.465 -30.646   1.839  1.00  0.00    -0.275 OA
ENDBRANCH  32  35
ENDBRANCH  30  32
ENDBRANCH   1  28
TORSDOF 15
ENDMDL