MODEL 5
REMARK VINA RESULT: -8.088640659      4.315      7.721
REMARK  18 active torsions:
REMARK  status: ('A' for Active; 'I' for Inactive)
REMARK    1  A    between atoms: C5_5  and  C6_6
REMARK    2  A    between atoms: C10_10  and  C11_11
REMARK    3  A    between atoms: C12_12  and  C13_13
REMARK    4  A    between atoms: C13_13  and  N2_17
REMARK    5  A    between atoms: N2_17  and  C14_19
REMARK    6  A    between atoms: C14_19  and  C15_20
REMARK    7  A    between atoms: C15_20  and  C16_21
REMARK    8  A    between atoms: C16_21  and  C17_22
REMARK    9  A    between atoms: C17_22  and  C18_23
REMARK   10  A    between atoms: C18_23  and  C19_24
REMARK   11  A    between atoms: C19_24  and  C20_25
REMARK   12  A    between atoms: C20_25  and  O1_26
REMARK   13  A    between atoms: O1_26  and  C21_27
REMARK   14  A    between atoms: C22_29  and  C23_30
REMARK   15  A    between atoms: C23_30  and  O3_31
REMARK   16  A    between atoms: C24_33  and  O4_34
REMARK   17  A    between atoms: C25_36  and  O5_37
REMARK   18  A    between atoms: C26_39  and  O6_40
ROOT
HETATM    1  C16 UNL     1      11.146 -24.390   5.143  1.00  0.00     0.002 C
ENDROOT
BRANCH   1   2
HETATM    2  C15 UNL     1      12.037 -25.496   5.509  1.00  0.00     0.020 C
BRANCH   2   3
HETATM    3  C14 UNL     1      12.192 -26.653   4.587  1.00  0.00     0.121 C
BRANCH   3   4
HETATM    4  N2  UNL     1      11.239 -27.711   4.954  1.00  0.00    -0.376 N
ATOM      5  H2  UNL     1      10.966 -27.816   5.931  1.00  0.00     0.161 HD
BRANCH   4   6
HETATM    6  C13 UNL     1      10.693 -28.585   3.991  1.00  0.00     0.111 C
HETATM    7  N1  UNL     1       9.518 -28.377   3.521  1.00  0.00    -0.284 N
HETATM    8 CL1  UNL     1       8.608 -27.016   4.078  1.00  0.00     0.012 Cl
ATOM      9  H1  UNL     1       9.124 -29.009   2.824  1.00  0.00     0.182 HD
BRANCH   6  10
HETATM   10  C12 UNL     1      11.468 -29.732   3.525  1.00  0.00     0.049 C
HETATM   11  C11 UNL     1      10.907 -30.750   2.906  1.00  0.00     0.011 C
BRANCH  11  12
HETATM   12  C10 UNL     1      11.700 -31.897   2.443  1.00  0.00    -0.058 C
HETATM   13  C2  UNL     1      11.569 -32.310   1.048  1.00  0.00     0.014 C
HETATM   14  C1  UNL     1      12.308 -31.340   0.118  1.00  0.00     0.015 C
HETATM   15  C3  UNL     1      12.016 -33.720   0.806  1.00  0.00     0.009 C
HETATM   16  C4  UNL     1      13.353 -34.016   1.456  1.00  0.00     0.009 C
HETATM   17  C5  UNL     1      13.343 -33.687   2.916  1.00  0.00     0.012 C
HETATM   18  C9  UNL     1      12.504 -32.532   3.263  1.00  0.00    -0.014 C
BRANCH  17  19
HETATM   19  C6  UNL     1      12.810 -34.893   3.703  1.00  0.00    -0.015 C
HETATM   20  C7  UNL     1      13.733 -36.062   3.607  1.00  0.00     0.010 C
HETATM   21  C8  UNL     1      12.580 -34.452   5.137  1.00  0.00     0.010 C
ENDBRANCH  17  19
ENDBRANCH  11  12
ENDBRANCH   6  10
ENDBRANCH   4   6
ENDBRANCH   3   4
ENDBRANCH   2   3
ENDBRANCH   1   2
BRANCH   1  22
HETATM   22  C17 UNL     1      10.533 -23.521   6.148  1.00  0.00     0.000 C
BRANCH  22  23
HETATM   23  C18 UNL     1       9.210 -22.912   5.936  1.00  0.00     0.002 C
BRANCH  23  24
HETATM   24  C19 UNL     1       8.086 -23.859   5.609  1.00  0.00     0.026 C
BRANCH  24  25
HETATM   25  C20 UNL     1       6.848 -23.431   6.403  1.00  0.00     0.171 C
BRANCH  25  26
HETATM   26  O1  UNL     1       5.695 -24.026   5.942  1.00  0.00    -0.359 OA
BRANCH  26  27
HETATM   27  C21 UNL     1       5.751 -25.390   5.813  1.00  0.00     0.291 C
HETATM   28  O2  UNL     1       5.365 -25.911   7.067  1.00  0.00    -0.348 OA
HETATM   29  C22 UNL     1       5.494 -27.296   7.095  1.00  0.00     0.179 C
HETATM   30  C24 UNL     1       4.347 -27.836   6.244  1.00  0.00     0.180 C
HETATM   31  C25 UNL     1       4.620 -27.408   4.839  1.00  0.00     0.183 C
HETATM   32  C26 UNL     1       4.877 -25.928   4.708  1.00  0.00     0.204 C
BRANCH  29  33
HETATM   33  C23 UNL     1       5.228 -27.742   8.518  1.00  0.00     0.198 C
BRANCH  33  34
HETATM   34  O3  UNL     1       5.839 -28.963   8.799  1.00  0.00    -0.398 OA
ATOM     35  H3  UNL     1       6.444 -28.894   9.527  1.00  0.00     0.209 HD
ENDBRANCH  33  34
ENDBRANCH  29  33
BRANCH  30  36
HETATM   36  O4  UNL     1       4.334 -29.233   6.270  1.00  0.00    -0.390 OA
ATOM     37  H4  UNL     1       4.382 -29.583   5.388  1.00  0.00     0.210 HD
ENDBRANCH  30  36
BRANCH  31  38
HETATM   38  O5  UNL     1       3.653 -27.783   3.941  1.00  0.00    -0.390 OA
ATOM     39  H5  UNL     1       3.948 -27.799   3.038  1.00  0.00     0.210 HD
ENDBRANCH  31  38
BRANCH  32  40
HETATM   40  O6  UNL     1       5.517 -25.745   3.482  1.00  0.00    -0.388 OA
ATOM     41  H6  UNL     1       5.927 -26.561   3.217  1.00  0.00     0.210 HD
ENDBRANCH  32  40
ENDBRANCH  26  27
ENDBRANCH  25  26
ENDBRANCH  24  25
ENDBRANCH  23  24
ENDBRANCH  22  23
ENDBRANCH   1  22
TORSDOF 18
ENDMDL