MODEL 1
REMARK VINA RESULT: -8.017055520      0.000      0.000
REMARK  17 active torsions:
REMARK  status: ('A' for Active; 'I' for Inactive)
REMARK    1  A    between atoms: C2_2  and  C3_3
REMARK    2  A    between atoms: C3_3  and  C5_5
REMARK    3  A    between atoms: C5_5  and  O1_6
REMARK    4  A    between atoms: C5_5  and  C6_8
REMARK    5  A    between atoms: C6_8  and  C7_10
REMARK    6  A    between atoms: C7_10  and  C9_12
REMARK    7  A    between atoms: C9_12  and  C10_13
REMARK    8  A    between atoms: C10_13  and  C11_14
REMARK    9  A    between atoms: C11_14  and  C12_15
REMARK   10  A    between atoms: C12_15  and  C13_16
REMARK   11  A    between atoms: C13_16  and  N1_17
REMARK       I    between atoms: N1_17  and  C14_19
REMARK   12  A    between atoms: C14_19  and  C15_21
REMARK   13  A    between atoms: C16_23  and  N2_24
REMARK   14  A    between atoms: C20_28  and  C21_29
REMARK   15  A    between atoms: C24_32  and  O4_33
REMARK   16  A    between atoms: C25_35  and  O5_36
REMARK   17  A    between atoms: C26_38  and  O6_39
ROOT
HETATM    1  C15 UNL     1       3.701 -26.198   5.118  1.00  0.00     0.147 C
HETATM    2  O3  UNL     1       2.519 -26.722   4.810  1.00  0.00    -0.309 OA
HETATM    3  C16 UNL     1       2.032 -27.899   5.163  1.00  0.00     0.396 C
HETATM    4  C24 UNL     1       2.853 -28.731   6.107  1.00  0.00     0.209 C
HETATM    5  C25 UNL     1       4.314 -28.502   6.003  1.00  0.00     0.186 C
HETATM    6  C26 UNL     1       4.734 -27.150   5.543  1.00  0.00     0.211 C
ENDROOT
BRANCH   1   7
HETATM    7  C14 UNL     1       3.633 -24.944   5.924  1.00  0.00     0.273 C
HETATM    8  N1  UNL     1       4.744 -24.530   6.670  1.00  0.00    -0.355 N
ATOM      9  H1  UNL     1       5.597 -25.089   6.695  1.00  0.00     0.162 HD
HETATM   10  O2  UNL     1       2.588 -24.281   5.912  1.00  0.00    -0.266 OA
BRANCH   8  11
HETATM   11  C13 UNL     1       4.647 -23.281   7.408  1.00  0.00     0.123 C
BRANCH  11  12
HETATM   12  C12 UNL     1       5.787 -22.370   7.222  1.00  0.00     0.020 C
BRANCH  12  13
HETATM   13  C11 UNL     1       6.496 -22.634   5.914  1.00  0.00     0.002 C
BRANCH  13  14
HETATM   14  C10 UNL     1       7.910 -23.060   6.272  1.00  0.00     0.001 C
BRANCH  14  15
HETATM   15  C9  UNL     1       8.395 -24.281   5.605  1.00  0.00     0.007 C
BRANCH  15  16
HETATM   16  C7  UNL     1       9.756 -24.220   4.957  1.00  0.00     0.018 C
HETATM   17  C8  UNL     1      10.752 -23.811   5.989  1.00  0.00     0.013 C
BRANCH  16  18
HETATM   18  C6  UNL     1      10.035 -25.506   4.212  1.00  0.00     0.202 C
HETATM   19  F1  UNL     1       8.979 -25.475   3.223  1.00  0.00    -0.246 F
BRANCH  18  20
HETATM   20  C5  UNL     1       9.839 -26.782   4.905  1.00  0.00     0.156 C
BRANCH  20  21
HETATM   21  C3  UNL     1      11.016 -27.666   5.060  1.00  0.00     0.013 C
HETATM   22  C4  UNL     1      10.774 -28.919   4.204  1.00  0.00     0.012 C
BRANCH  21  23
HETATM   23  C2  UNL     1      12.269 -26.941   4.552  1.00  0.00     0.002 C
HETATM   24  C1  UNL     1      13.150 -27.944   3.847  1.00  0.00     0.005 C
ENDBRANCH  21  23
ENDBRANCH  20  21
BRANCH  20  25
HETATM   25  O1  UNL     1       8.770 -27.519   4.328  1.00  0.00    -0.392 OA
ATOM     26  H1  UNL     1       8.700 -27.302   3.406  1.00  0.00     0.210 HD
ENDBRANCH  20  25
ENDBRANCH  18  20
ENDBRANCH  16  18
ENDBRANCH  15  16
ENDBRANCH  14  15
ENDBRANCH  13  14
ENDBRANCH  12  13
ENDBRANCH  11  12
ENDBRANCH   8  11
ENDBRANCH   1   7
BRANCH   6  27
HETATM   27  O6  UNL     1       5.662 -27.326   4.480  1.00  0.00    -0.386 OA
ATOM     28  H6  UNL     1       6.469 -26.875   4.699  1.00  0.00     0.210 HD
ENDBRANCH   6  27
BRANCH   3  29
HETATM   29  N2  UNL     1       1.721 -28.646   3.935  1.00  0.00     0.125 N
HETATM   30  C17 UNL     1       0.488 -28.249   3.333  1.00  0.00     0.276 C
HETATM   31  C18 UNL     1      -0.541 -29.294   3.734  1.00  0.00     0.033 C
HETATM   32  C19 UNL     1       0.240 -30.271   4.566  1.00  0.00     0.038 C
HETATM   33  C20 UNL     1       1.677 -30.061   4.109  1.00  0.00     0.229 C
BRANCH  33  34
HETATM   34  C21 UNL     1       1.820 -30.750   2.743  1.00  0.00     0.011 C
HETATM   35  C22 UNL     1       1.602 -32.224   2.808  1.00  0.00     0.011 C
HETATM   36  C23 UNL     1       3.095 -30.436   2.047  1.00  0.00     0.011 C
ENDBRANCH  33  34
ENDBRANCH   3  29
BRANCH   5  37
HETATM   37  O5  UNL     1       4.960 -28.737   7.243  1.00  0.00    -0.390 OA
ATOM     38  H5  UNL     1       5.865 -28.448   7.221  1.00  0.00     0.210 HD
ENDBRANCH   5  37
BRANCH   4  39
HETATM   39  O4  UNL     1       2.410 -28.567   7.441  1.00  0.00    -0.388 OA
ATOM     40  H4  UNL     1       3.048 -28.083   7.952  1.00  0.00     0.210 HD
ENDBRANCH   4  39
TORSDOF 17
ENDMDL