MODEL 5
REMARK VINA RESULT: -7.835136487      6.540     10.463
REMARK  13 active torsions:
REMARK  status: ('A' for Active; 'I' for Inactive)
REMARK    1  A    between atoms: C2_2  and  N1_3
REMARK    2  A    between atoms: C2_2  and  C12_26
REMARK       I    between atoms: N1_3  and  C3_5
REMARK    3  A    between atoms: C3_5  and  C4_7
REMARK    4  A    between atoms: C4_7  and  N2_8
REMARK    5  A    between atoms: N2_8  and  C5_10
REMARK    6  A    between atoms: C5_10  and  C6_11
REMARK    7  A    between atoms: C5_10  and  C10_20
REMARK    8  A    between atoms: C7_14  and  C8_15
REMARK    9  A    between atoms: C10_20  and  N5_22
REMARK       I    between atoms: C12_26  and  N6_28
REMARK   10  A    between atoms: N6_28  and  C13_30
REMARK   11  A    between atoms: C13_30  and  C14_31
REMARK   12  A    between atoms: C13_30  and  O4_33
REMARK   13  A    between atoms: O4_33  and  C15_34
ROOT
HETATM    1  N1  UNL     1      10.497 -24.492   5.035  1.00  0.00    -0.347 N
ATOM      2  H1  UNL     1      10.235 -24.658   4.064  1.00  0.00     0.163 HD
HETATM    3  C3  UNL     1      11.734 -24.971   5.529  1.00  0.00     0.235 C
HETATM    4  O1  UNL     1      12.000 -24.708   6.754  1.00  0.00    -0.272 OA
ENDROOT
BRANCH   1   5
HETATM    5  C2  UNL     1       9.595 -23.757   5.926  1.00  0.00     0.172 C
HETATM    6  C1  UNL     1       9.870 -22.282   5.949  1.00  0.00     0.042 C
BRANCH   5   7
HETATM    7  C12 UNL     1       8.177 -24.033   5.489  1.00  0.00     0.242 C
HETATM    8  O3  UNL     1       7.353 -23.099   5.539  1.00  0.00    -0.271 OA
HETATM    9  N6  UNL     1       7.814 -25.310   5.034  1.00  0.00    -0.331 N
ATOM     10  H6  UNL     1       8.493 -26.071   5.000  1.00  0.00     0.165 HD
BRANCH   9  11
HETATM   11  C13 UNL     1       6.413 -25.513   4.605  1.00  0.00     0.252 C
BRANCH  11  12
HETATM   12  C14 UNL     1       6.493 -26.122   3.192  1.00  0.00     0.275 C
HETATM   13  F1  UNL     1       7.664 -25.779   2.568  1.00  0.00    -0.251 F
ENDBRANCH  11  12
BRANCH  11  14
HETATM   14  O4  UNL     1       5.761 -26.378   5.419  1.00  0.00    -0.358 OA
BRANCH  14  15
HETATM   15  C15 UNL     1       4.599 -26.953   4.899  1.00  0.00     0.132 C
HETATM   16  C16 UNL     1       3.466 -26.054   5.360  1.00  0.00     0.016 C
HETATM   17  C17 UNL     1       2.109 -26.564   5.012  1.00  0.00     0.012 C
HETATM   18  C21 UNL     1       3.515 -25.892   6.870  1.00  0.00     0.012 C
HETATM   19  C18 UNL     1       1.902 -27.907   5.661  1.00  0.00    -0.013 C
HETATM   20  C19 UNL     1       2.079 -27.860   7.158  1.00  0.00     0.009 C
HETATM   21  C24 UNL     1       2.990 -28.814   5.119  1.00  0.00     0.012 C
HETATM   22  C20 UNL     1       3.428 -27.259   7.512  1.00  0.00    -0.013 C
HETATM   23  C22 UNL     1       4.506 -28.170   6.998  1.00  0.00     0.012 C
HETATM   24  C23 UNL     1       4.358 -28.315   5.496  1.00  0.00     0.016 C
ENDBRANCH  14  15
ENDBRANCH  11  14
ENDBRANCH   9  11
ENDBRANCH   5   7
ENDBRANCH   1   5
BRANCH   3  25
HETATM   25  C4  UNL     1      12.717 -25.752   4.716  1.00  0.00     0.218 C
BRANCH  25  26
HETATM   26  N2  UNL     1      12.483 -27.137   4.869  1.00  0.00    -0.401 N
ATOM     27  H2  UNL     1      12.655 -27.603   5.759  1.00  0.00     0.154 HD
BRANCH  26  28
HETATM   28  C5  UNL     1      12.003 -27.859   3.752  1.00  0.00     0.164 C
BRANCH  28  29
HETATM   29  C6  UNL     1      12.994 -28.866   3.226  1.00  0.00     0.076 A
HETATM   30  N3  UNL     1      14.275 -28.690   2.947  1.00  0.00    -0.348 N
HETATM   31  C7  UNL     1      14.978 -29.666   2.471  1.00  0.00     0.105 A
ATOM     32  H3  UNL     1      14.711 -27.781   3.107  1.00  0.00     0.166 HD
HETATM   33  C9  UNL     1      14.343 -30.867   2.274  1.00  0.00     0.086 A
HETATM   34  S1  UNL     1      12.757 -30.507   2.794  1.00  0.00    -0.084 SA
BRANCH  31  35
HETATM   35  C8  UNL     1      16.420 -29.525   2.141  1.00  0.00     0.281 C
HETATM   36  N4  UNL     1      17.361 -30.540   2.472  1.00  0.00    -0.056 NA
HETATM   37  O2  UNL     1      16.865 -28.509   1.559  1.00  0.00    -0.269 OA
ENDBRANCH  31  35
ENDBRANCH  28  29
BRANCH  28  38
HETATM   38  C10 UNL     1      10.711 -28.605   4.062  1.00  0.00     0.208 C
HETATM   39  C11 UNL     1      10.372 -28.499   5.540  1.00  0.00     0.042 C
BRANCH  38  40
HETATM   40  N5  UNL     1       9.646 -28.014   3.300  1.00  0.00    -0.073 N
ATOM     41  H53 UNL     1       9.442 -27.057   3.590  1.00  0.00     0.274 HD
ATOM     42  H52 UNL     1       9.917 -27.814   2.338  1.00  0.00     0.274 HD
ATOM     43  H51 UNL     1       8.828 -28.621   3.357  1.00  0.00     0.274 HD
ENDBRANCH  38  40
ENDBRANCH  28  38
ENDBRANCH  26  28
ENDBRANCH  25  26
ENDBRANCH   3  25
TORSDOF 13
ENDMDL