MODEL 1
REMARK VINA RESULT: -7.913681973      0.000      0.000
REMARK  14 active torsions:
REMARK  status: ('A' for Active; 'I' for Inactive)
REMARK    1  A    between atoms: C5_5  and  N1_6
REMARK    2  A    between atoms: N1_6  and  C6_8
REMARK    3  A    between atoms: C6_8  and  C7_9
REMARK    4  A    between atoms: C7_9  and  O1_10
REMARK    5  A    between atoms: C7_9  and  C8_12
REMARK    6  A    between atoms: C8_12  and  C9_13
REMARK    7  A    between atoms: C8_12  and  N2_16
REMARK    8  A    between atoms: C9_13  and  C10_14
REMARK       I    between atoms: N2_16  and  C11_18
REMARK    9  A    between atoms: C11_18  and  C12_20
REMARK   10  A    between atoms: C12_20  and  C13_21
REMARK   11  A    between atoms: C12_20  and  N3_28
REMARK   12  A    between atoms: C13_21  and  C14_22
REMARK   13  A    between atoms: N3_28  and  C20_30
REMARK   14  A    between atoms: C20_30  and  C21_31
ROOT
HETATM    1  C8  UNL     1       4.023 -26.730   6.084  1.00  0.00     0.119 C
ENDROOT
BRANCH   1   2
HETATM    2  C7  UNL     1       3.125 -27.036   7.277  1.00  0.00     0.179 C
BRANCH   2   3
HETATM    3  C6  UNL     1       1.876 -27.738   6.880  1.00  0.00     0.096 C
BRANCH   3   4
HETATM    4  N1  UNL     1       1.672 -29.097   7.032  1.00  0.00    -0.351 N
ATOM      5  H1  UNL     1       1.940 -29.530   7.915  1.00  0.00     0.166 HD
BRANCH   4   6
HETATM    6  C5  UNL     1       1.108 -29.918   6.020  1.00  0.00     0.122 C
HETATM    7  C4  UNL     1       0.718 -29.319   4.732  1.00  0.00     0.114 C
HETATM    8  C2  UNL     1       0.651 -30.299   3.585  1.00  0.00     0.028 C
HETATM    9  C1  UNL     1      -0.687 -30.980   3.475  1.00  0.00     0.038 C
HETATM   10  C3  UNL     1       0.836 -29.485   2.304  1.00  0.00     0.038 C
HETATM   11  N4  UNL     1       1.668 -31.277   3.587  1.00  0.00    -0.383 N
HETATM   12  C22 UNL     1       2.308 -31.553   4.817  1.00  0.00     0.131 C
ATOM     13  H4  UNL     1       1.932 -31.767   2.733  1.00  0.00     0.157 HD
HETATM   14  O5  UNL     1       1.727 -31.166   5.962  1.00  0.00    -0.309 OA
HETATM   15  C23 UNL     1       3.774 -31.130   4.686  1.00  0.00     0.070 C
HETATM   16  C24 UNL     1       2.381 -33.102   4.892  1.00  0.00     0.070 C
ENDBRANCH   4   6
ENDBRANCH   3   4
ENDBRANCH   2   3
BRANCH   2  17
HETATM   17  O1  UNL     1       3.884 -28.101   7.922  1.00  0.00    -0.388 OA
ATOM     18  H1  UNL     1       4.501 -28.347   7.242  1.00  0.00     0.210 HD
ENDBRANCH   2  17
ENDBRANCH   1   2
BRANCH   1  19
HETATM   19  C9  UNL     1       3.248 -26.552   4.810  1.00  0.00     0.043 C
BRANCH  19  20
HETATM   20  C10 UNL     1       3.766 -27.443   3.730  1.00  0.00     0.116 C
HETATM   21 CL1  UNL     1       5.494 -27.117   3.397  1.00  0.00    -0.130 Cl
ENDBRANCH  19  20
ENDBRANCH   1  19
BRANCH   1  22
HETATM   22  N2  UNL     1       4.682 -25.446   6.406  1.00  0.00    -0.352 N
HETATM   23  C11 UNL     1       5.984 -25.461   6.956  1.00  0.00     0.240 C
HETATM   24  O2  UNL     1       6.513 -26.590   7.126  1.00  0.00    -0.271 OA
ATOM     25  H2  UNL     1       4.203 -24.562   6.233  1.00  0.00     0.163 HD
BRANCH  23  26
HETATM   26  C12 UNL     1       6.651 -24.185   7.301  1.00  0.00     0.173 C
BRANCH  26  27
HETATM   27  C13 UNL     1       7.375 -23.727   6.042  1.00  0.00     0.039 C
BRANCH  27  28
HETATM   28  C14 UNL     1       8.714 -24.312   5.819  1.00  0.00    -0.012 C
HETATM   29  C15 UNL     1       8.889 -24.998   4.490  1.00  0.00     0.005 C
HETATM   30  C16 UNL     1      10.220 -25.722   4.558  1.00  0.00     0.000 C
HETATM   31  C17 UNL     1      11.336 -24.771   4.820  1.00  0.00     0.000 C
HETATM   32  C18 UNL     1      11.086 -23.779   5.917  1.00  0.00     0.000 C
HETATM   33  C19 UNL     1       9.719 -23.156   5.825  1.00  0.00     0.005 C
ENDBRANCH  27  28
ENDBRANCH  26  27
BRANCH  26  34
HETATM   34  N3  UNL     1       5.836 -23.198   7.865  1.00  0.00    -0.380 N
ATOM     35  H3  UNL     1       5.587 -23.308   8.849  1.00  0.00     0.160 HD
BRANCH  34  36
HETATM   36  C20 UNL     1       5.342 -22.099   7.216  1.00  0.00     0.169 C
BRANCH  36  37
HETATM   37  C21 UNL     1       3.861 -22.006   7.468  1.00  0.00     0.214 C
HETATM   38  O3  UNL     1       3.079 -22.886   7.035  1.00  0.00    -0.644 OA
HETATM   39  O4  UNL     1       3.287 -20.969   8.180  1.00  0.00    -0.644 OA
ENDBRANCH  36  37
ENDBRANCH  34  36
ENDBRANCH  26  34
ENDBRANCH  23  26
ENDBRANCH   1  22
TORSDOF 14
ENDMDL