MODEL 4
REMARK VINA RESULT: -7.096323845      2.185      3.097
REMARK  16 active torsions:
REMARK  status: ('A' for Active; 'I' for Inactive)
REMARK    1  A    between atoms: O1_2  and  C2_3
REMARK    2  A    between atoms: C2_3  and  C3_5
REMARK    3  A    between atoms: C3_5  and  C4_6
REMARK    4  A    between atoms: C4_6  and  C5_7
REMARK    5  A    between atoms: C4_6  and  C10_16
REMARK    6  A    between atoms: C5_7  and  C6_8
REMARK       I    between atoms: C6_8  and  N1_10
REMARK    7  A    between atoms: N1_10  and  C7_12
REMARK    8  A    between atoms: C7_12  and  C8_13
REMARK    9  A    between atoms: C8_13  and  C9_14
REMARK   10  A    between atoms: C10_16  and  C11_17
REMARK   11  A    between atoms: C10_16  and  N2_21
REMARK   12  A    between atoms: C11_17  and  C12_18
REMARK       I    between atoms: N2_21  and  C15_23
REMARK   13  A    between atoms: C15_23  and  C16_25
REMARK   14  A    between atoms: C17_26  and  O5_27
REMARK   15  A    between atoms: C18_29  and  C19_30
REMARK   16  A    between atoms: C19_30  and  O6_33
ROOT
HETATM    1  C10 UNL     1       5.958 -24.406   6.320  1.00  0.00     0.118 C
ENDROOT
BRANCH   1   2
HETATM    2  C4  UNL     1       7.396 -24.638   5.982  1.00  0.00    -0.024 C
BRANCH   2   3
HETATM    3  C3  UNL     1       8.205 -23.559   5.439  1.00  0.00     0.091 C
BRANCH   3   4
HETATM    4  C2  UNL     1       9.552 -23.247   5.878  1.00  0.00     0.283 C
HETATM    5  O2  UNL     1      10.001 -22.108   6.188  1.00  0.00    -0.260 OA
BRANCH   4   6
HETATM    6  O1  UNL     1      10.498 -24.247   5.993  1.00  0.00    -0.323 OA
HETATM    7  C1  UNL     1      11.868 -24.083   5.674  1.00  0.00     0.213 C
ENDBRANCH   4   6
ENDBRANCH   3   4
ENDBRANCH   2   3
BRANCH   2   8
HETATM    8  C5  UNL     1       7.740 -26.051   5.785  1.00  0.00     0.083 C
BRANCH   8   9
HETATM    9  C6  UNL     1       8.391 -26.601   4.641  1.00  0.00     0.241 C
HETATM   10  O3  UNL     1       8.006 -26.791   3.475  1.00  0.00    -0.269 OA
HETATM   11  N1  UNL     1       9.768 -27.040   4.825  1.00  0.00    -0.357 N
ATOM     12  H1  UNL     1      10.194 -26.936   5.746  1.00  0.00     0.162 HD
BRANCH  11  13
HETATM   13  C7  UNL     1      10.550 -27.611   3.771  1.00  0.00     0.125 C
BRANCH  13  14
HETATM   14  C8  UNL     1      12.004 -27.405   4.079  1.00  0.00     0.051 C
BRANCH  14  15
HETATM   15  C9  UNL     1      12.833 -28.516   3.473  1.00  0.00     0.224 C
HETATM   16  F1  UNL     1      14.128 -28.091   3.303  1.00  0.00    -0.255 F
ENDBRANCH  14  15
ENDBRANCH  13  14
ENDBRANCH  11  13
ENDBRANCH   8   9
ENDBRANCH   2   8
ENDBRANCH   1   2
BRANCH   1  17
HETATM   17  C11 UNL     1       5.477 -23.601   7.409  1.00  0.00     0.034 C
BRANCH  17  18
HETATM   18  C12 UNL     1       4.632 -22.384   7.133  1.00  0.00    -0.021 C
HETATM   19  C13 UNL     1       5.266 -21.150   7.832  1.00  0.00     0.009 C
HETATM   20  C14 UNL     1       3.257 -22.474   7.722  1.00  0.00     0.009 C
ENDBRANCH  17  18
ENDBRANCH   1  17
BRANCH   1  21
HETATM   21  N2  UNL     1       5.239 -25.709   6.365  1.00  0.00    -0.352 N
HETATM   22  C15 UNL     1       4.551 -26.257   5.275  1.00  0.00     0.226 C
HETATM   23  O4  UNL     1       4.558 -25.572   4.202  1.00  0.00    -0.273 OA
ATOM     24  H2  UNL     1       5.247 -26.233   7.241  1.00  0.00     0.163 HD
BRANCH  22  25
HETATM   25  C16 UNL     1       3.850 -27.560   5.350  1.00  0.00     0.125 C
HETATM   26  C17 UNL     1       4.126 -28.416   4.185  1.00  0.00     0.149 C
HETATM   27  C18 UNL     1       3.116 -28.327   3.135  1.00  0.00     0.111 C
HETATM   28  S1  UNL     1       1.575 -28.074   4.100  1.00  0.00    -0.148 SA
HETATM   29  C22 UNL     1       2.410 -27.337   5.557  1.00  0.00     0.016 C
HETATM   30  C23 UNL     1       1.903 -28.033   6.831  1.00  0.00     0.028 C
HETATM   31  C24 UNL     1       1.943 -25.921   5.636  1.00  0.00     0.028 C
BRANCH  26  32
HETATM   32  O5  UNL     1       5.384 -28.128   3.666  1.00  0.00    -0.393 OA
ATOM     33  H5  UNL     1       5.302 -27.739   2.804  1.00  0.00     0.210 HD
ENDBRANCH  26  32
BRANCH  27  34
HETATM   34  C19 UNL     1       2.903 -29.561   2.312  1.00  0.00     0.065 C
HETATM   35  C20 UNL     1       1.535 -29.636   1.693  1.00  0.00     0.047 C
HETATM   36  C21 UNL     1       3.070 -30.793   3.193  1.00  0.00     0.047 C
BRANCH  34  37
HETATM   37  O6  UNL     1       3.848 -29.680   1.293  1.00  0.00    -0.389 OA
ATOM     38  H6  UNL     1       4.554 -30.271   1.529  1.00  0.00     0.210 HD
ENDBRANCH  34  37
ENDBRANCH  27  34
ENDBRANCH  22  25
ENDBRANCH   1  21
TORSDOF 16
ENDMDL