MODEL 4
REMARK VINA RESULT: -7.756651296      2.119      2.967
REMARK  9 active torsions:
REMARK  status: ('A' for Active; 'I' for Inactive)
REMARK    1  A    between atoms: C1_2  and  C2_3
REMARK    2  A    between atoms: C2_3  and  C3_4
REMARK    3  A    between atoms: C3_4  and  N1_5
REMARK    4  A    between atoms: C8_15  and  C9_16
REMARK    5  A    between atoms: C13_24  and  C14_25
REMARK    6  A    between atoms: C14_25  and  C15_26
REMARK    7  A    between atoms: C14_25  and  C16_28
REMARK    8  A    between atoms: C16_28  and  C17_29
REMARK    9  A    between atoms: C17_29  and  N6_30
ROOT
HETATM    1  C9  UNL     1     -15.324 -26.667  -8.796  1.00  0.00     0.089 A
HETATM    2  N4  UNL     1     -16.042 -26.395  -7.668  1.00  0.00    -0.297 N
ATOM      3  H4  UNL     1     -16.152 -27.042  -6.887  1.00  0.00     0.187 HD
HETATM    4  N5  UNL     1     -16.573 -25.199  -7.714  1.00  0.00    -0.299 N
ATOM      5  H5  UNL     1     -17.150 -24.781  -6.984  1.00  0.00     0.187 HD
HETATM    6  C10 UNL     1     -16.244 -24.618  -8.856  1.00  0.00     0.060 A
HETATM    7  C11 UNL     1     -16.519 -23.404  -9.403  1.00  0.00     0.032 A
HETATM    8  C12 UNL     1     -16.030 -23.058 -10.643  1.00  0.00     0.010 A
HETATM    9  C13 UNL     1     -15.241 -23.938 -11.368  1.00  0.00    -0.052 A
HETATM   10  C22 UNL     1     -14.988 -25.164 -10.767  1.00  0.00     0.023 A
HETATM   11  C23 UNL     1     -15.451 -25.541  -9.552  1.00  0.00     0.023 A
ENDROOT
BRANCH   1  12
HETATM   12  C8  UNL     1     -14.608 -27.896  -9.073  1.00  0.00     0.091 A
HETATM   13  N3  UNL     1     -13.670 -28.537  -8.381  1.00  0.00    -0.297 N
HETATM   14  N2  UNL     1     -13.301 -29.647  -9.034  1.00  0.00    -0.299 N
ATOM     15  H3  UNL     1     -13.289 -28.229  -7.487  1.00  0.00     0.187 HD
HETATM   16  C7  UNL     1     -13.996 -29.749 -10.168  1.00  0.00     0.063 A
ATOM     17  H2  UNL     1     -12.597 -30.312  -8.714  1.00  0.00     0.187 HD
HETATM   18  C6  UNL     1     -14.223 -30.549 -11.364  1.00  0.00     0.034 A
HETATM   19  C24 UNL     1     -14.839 -28.656 -10.233  1.00  0.00     0.049 A
HETATM   20  C5  UNL     1     -15.129 -30.014 -12.121  1.00  0.00     0.032 A
HETATM   21  C4  UNL     1     -15.585 -28.776 -11.459  1.00  0.00     0.043 A
HETATM   22  N1  UNL     1     -16.484 -27.976 -11.922  1.00  0.00    -0.389 N
ATOM     23  H1  UNL     1     -16.723 -27.145 -11.380  1.00  0.00     0.159 HD
BRANCH  22  24
HETATM   24  C3  UNL     1     -17.166 -28.202 -13.167  1.00  0.00     0.122 C
BRANCH  24  25
HETATM   25  C2  UNL     1     -16.522 -27.398 -14.249  1.00  0.00     0.051 C
BRANCH  25  26
HETATM   26  C1  UNL     1     -15.865 -28.291 -15.298  1.00  0.00     0.224 C
HETATM   27  F1  UNL     1     -14.505 -28.200 -15.239  1.00  0.00    -0.255 F
ENDBRANCH  25  26
ENDBRANCH  24  25
ENDBRANCH  22  24
ENDBRANCH   1  12
BRANCH   9  28
HETATM   28  C14 UNL     1     -14.694 -23.602 -12.695  1.00  0.00     0.030 C
BRANCH  28  29
HETATM   29  C15 UNL     1     -15.671 -22.720 -13.415  1.00  0.00     0.094 C
HETATM   30 BR1  UNL     1     -17.277 -23.690 -13.909  1.00  0.00    -0.096 Br
ENDBRANCH  28  29
BRANCH  28  31
HETATM   31  C16 UNL     1     -13.295 -23.107 -12.694  1.00  0.00     0.040 C
BRANCH  31  32
HETATM   32  C17 UNL     1     -13.014 -21.860 -11.944  1.00  0.00     0.273 C
BRANCH  32  33
HETATM   33  N6  UNL     1     -11.841 -21.157 -12.452  1.00  0.00     0.088 N
HETATM   34  C18 UNL     1     -12.134 -19.889 -13.003  1.00  0.00     0.272 C
HETATM   35  C19 UNL     1     -11.315 -19.685 -14.218  1.00  0.00     0.032 C
HETATM   36  C20 UNL     1     -10.532 -20.955 -14.389  1.00  0.00     0.032 C
HETATM   37  C21 UNL     1     -11.276 -21.948 -13.506  1.00  0.00     0.272 C
ENDBRANCH  32  33
ENDBRANCH  31  32
ENDBRANCH  28  31
ENDBRANCH   9  28
TORSDOF 9
ENDMDL