MODEL 1
REMARK VINA RESULT: -7.424441519      0.000      0.000
REMARK  14 active torsions:
REMARK  status: ('A' for Active; 'I' for Inactive)
REMARK    1  A    between atoms: N1_1  and  N2_4
REMARK    2  A    between atoms: N2_4  and  N3_5
REMARK    3  A    between atoms: N3_5  and  C1_7
REMARK    4  A    between atoms: C3_9  and  C4_10
REMARK    5  A    between atoms: C4_10  and  O1_11
REMARK    6  A    between atoms: C6_15  and  C7_16
REMARK    7  A    between atoms: C7_16  and  C8_17
REMARK    8  A    between atoms: C8_17  and  C9_18
REMARK    9  A    between atoms: C9_18  and  C10_19
REMARK   10  A    between atoms: C10_19  and  C11_20
REMARK   11  A    between atoms: C11_20  and  O3_21
REMARK   12  A    between atoms: C11_20  and  N4_23
REMARK   13  A    between atoms: N4_23  and  C12_25
REMARK   14  A    between atoms: C12_25  and  C13_26
ROOT
HETATM    1  C1  UNL     1     -21.700 -24.034 -14.456  1.00  0.00     0.123 C
HETATM    2  C2  UNL     1     -21.930 -24.830 -13.183  1.00  0.00     0.062 C
HETATM    3  C3  UNL     1     -20.905 -24.571 -12.111  1.00  0.00     0.147 C
HETATM    4  O2  UNL     1     -19.685 -24.125 -12.653  1.00  0.00    -0.378 OA
HETATM    5  C5  UNL     1     -19.406 -24.755 -13.834  1.00  0.00     0.132 C
HETATM    6  C6  UNL     1     -18.060 -24.580 -14.400  1.00  0.00     0.015 C
HETATM    7  C19 UNL     1     -18.110 -23.061 -14.807  1.00  0.00     0.007 C
HETATM    8  C20 UNL     1     -19.580 -22.809 -15.087  1.00  0.00     0.010 C
HETATM    9  C21 UNL     1     -20.299 -24.121 -14.923  1.00  0.00     0.040 C
ENDROOT
BRANCH   6  10
HETATM   10  C7  UNL     1     -16.920 -24.663 -13.363  1.00  0.00     0.007 C
BRANCH  10  11
HETATM   11  C8  UNL     1     -16.241 -23.315 -13.477  1.00  0.00     0.001 C
BRANCH  11  12
HETATM   12  C9  UNL     1     -14.850 -23.287 -12.900  1.00  0.00     0.008 C
BRANCH  12  13
HETATM   13  C10 UNL     1     -14.693 -22.915 -11.494  1.00  0.00     0.083 C
BRANCH  13  14
HETATM   14  C11 UNL     1     -13.496 -22.232 -11.034  1.00  0.00     0.111 C
BRANCH  14  15
HETATM   15  O3  UNL     1     -13.230 -22.516  -9.755  1.00  0.00    -0.350 OA
ATOM     16  H3  UNL     1     -12.607 -21.903  -9.384  1.00  0.00     0.219 HD
ENDBRANCH  14  15
BRANCH  14  17
HETATM   17  N4  UNL     1     -12.645 -21.384 -11.702  1.00  0.00    -0.370 N
ATOM     18  H4  UNL     1     -11.677 -21.690 -11.608  1.00  0.00     0.161 HD
BRANCH  17  19
HETATM   19  C12 UNL     1     -12.729 -20.208 -12.483  1.00  0.00     0.161 C
BRANCH  19  20
HETATM   20  C13 UNL     1     -11.529 -20.190 -13.391  1.00  0.00    -0.023 A
HETATM   21  C14 UNL     1     -10.850 -21.243 -13.869  1.00  0.00     0.012 A
HETATM   22  C15 UNL     1      -9.758 -21.011 -14.749  1.00  0.00     0.024 A
HETATM   23  C16 UNL     1      -9.390 -19.746 -15.112  1.00  0.00     0.035 A
HETATM   24 CL1  UNL     1      -7.977 -19.499 -16.122  1.00  0.00    -0.084 Cl
HETATM   25  C17 UNL     1     -10.098 -18.641 -14.617  1.00  0.00     0.043 A
HETATM   26  C18 UNL     1     -11.133 -18.885 -13.785  1.00  0.00     0.020 A
HETATM   27 BR1  UNL     1     -12.129 -17.384 -13.060  1.00  0.00    -0.050 Br
ENDBRANCH  19  20
ENDBRANCH  17  19
ENDBRANCH  14  17
ENDBRANCH  13  14
ENDBRANCH  12  13
ENDBRANCH  11  12
ENDBRANCH  10  11
ENDBRANCH   6  10
BRANCH   3  28
HETATM   28  C4  UNL     1     -21.486 -23.733 -11.042  1.00  0.00     0.196 C
BRANCH  28  29
HETATM   29  O1  UNL     1     -21.388 -22.363 -11.306  1.00  0.00    -0.398 OA
ATOM     30  H1  UNL     1     -21.040 -21.866 -10.573  1.00  0.00     0.209 HD
ENDBRANCH  28  29
ENDBRANCH   3  28
BRANCH   1  31
HETATM   31  N3  UNL     1     -22.562 -24.685 -15.474  1.00  0.00    -0.247 N
ATOM     32  H3  UNL     1     -22.772 -25.683 -15.475  1.00  0.00     0.197 HD
BRANCH  31  33
HETATM   33  N2  UNL     1     -23.007 -23.887 -16.331  1.00  0.00    -0.248 NA
BRANCH  33  34
HETATM   34  N1  UNL     1     -23.361 -23.273 -17.334  1.00  0.00    -0.261 N
ATOM     35  H12 UNL     1     -22.623 -22.586 -17.180  1.00  0.00     0.193 HD
ATOM     36  H11 UNL     1     -23.797 -22.912 -18.182  1.00  0.00     0.193 HD
ENDBRANCH  33  34
ENDBRANCH  31  33
ENDBRANCH   1  31
TORSDOF 14
ENDMDL