MODEL 5
REMARK VINA RESULT: -7.470141198      2.940      4.875
REMARK  9 active torsions:
REMARK  status: ('A' for Active; 'I' for Inactive)
REMARK    1  A    between atoms: S1_2  and  N1_4
REMARK    2  A    between atoms: S1_2  and  C20_28
REMARK    3  A    between atoms: N1_4  and  C1_6
REMARK    4  A    between atoms: C1_6  and  C2_7
REMARK    5  A    between atoms: C2_7  and  C3_8
REMARK    6  A    between atoms: C3_8  and  C4_9
REMARK    7  A    between atoms: C4_9  and  N2_10
REMARK    8  A    between atoms: C7_13  and  N3_14
REMARK    9  A    between atoms: N3_14  and  C8_16
ROOT
HETATM    1  N2  UNL     1     -17.723 -27.259 -14.518  1.00  0.00     0.088 N
HETATM    2  C5  UNL     1     -17.834 -27.950 -15.794  1.00  0.00     0.274 C
HETATM    3  C6  UNL     1     -16.532 -28.661 -16.160  1.00  0.00     0.055 C
HETATM    4  C7  UNL     1     -16.175 -29.683 -15.131  1.00  0.00     0.080 C
HETATM    5  C18 UNL     1     -16.310 -28.997 -13.759  1.00  0.00     0.055 C
HETATM    6  C19 UNL     1     -16.376 -27.499 -14.009  1.00  0.00     0.274 C
ENDROOT
BRANCH   1   7
HETATM    7  C4  UNL     1     -18.067 -25.857 -14.617  1.00  0.00     0.272 C
BRANCH   7   8
HETATM    8  C3  UNL     1     -17.184 -25.135 -13.627  1.00  0.00     0.032 C
BRANCH   8   9
HETATM    9  C2  UNL     1     -17.424 -23.686 -13.467  1.00  0.00     0.022 C
BRANCH   9  10
HETATM   10  C1  UNL     1     -17.357 -23.158 -12.079  1.00  0.00     0.132 C
BRANCH  10  11
HETATM   11  N1  UNL     1     -16.702 -24.145 -11.204  1.00  0.00    -0.315 N
ATOM     12  H1  UNL     1     -16.934 -25.138 -11.171  1.00  0.00     0.172 HD
BRANCH  11  13
HETATM   13  S1  UNL     1     -15.498 -23.395 -10.252  1.00  0.00     0.258 S
HETATM   14  O1  UNL     1     -16.056 -22.199  -9.498  1.00  0.00    -0.201 OA
HETATM   15  O2  UNL     1     -14.981 -24.333  -9.244  1.00  0.00    -0.201 OA
BRANCH  13  16
HETATM   16  C20 UNL     1     -14.200 -22.807 -11.277  1.00  0.00     0.079 A
HETATM   17  C21 UNL     1     -13.871 -23.441 -12.432  1.00  0.00     0.027 A
HETATM   18  C22 UNL     1     -12.832 -23.039 -13.253  1.00  0.00     0.025 A
HETATM   19  C23 UNL     1     -12.064 -21.934 -12.907  1.00  0.00     0.034 A
HETATM   20 CL1  UNL     1     -10.733 -21.394 -13.902  1.00  0.00    -0.084 Cl
HETATM   21  C24 UNL     1     -12.417 -21.300 -11.727  1.00  0.00     0.025 A
HETATM   22  C25 UNL     1     -13.443 -21.702 -10.925  1.00  0.00     0.027 A
ENDBRANCH  13  16
ENDBRANCH  11  13
ENDBRANCH  10  11
ENDBRANCH   9  10
ENDBRANCH   8   9
ENDBRANCH   7   8
ENDBRANCH   1   7
BRANCH   4  23
HETATM   23  N3  UNL     1     -14.902 -30.255 -15.289  1.00  0.00    -0.412 N
ATOM     24  H3  UNL     1     -14.303 -29.934 -16.050  1.00  0.00     0.154 HD
BRANCH  23  25
HETATM   25  C8  UNL     1     -14.428 -31.268 -14.415  1.00  0.00     0.085 C
HETATM   26  C9  UNL     1     -13.010 -31.120 -14.010  1.00  0.00     0.009 C
HETATM   27  C10 UNL     1     -12.030 -30.895 -15.140  1.00  0.00     0.011 C
HETATM   28  C14 UNL     1     -12.522 -32.412 -13.317  1.00  0.00     0.011 C
HETATM   29  C11 UNL     1     -12.178 -32.022 -16.120  1.00  0.00    -0.013 C
HETATM   30  C12 UNL     1     -11.666 -33.286 -15.489  1.00  0.00     0.009 C
HETATM   31  C17 UNL     1     -13.624 -32.129 -16.527  1.00  0.00     0.011 C
HETATM   32  C13 UNL     1     -12.531 -33.558 -14.283  1.00  0.00    -0.013 C
HETATM   33  C15 UNL     1     -13.980 -33.753 -14.707  1.00  0.00     0.011 C
HETATM   34  C16 UNL     1     -14.488 -32.519 -15.328  1.00  0.00     0.009 C
ENDBRANCH  23  25
ENDBRANCH   4  23
TORSDOF 9
ENDMDL