MODEL 5
REMARK VINA RESULT: -8.470915627      2.072      2.414
REMARK  10 active torsions:
REMARK  status: ('A' for Active; 'I' for Inactive)
REMARK    1  A    between atoms: O1_1  and  C1_3
REMARK    2  A    between atoms: C4_6  and  C5_7
REMARK    3  A    between atoms: C12_15  and  C13_16
REMARK    4  A    between atoms: N1_17  and  C14_19
REMARK    5  A    between atoms: C14_19  and  C15_20
REMARK    6  A    between atoms: C15_20  and  C16_21
REMARK    7  A    between atoms: C16_21  and  N2_22
REMARK    8  A    between atoms: N3_32  and  C25_33
REMARK    9  A    between atoms: C25_33  and  C26_34
REMARK   10  A    between atoms: C26_34  and  C27_35
ROOT
HETATM    1  C5  UNL     1     -16.373 -28.085 -12.362  1.00  0.00     0.008 C
HETATM    2  C6  UNL     1     -16.960 -27.141 -13.101  1.00  0.00    -0.044 A
HETATM    3  C7  UNL     1     -18.047 -27.361 -14.075  1.00  0.00     0.044 A
HETATM    4  C8  UNL     1     -18.401 -26.013 -14.601  1.00  0.00     0.047 A
HETATM    5  C9  UNL     1     -17.465 -25.067 -13.957  1.00  0.00    -0.005 A
HETATM    6  C10 UNL     1     -17.341 -23.686 -14.123  1.00  0.00     0.124 A
HETATM    7  F1  UNL     1     -18.181 -23.076 -14.994  1.00  0.00    -0.205 F
HETATM    8  C11 UNL     1     -16.401 -22.991 -13.423  1.00  0.00     0.058 A
HETATM    9  C12 UNL     1     -15.558 -23.630 -12.543  1.00  0.00     0.021 A
HETATM   10  C21 UNL     1     -15.683 -24.993 -12.382  1.00  0.00     0.139 A
HETATM   11  F2  UNL     1     -14.829 -25.575 -11.506  1.00  0.00    -0.204 F
HETATM   12  C22 UNL     1     -16.628 -25.729 -13.079  1.00  0.00     0.019 A
ENDROOT
BRANCH   1  13
HETATM   13  C4  UNL     1     -16.778 -29.475 -12.464  1.00  0.00     0.004 C
HETATM   14  C3  UNL     1     -16.130 -30.430 -11.863  1.00  0.00    -0.071 C
HETATM   15  C2  UNL     1     -14.933 -30.315 -11.011  1.00  0.00     0.088 C
HETATM   16  C23 UNL     1     -16.627 -31.862 -12.027  1.00  0.00     0.078 C
HETATM   17  C1  UNL     1     -13.831 -31.242 -11.477  1.00  0.00     0.223 C
HETATM   18  N3  UNL     1     -14.206 -32.230 -12.400  1.00  0.00    -0.367 N
HETATM   19  C24 UNL     1     -15.499 -32.779 -12.367  1.00  0.00     0.065 C
BRANCH  17  20
HETATM   20  O1  UNL     1     -12.846 -30.413 -12.060  1.00  0.00    -0.376 OA
ATOM     21  H1  UNL     1     -13.186 -30.161 -12.911  1.00  0.00     0.212 HD
ENDBRANCH  17  20
BRANCH  18  22
HETATM   22  C25 UNL     1     -13.380 -32.482 -13.516  1.00  0.00     0.130 C
BRANCH  22  23
HETATM   23  C26 UNL     1     -14.172 -32.465 -14.806  1.00  0.00     0.078 C
BRANCH  23  24
HETATM   24  C27 UNL     1     -14.508 -31.057 -15.137  1.00  0.00     0.027 A
HETATM   25  C28 UNL     1     -15.616 -30.542 -15.757  1.00  0.00     0.114 A
HETATM   26  N4  UNL     1     -15.488 -29.215 -15.841  1.00  0.00    -0.360 N
HETATM   27  C29 UNL     1     -14.294 -28.906 -15.270  1.00  0.00     0.180 A
ATOM     28  H4  UNL     1     -16.155 -28.562 -16.253  1.00  0.00     0.166 HD
HETATM   29  N5  UNL     1     -13.690 -30.011 -14.839  1.00  0.00    -0.355 N
ATOM     30  H5  UNL     1     -12.784 -30.064 -14.373  1.00  0.00     0.166 HD
ENDBRANCH  23  24
ENDBRANCH  22  23
ENDBRANCH  18  22
ENDBRANCH   1  13
BRANCH   9  31
HETATM   31  C13 UNL     1     -14.570 -22.850 -11.813  1.00  0.00     0.097 C
HETATM   32  N1  UNL     1     -13.447 -22.469 -12.355  1.00  0.00    -0.398 N
ATOM     33  H1  UNL     1     -13.232 -22.713 -13.321  1.00  0.00     0.158 HD
BRANCH  32  34
HETATM   34  C14 UNL     1     -12.492 -21.682 -11.553  1.00  0.00     0.120 C
BRANCH  34  35
HETATM   35  C15 UNL     1     -11.974 -20.622 -12.481  1.00  0.00     0.050 C
BRANCH  35  36
HETATM   36  C16 UNL     1     -12.005 -21.038 -13.924  1.00  0.00     0.274 C
BRANCH  36  37
HETATM   37  N2  UNL     1     -11.168 -20.222 -14.762  1.00  0.00     0.088 N
HETATM   38  C17 UNL     1     -11.010 -18.881 -14.299  1.00  0.00     0.272 C
HETATM   39  C18 UNL     1      -9.916 -18.371 -15.225  1.00  0.00     0.032 C
HETATM   40  C19 UNL     1      -8.903 -19.508 -15.026  1.00  0.00     0.032 C
HETATM   41  C20 UNL     1      -9.843 -20.710 -14.947  1.00  0.00     0.272 C
ENDBRANCH  36  37
ENDBRANCH  35  36
ENDBRANCH  34  35
ENDBRANCH  32  34
ENDBRANCH   9  31
TORSDOF 10
ENDMDL