MODEL 1
REMARK VINA RESULT: -7.141706602      0.000      0.000
REMARK  10 active torsions:
REMARK  status: ('A' for Active; 'I' for Inactive)
REMARK    1  A    between atoms: S1_2  and  C1_3
REMARK    2  A    between atoms: S1_2  and  C15_27
REMARK    3  A    between atoms: C6_9  and  C7_10
REMARK    4  A    between atoms: C7_10  and  C8_11
REMARK    5  A    between atoms: C8_11  and  N1_12
REMARK    6  A    between atoms: N1_12  and  C9_15
REMARK    7  A    between atoms: C9_15  and  C10_16
REMARK    8  A    between atoms: C10_16  and  C11_17
REMARK    9  A    between atoms: C11_17  and  N2_18
REMARK   10  A    between atoms: N2_18  and  C12_20
ROOT
HETATM    1  C7  UNL     1     -14.810 -25.142 -11.344  1.00  0.00     0.067 C
ENDROOT
BRANCH   1   2
HETATM    2  C6  UNL     1     -15.573 -24.418 -12.365  1.00  0.00    -0.036 A
HETATM    3  C1  UNL     1     -15.026 -23.206 -12.820  1.00  0.00     0.038 A
HETATM    4  C2  UNL     1     -15.729 -22.498 -13.789  1.00  0.00     0.023 A
HETATM    5  C3  UNL     1     -16.942 -22.956 -14.305  1.00  0.00     0.020 A
HETATM    6  C4  UNL     1     -17.464 -24.141 -13.848  1.00  0.00     0.011 A
HETATM    7 BR1  UNL     1     -19.111 -24.859 -14.479  1.00  0.00    -0.051 Br
HETATM    8  C5  UNL     1     -16.755 -24.829 -12.894  1.00  0.00     0.027 A
BRANCH   3   9
HETATM    9  S1  UNL     1     -13.559 -22.608 -12.183  1.00  0.00     0.054 S
HETATM   10  O1  UNL     1     -13.613 -22.031 -10.644  1.00  0.00    -0.252 OA
BRANCH   9  11
HETATM   11  C15 UNL     1     -12.605 -21.669 -13.273  1.00  0.00     0.084 C
HETATM   12  C16 UNL     1     -12.164 -20.342 -12.695  1.00  0.00     0.018 C
HETATM   13  C17 UNL     1     -11.734 -19.418 -13.821  1.00  0.00     0.001 C
HETATM   14  C18 UNL     1     -10.670 -20.110 -14.657  1.00  0.00     0.000 C
HETATM   15  C19 UNL     1     -10.254 -21.424 -14.062  1.00  0.00     0.001 C
HETATM   16  C20 UNL     1     -11.406 -22.395 -13.885  1.00  0.00     0.018 C
ENDBRANCH   9  11
ENDBRANCH   3   9
ENDBRANCH   1   2
BRANCH   1  17
HETATM   17  C8  UNL     1     -15.480 -25.259 -10.025  1.00  0.00     0.237 C
BRANCH  17  18
HETATM   18  N1  UNL     1     -15.567 -23.977  -9.373  1.00  0.00    -0.075 N
ATOM     19  H12 UNL     1     -14.789 -23.830  -8.730  1.00  0.00     0.277 HD
ATOM     20  H11 UNL     1     -15.381 -23.213 -10.023  1.00  0.00     0.277 HD
BRANCH  18  21
HETATM   21  C9  UNL     1     -16.863 -23.805  -8.697  1.00  0.00     0.234 C
BRANCH  21  22
HETATM   22  C10 UNL     1     -17.846 -23.103  -9.598  1.00  0.00     0.047 C
BRANCH  22  23
HETATM   23  C11 UNL     1     -17.219 -21.843 -10.175  1.00  0.00     0.123 C
BRANCH  23  24
HETATM   24  N2  UNL     1     -17.802 -20.632  -9.732  1.00  0.00    -0.370 N
ATOM     25  H2  UNL     1     -18.627 -20.271 -10.211  1.00  0.00     0.161 HD
BRANCH  24  26
HETATM   26  C12 UNL     1     -17.303 -19.962  -8.717  1.00  0.00     0.145 A
HETATM   27  N3  UNL     1     -17.849 -18.889  -8.126  1.00  0.00    -0.345 N
HETATM   28  C13 UNL     1     -17.208 -18.350  -7.129  1.00  0.00     0.121 A
ATOM     29  H3  UNL     1     -18.738 -18.506  -8.449  1.00  0.00     0.167 HD
HETATM   30  C14 UNL     1     -16.030 -18.892  -6.741  1.00  0.00     0.093 A
HETATM   31 CL1  UNL     1     -14.946 -18.373  -5.434  1.00  0.00    -0.075 Cl
HETATM   32  S2  UNL     1     -15.860 -20.200  -7.835  1.00  0.00    -0.041 SA
ENDBRANCH  24  26
ENDBRANCH  23  24
ENDBRANCH  22  23
ENDBRANCH  21  22
ENDBRANCH  18  21
ENDBRANCH  17  18
ENDBRANCH   1  17
TORSDOF 10
ENDMDL