MODEL 3
REMARK VINA RESULT: -7.040195456      2.285      3.232
REMARK  13 active torsions:
REMARK  status: ('A' for Active; 'I' for Inactive)
REMARK    1  A    between atoms: C1_2  and  C2_4
REMARK    2  A    between atoms: C2_4  and  C3_5
REMARK    3  A    between atoms: C3_5  and  C4_6
REMARK    4  A    between atoms: C4_6  and  C5_7
REMARK    5  A    between atoms: C5_7  and  C6_8
REMARK    6  A    between atoms: N1_11  and  C9_12
REMARK    7  A    between atoms: C9_12  and  O3_13
REMARK    8  A    between atoms: C9_12  and  C10_15
REMARK    9  A    between atoms: C10_15  and  O4_16
REMARK   10  A    between atoms: C10_15  and  C11_18
REMARK   11  A    between atoms: C10_15  and  C17_29
REMARK   12  A    between atoms: C11_18  and  C12_19
REMARK   13  A    between atoms: N2_23  and  O5_24
ROOT
HETATM    1  C10 UNL     1     -17.479 -24.531 -11.438  1.00  0.00     0.144 C
ENDROOT
BRANCH   1   2
HETATM    2  C9  UNL     1     -16.480 -23.713 -10.697  1.00  0.00     0.153 C
BRANCH   2   3
HETATM    3  N1  UNL     1     -15.141 -23.432 -10.866  1.00  0.00    -0.363 N
HETATM    4  C8  UNL     1     -14.358 -24.368 -11.737  1.00  0.00     0.125 C
HETATM    5  C7  UNL     1     -13.601 -23.613 -12.807  1.00  0.00     0.024 C
HETATM    6  C6  UNL     1     -13.494 -22.162 -12.479  1.00  0.00    -0.012 C
HETATM    7  C24 UNL     1     -13.101 -22.109 -10.993  1.00  0.00     0.024 C
HETATM    8  C23 UNL     1     -14.451 -22.335 -10.263  1.00  0.00     0.125 C
BRANCH   6   9
HETATM    9  C5  UNL     1     -12.527 -21.466 -13.354  1.00  0.00     0.005 C
BRANCH   9  10
HETATM   10  C4  UNL     1     -11.148 -22.024 -13.326  1.00  0.00     0.001 C
BRANCH  10  11
HETATM   11  C3  UNL     1     -10.252 -21.315 -14.360  1.00  0.00     0.010 C
BRANCH  11  12
HETATM   12  C2  UNL     1     -10.889 -19.950 -14.614  1.00  0.00     0.113 C
BRANCH  12  13
HETATM   13  C1  UNL     1      -9.813 -19.044 -15.126  1.00  0.00     0.172 C
HETATM   14  O1  UNL     1     -10.024 -17.809 -15.326  1.00  0.00    -0.648 OA
HETATM   15  O2  UNL     1      -8.555 -19.541 -15.394  1.00  0.00    -0.648 OA
ENDBRANCH  12  13
ENDBRANCH  11  12
ENDBRANCH  10  11
ENDBRANCH   9  10
ENDBRANCH   6   9
ENDBRANCH   2   3
BRANCH   2  16
HETATM   16  O3  UNL     1     -17.044 -23.151  -9.660  1.00  0.00    -0.347 OA
ATOM     17  H3  UNL     1     -17.953 -23.386  -9.514  1.00  0.00     0.219 HD
ENDBRANCH   2  16
ENDBRANCH   1   2
BRANCH   1  18
HETATM   18  O4  UNL     1     -18.708 -23.894 -11.347  1.00  0.00    -0.377 OA
ATOM     19  H4  UNL     1     -19.340 -24.403 -11.840  1.00  0.00     0.211 HD
ENDBRANCH   1  18
BRANCH   1  20
HETATM   20  C11 UNL     1     -17.493 -25.820 -10.732  1.00  0.00     0.034 C
BRANCH  20  21
HETATM   21  C12 UNL     1     -16.443 -26.763 -10.601  1.00  0.00     0.010 A
HETATM   22  C13 UNL     1     -15.652 -26.780  -9.434  1.00  0.00     0.063 A
HETATM   23 CL1  UNL     1     -16.018 -25.795  -8.028  1.00  0.00    -0.082 Cl
HETATM   24  C14 UNL     1     -14.598 -27.649  -9.302  1.00  0.00     0.147 A
HETATM   25  N2  UNL     1     -14.264 -28.519 -10.253  1.00  0.00    -0.244 N
HETATM   26  C15 UNL     1     -14.992 -28.535 -11.369  1.00  0.00     0.147 A
HETATM   27  C16 UNL     1     -16.049 -27.687 -11.543  1.00  0.00     0.063 A
HETATM   28 CL2  UNL     1     -16.938 -27.901 -13.064  1.00  0.00    -0.082 Cl
BRANCH  25  29
HETATM   29  O5  UNL     1     -13.189 -29.378 -10.077  1.00  0.00    -0.284 OA
ATOM     30  H5  UNL     1     -12.675 -29.668 -10.821  1.00  0.00     0.245 HD
ENDBRANCH  25  29
ENDBRANCH  20  21
ENDBRANCH   1  20
BRANCH   1  31
HETATM   31  C17 UNL     1     -17.101 -24.443 -12.892  1.00  0.00     0.032 C
HETATM   32  C18 UNL     1     -17.336 -22.930 -13.150  1.00  0.00     0.008 C
HETATM   33  C19 UNL     1     -17.264 -22.579 -14.591  1.00  0.00     0.001 C
HETATM   34  C20 UNL     1     -18.607 -23.088 -15.145  1.00  0.00     0.000 C
HETATM   35  C21 UNL     1     -18.509 -24.556 -15.047  1.00  0.00     0.001 C
HETATM   36  C22 UNL     1     -17.990 -25.188 -13.833  1.00  0.00     0.008 C
ENDBRANCH   1  31
TORSDOF 13
ENDMDL