MODEL 5
REMARK VINA RESULT: -6.631055966      5.522      7.931
REMARK  9 active torsions:
REMARK  status: ('A' for Active; 'I' for Inactive)
REMARK    1  A    between atoms: C2_2  and  C3_3
REMARK    2  A    between atoms: C5_5  and  C6_6
REMARK    3  A    between atoms: C6_6  and  N1_7
REMARK    4  A    between atoms: N1_7  and  C7_8
REMARK    5  A    between atoms: N1_7  and  C9_10
REMARK    6  A    between atoms: C9_10  and  C10_11
REMARK    7  A    between atoms: C10_11  and  C11_12
REMARK    8  A    between atoms: C11_12  and  N2_13
REMARK    9  A    between atoms: N2_13  and  C12_16
ROOT
HETATM    1  N1  UNL     1     -18.216 -27.771 -12.923  1.00  0.00    -0.389 N
ENDROOT
BRANCH   1   2
HETATM    2  C6  UNL     1     -18.735 -26.508 -12.534  1.00  0.00     0.163 C
BRANCH   2   3
HETATM    3  C5  UNL     1     -18.174 -25.333 -13.206  1.00  0.00    -0.003 A
HETATM    4  C4  UNL     1     -16.923 -24.864 -12.944  1.00  0.00     0.022 A
HETATM    5  C3  UNL     1     -16.461 -23.674 -13.471  1.00  0.00    -0.017 A
HETATM    6  C25 UNL     1     -17.320 -22.955 -14.291  1.00  0.00     0.152 A
HETATM    7  C24 UNL     1     -18.581 -23.420 -14.563  1.00  0.00     0.111 A
HETATM    8  F1  UNL     1     -16.911 -21.780 -14.802  1.00  0.00    -0.203 F
HETATM    9  C22 UNL     1     -19.032 -24.601 -14.036  1.00  0.00     0.118 A
HETATM   10  N3  UNL     1     -19.604 -22.932 -15.329  1.00  0.00    -0.297 N
HETATM   11  O1  UNL     1     -20.257 -24.826 -14.455  1.00  0.00    -0.258 OA
HETATM   12  C23 UNL     1     -20.594 -23.823 -15.229  1.00  0.00     0.370 A
HETATM   13  O2  UNL     1     -21.724 -23.724 -15.801  1.00  0.00    -0.238 OA
ATOM     14  H3  UNL     1     -19.609 -22.065 -15.866  1.00  0.00     0.171 HD
BRANCH   5  15
HETATM   15  C2  UNL     1     -15.125 -23.060 -13.217  1.00  0.00     0.037 C
HETATM   16  C1  UNL     1     -14.322 -24.009 -12.305  1.00  0.00     0.010 C
ENDBRANCH   5  15
ENDBRANCH   2   3
ENDBRANCH   1   2
BRANCH   1  17
HETATM   17  C7  UNL     1     -17.671 -28.428 -11.746  1.00  0.00     0.118 C
HETATM   18  C8  UNL     1     -16.225 -28.184 -11.519  1.00  0.00     0.026 C
ENDBRANCH   1  17
BRANCH   1  19
HETATM   19  C9  UNL     1     -18.723 -28.536 -13.935  1.00  0.00     0.060 C
BRANCH  19  20
HETATM   20  C10 UNL     1     -18.290 -28.302 -15.363  1.00  0.00     0.072 C
BRANCH  20  21
HETATM   21  C11 UNL     1     -16.767 -28.299 -15.432  1.00  0.00     0.238 C
BRANCH  21  22
HETATM   22  N2  UNL     1     -16.280 -29.452 -16.099  1.00  0.00    -0.066 N
ATOM     23  H22 UNL     1     -17.050 -30.066 -16.363  1.00  0.00     0.278 HD
ATOM     24  H21 UNL     1     -15.930 -29.208 -17.026  1.00  0.00     0.278 HD
BRANCH  22  25
HETATM   25  C12 UNL     1     -15.279 -30.182 -15.355  1.00  0.00     0.128 C
HETATM   26  C13 UNL     1     -15.739 -30.751 -14.064  1.00  0.00     0.043 C
HETATM   27  C14 UNL     1     -14.552 -31.456 -13.425  1.00  0.00    -0.010 C
HETATM   28  C15 UNL     1     -13.453 -30.489 -13.084  1.00  0.00     0.009 C
HETATM   29  C19 UNL     1     -13.962 -32.526 -14.300  1.00  0.00     0.026 C
HETATM   30  C16 UNL     1     -13.013 -29.812 -14.358  1.00  0.00    -0.010 C
HETATM   31  C17 UNL     1     -12.418 -30.821 -15.303  1.00  0.00     0.026 C
HETATM   32  C21 UNL     1     -14.215 -29.148 -14.989  1.00  0.00     0.043 C
HETATM   33  C18 UNL     1     -13.444 -31.873 -15.559  1.00  0.00     0.021 C
HETATM   34 BR1  UNL     1     -12.785 -33.217 -16.803  1.00  0.00    -0.085 Br
HETATM   35  C20 UNL     1     -14.653 -31.217 -16.224  1.00  0.00     0.060 C
ENDBRANCH  22  25
ENDBRANCH  21  22
ENDBRANCH  20  21
ENDBRANCH  19  20
ENDBRANCH   1  19
TORSDOF 9
ENDMDL