MODEL 1
REMARK VINA RESULT: -8.117061555      0.000      0.000
REMARK  11 active torsions:
REMARK  status: ('A' for Active; 'I' for Inactive)
REMARK    1  A    between atoms: C3_4  and  N1_5
REMARK    2  A    between atoms: N1_5  and  C4_6
REMARK    3  A    between atoms: C5_9  and  N3_10
REMARK    4  A    between atoms: N3_10  and  C6_12
REMARK    5  A    between atoms: C6_12  and  C7_13
REMARK    6  A    between atoms: C7_13  and  C8_14
REMARK    7  A    between atoms: C8_14  and  C9_15
REMARK    8  A    between atoms: C9_15  and  N4_16
REMARK    9  A    between atoms: C19_29  and  C20_30
REMARK   10  A    between atoms: C20_30  and  C21_31
REMARK   11  A    between atoms: C21_31  and  N6_32
ROOT
HETATM    1  C4  UNL     1     -14.650 -28.889 -12.929  1.00  0.00     0.217 A
HETATM    2  N2  UNL     1     -15.089 -27.676 -13.401  1.00  0.00    -0.163 N
ATOM      3  H2  UNL     1     -15.062 -27.497 -14.405  1.00  0.00     0.187 HD
HETATM    4  C5  UNL     1     -15.552 -26.725 -12.585  1.00  0.00     0.680 A
HETATM    5  N5  UNL     1     -15.584 -26.954 -11.276  1.00  0.00    -0.200 N
ATOM      6  H5  UNL     1     -15.938 -26.217 -10.666  1.00  0.00     0.183 HD
HETATM    7  C15 UNL     1     -15.175 -28.109 -10.712  1.00  0.00     0.135 A
HETATM    8  C16 UNL     1     -14.705 -29.081 -11.535  1.00  0.00     0.108 A
HETATM    9 CL2  UNL     1     -14.139 -30.618 -10.873  1.00  0.00    -0.078 Cl
ENDROOT
BRANCH   1  10
HETATM   10  N1  UNL     1     -14.291 -29.746 -13.639  1.00  0.00    -0.385 NA
BRANCH  10  11
HETATM   11  C3  UNL     1     -13.872 -30.701 -14.440  1.00  0.00     0.111 A
HETATM   12  C2  UNL     1     -12.745 -31.467 -14.038  1.00  0.00     0.069 A
HETATM   13  C1  UNL     1     -12.265 -32.470 -14.832  1.00  0.00     0.043 A
HETATM   14 CL1  UNL     1     -10.865 -33.419 -14.317  1.00  0.00    -0.084 Cl
HETATM   15  C19 UNL     1     -12.842 -32.786 -16.042  1.00  0.00    -0.035 A
HETATM   16  C18 UNL     1     -13.936 -32.065 -16.458  1.00  0.00     0.012 A
HETATM   17  C17 UNL     1     -14.429 -31.054 -15.672  1.00  0.00     0.045 A
BRANCH  15  18
HETATM   18  C20 UNL     1     -12.252 -33.889 -16.846  1.00  0.00     0.070 C
BRANCH  18  19
HETATM   19  C21 UNL     1     -12.015 -33.456 -18.267  1.00  0.00     0.277 C
BRANCH  19  20
HETATM   20  N6  UNL     1     -11.465 -34.573 -19.009  1.00  0.00     0.088 N
HETATM   21  C22 UNL     1     -12.023 -34.705 -20.345  1.00  0.00     0.272 C
HETATM   22  C23 UNL     1     -11.910 -33.440 -21.134  1.00  0.00     0.030 C
HETATM   23  C24 UNL     1     -10.560 -32.812 -21.117  1.00  0.00     0.003 C
HETATM   24  C25 UNL     1      -9.750 -33.048 -19.874  1.00  0.00     0.030 C
HETATM   25  C26 UNL     1     -10.025 -34.378 -19.210  1.00  0.00     0.272 C
ENDBRANCH  19  20
ENDBRANCH  18  19
ENDBRANCH  15  18
ENDBRANCH  10  11
ENDBRANCH   1  10
BRANCH   4  26
HETATM   26  N3  UNL     1     -15.940 -25.606 -13.134  1.00  0.00    -0.226 N
ATOM     27  H3  UNL     1     -16.355 -25.600 -14.067  1.00  0.00     0.177 HD
BRANCH  26  28
HETATM   28  C6  UNL     1     -15.769 -24.353 -12.382  1.00  0.00     0.138 C
BRANCH  28  29
HETATM   29  C7  UNL     1     -14.320 -23.964 -12.472  1.00  0.00     0.022 C
BRANCH  29  30
HETATM   30  C8  UNL     1     -14.097 -22.565 -13.017  1.00  0.00     0.032 C
BRANCH  30  31
HETATM   31  C9  UNL     1     -12.704 -22.104 -12.601  1.00  0.00     0.272 C
BRANCH  31  32
HETATM   32  N4  UNL     1     -12.116 -21.361 -13.683  1.00  0.00     0.088 N
HETATM   33  C10 UNL     1     -11.758 -20.021 -13.213  1.00  0.00     0.272 C
HETATM   34  C11 UNL     1     -11.333 -19.213 -14.400  1.00  0.00     0.030 C
HETATM   35  C12 UNL     1     -10.229 -19.898 -15.181  1.00  0.00     0.003 C
HETATM   36  C13 UNL     1      -9.775 -21.083 -14.366  1.00  0.00     0.030 C
HETATM   37  C14 UNL     1     -10.947 -22.036 -14.226  1.00  0.00     0.272 C
ENDBRANCH  31  32
ENDBRANCH  30  31
ENDBRANCH  29  30
ENDBRANCH  28  29
ENDBRANCH  26  28
ENDBRANCH   4  26
TORSDOF 11
ENDMDL