MODEL 4
REMARK VINA RESULT: -5.924856295      4.622      8.395
REMARK  11 active torsions:
REMARK  status: ('A' for Active; 'I' for Inactive)
REMARK    1  A    between atoms: C2_2  and  O1_3
REMARK    2  A    between atoms: O1_3  and  C3_4
REMARK       I    between atoms: C3_4  and  N1_6
REMARK    3  A    between atoms: N1_6  and  C4_8
REMARK    4  A    between atoms: C4_8  and  C5_9
REMARK    5  A    between atoms: C5_9  and  N2_11
REMARK       I    between atoms: N2_11  and  C6_13
REMARK    6  A    between atoms: C6_13  and  O4_15
REMARK    7  A    between atoms: O4_15  and  C7_16
REMARK    8  A    between atoms: C7_16  and  C8_17
REMARK    9  A    between atoms: C14_23  and  C15_24
REMARK   10  A    between atoms: C15_24  and  N3_25
REMARK   11  A    between atoms: N3_25  and  C18_28
ROOT
HETATM    1  C8  UNL     1     -16.522 -25.394 -12.512  1.00  0.00    -0.014 C
HETATM    2  C9  UNL     1     -17.808 -25.501 -13.301  1.00  0.00     0.012 C
HETATM    3  C10 UNL     1     -18.407 -26.814 -12.925  1.00  0.00     0.010 C
HETATM    4  C11 UNL     1     -17.458 -27.960 -13.346  1.00  0.00    -0.035 C
HETATM    5  C12 UNL     1     -17.480 -27.806 -14.873  1.00  0.00     0.016 C
HETATM    6  C13 UNL     1     -18.185 -29.209 -13.045  1.00  0.00     0.016 C
HETATM    7  C14 UNL     1     -16.099 -27.775 -12.750  1.00  0.00     0.027 C
HETATM    8  C20 UNL     1     -15.517 -26.437 -13.121  1.00  0.00     0.027 C
HETATM    9  C21 UNL     1     -16.292 -27.453 -11.248  1.00  0.00     0.124 C
HETATM   10 CL2  UNL     1     -14.724 -27.609 -10.368  1.00  0.00    -0.101 Cl
HETATM   11 CL3  UNL     1     -17.385 -28.452 -10.370  1.00  0.00    -0.101 Cl
HETATM   12  C22 UNL     1     -16.645 -25.978 -11.171  1.00  0.00     0.054 C
ENDROOT
BRANCH   1  13
HETATM   13  C7  UNL     1     -15.973 -24.035 -12.693  1.00  0.00     0.190 C
BRANCH  13  14
HETATM   14  O4  UNL     1     -15.174 -23.588 -11.687  1.00  0.00    -0.303 OA
BRANCH  14  15
HETATM   15  C6  UNL     1     -14.063 -22.875 -11.529  1.00  0.00     0.361 C
HETATM   16  N2  UNL     1     -13.274 -22.406 -12.657  1.00  0.00    -0.318 N
ATOM     17  H2  UNL     1     -13.572 -22.624 -13.608  1.00  0.00     0.166 HD
HETATM   18  O3  UNL     1     -13.661 -22.586 -10.387  1.00  0.00    -0.238 OA
BRANCH  16  19
HETATM   19  C5  UNL     1     -12.075 -21.635 -12.445  1.00  0.00     0.201 C
HETATM   20 CL1  UNL     1     -10.777 -22.142 -13.549  1.00  0.00    -0.101 Cl
BRANCH  19  21
HETATM   21  C4  UNL     1     -12.357 -20.185 -12.675  1.00  0.00     0.166 C
BRANCH  21  22
HETATM   22  N1  UNL     1     -11.489 -19.658 -13.705  1.00  0.00    -0.334 N
HETATM   23  C3  UNL     1     -11.112 -18.276 -13.686  1.00  0.00     0.360 C
HETATM   24  O2  UNL     1     -11.529 -17.513 -12.780  1.00  0.00    -0.239 OA
ATOM     25  H1  UNL     1     -11.146 -20.270 -14.446  1.00  0.00     0.164 HD
BRANCH  23  26
HETATM   26  O1  UNL     1     -10.287 -17.777 -14.665  1.00  0.00    -0.304 OA
BRANCH  26  27
HETATM   27  C2  UNL     1      -9.824 -18.534 -15.750  1.00  0.00     0.176 C
HETATM   28  C1  UNL     1      -8.447 -19.095 -15.492  1.00  0.00     0.034 C
ENDBRANCH  26  27
ENDBRANCH  23  26
ENDBRANCH  21  22
ENDBRANCH  19  21
ENDBRANCH  16  19
ENDBRANCH  14  15
ENDBRANCH  13  14
ENDBRANCH   1  13
BRANCH   7  29
HETATM   29  C15 UNL     1     -15.163 -28.900 -12.873  1.00  0.00     0.249 C
BRANCH  29  30
HETATM   30  N3  UNL     1     -14.547 -29.452 -13.956  1.00  0.00    -0.074 N
HETATM   31  C16 UNL     1     -15.147 -30.714 -14.471  1.00  0.00     0.272 C
HETATM   32  C17 UNL     1     -14.113 -28.784 -15.109  1.00  0.00     0.272 C
BRANCH  30  33
HETATM   33  C18 UNL     1     -13.301 -30.092 -13.389  1.00  0.00     0.232 C
HETATM   34  C19 UNL     1     -12.432 -30.629 -14.452  1.00  0.00     0.034 C
ENDBRANCH  30  33
ENDBRANCH  29  30
ENDBRANCH   7  29
TORSDOF 11
ENDMDL