MODEL 3
REMARK VINA RESULT: -9.496089433      2.194      3.403
REMARK  11 active torsions:
REMARK  status: ('A' for Active; 'I' for Inactive)
REMARK    1  A    between atoms: C4_4  and  C5_5
REMARK    2  A    between atoms: C5_5  and  C6_6
REMARK    3  A    between atoms: C6_6  and  C7_7
REMARK    4  A    between atoms: C8_8  and  C9_9
REMARK    5  A    between atoms: C11_11  and  N1_12
REMARK    6  A    between atoms: C16_19  and  O3_20
REMARK    7  A    between atoms: C17_22  and  O4_23
REMARK    8  A    between atoms: C20_27  and  C21_28
REMARK    9  A    between atoms: C21_28  and  C22_29
REMARK   10  A    between atoms: C22_29  and  C23_30
REMARK   11  A    between atoms: C23_30  and  C24_31
ROOT
HETATM    1  C5  UNL     1     -16.633 -27.779 -13.458  1.00  0.00     0.042 C
ENDROOT
BRANCH   1   2
HETATM    2  C4  UNL     1     -16.187 -26.482 -12.933  1.00  0.00    -0.057 A
HETATM    3  C3  UNL     1     -16.585 -25.333 -13.553  1.00  0.00     0.014 A
HETATM    4  C2  UNL     1     -16.189 -24.095 -13.074  1.00  0.00    -0.055 A
HETATM    5  C1  UNL     1     -16.748 -22.922 -13.809  1.00  0.00     0.049 C
HETATM    6  C20 UNL     1     -15.394 -23.948 -11.983  1.00  0.00    -0.052 A
HETATM    7  C19 UNL     1     -14.993 -25.139 -11.354  1.00  0.00     0.008 A
HETATM    8  C18 UNL     1     -15.386 -26.367 -11.828  1.00  0.00     0.007 A
BRANCH   6   9
HETATM    9  C21 UNL     1     -14.903 -22.693 -11.469  1.00  0.00     0.039 C
BRANCH   9  10
HETATM   10  C22 UNL     1     -13.480 -22.338 -11.664  1.00  0.00     0.005 C
BRANCH  10  11
HETATM   11  C23 UNL     1     -12.836 -22.623 -12.960  1.00  0.00     0.005 C
BRANCH  11  12
HETATM   12  C24 UNL     1     -12.157 -21.404 -13.569  1.00  0.00    -0.014 C
HETATM   13  C25 UNL     1     -12.130 -20.225 -12.653  1.00  0.00     0.010 C
HETATM   14  C26 UNL     1     -11.688 -19.005 -13.429  1.00  0.00     0.079 C
HETATM   15  C27 UNL     1     -10.888 -19.314 -14.652  1.00  0.00     0.243 C
HETATM   16  F1  UNL     1     -11.662 -19.392 -15.796  1.00  0.00    -0.206 F
HETATM   17  F2  UNL     1     -10.009 -18.247 -14.884  1.00  0.00    -0.206 F
HETATM   18  C28 UNL     1     -10.041 -20.541 -14.563  1.00  0.00     0.079 C
HETATM   19  C29 UNL     1     -10.827 -21.767 -14.123  1.00  0.00     0.010 C
ENDBRANCH  11  12
ENDBRANCH  10  11
ENDBRANCH   9  10
ENDBRANCH   6   9
ENDBRANCH   1   2
BRANCH   1  20
HETATM   20  C6  UNL     1     -15.668 -28.319 -14.463  1.00  0.00     0.031 C
BRANCH  20  21
HETATM   21  C7  UNL     1     -14.647 -29.146 -13.780  1.00  0.00    -0.030 C
HETATM   22  C8  UNL     1     -13.556 -29.505 -14.432  1.00  0.00    -0.023 C
BRANCH  22  23
HETATM   23  C9  UNL     1     -12.471 -30.331 -13.848  1.00  0.00     0.041 C
HETATM   24  C10 UNL     1     -13.003 -31.160 -12.684  1.00  0.00     0.039 C
HETATM   25  C11 UNL     1     -12.514 -32.518 -12.980  1.00  0.00     0.119 C
HETATM   26  C16 UNL     1     -12.576 -32.640 -14.481  1.00  0.00     0.170 C
HETATM   27  C17 UNL     1     -11.901 -31.308 -14.853  1.00  0.00     0.156 C
BRANCH  25  28
HETATM   28  N1  UNL     1     -13.033 -33.614 -12.264  1.00  0.00    -0.341 N
HETATM   29  C12 UNL     1     -14.481 -33.792 -12.018  1.00  0.00     0.152 C
HETATM   30  C13 UNL     1     -14.691 -33.993 -10.555  1.00  0.00     0.188 C
HETATM   31  O1  UNL     1     -13.700 -34.619  -9.868  1.00  0.00    -0.380 OA
HETATM   32  C14 UNL     1     -12.852 -35.420 -10.587  1.00  0.00     0.270 C
HETATM   33  C15 UNL     1     -12.227 -34.642 -11.713  1.00  0.00     0.244 C
HETATM   34  O2  UNL     1     -11.098 -34.841 -12.164  1.00  0.00    -0.271 OA
ENDBRANCH  25  28
BRANCH  26  35
HETATM   35  O3  UNL     1     -13.830 -32.593 -15.029  1.00  0.00    -0.391 OA
ATOM     36  H3  UNL     1     -13.889 -32.190 -15.887  1.00  0.00     0.210 HD
ENDBRANCH  26  35
BRANCH  27  37
HETATM   37  O4  UNL     1     -12.101 -30.958 -16.163  1.00  0.00    -0.392 OA
ATOM     38  H4  UNL     1     -12.203 -31.693 -16.756  1.00  0.00     0.210 HD
ENDBRANCH  27  37
ENDBRANCH  22  23
ENDBRANCH  20  21
ENDBRANCH   1  20
TORSDOF 11
ENDMDL