MODEL 3
REMARK VINA RESULT: -8.060863973      4.094      7.186
REMARK  9 active torsions:
REMARK  status: ('A' for Active; 'I' for Inactive)
REMARK    1  A    between atoms: C2_2  and  C4_4
REMARK    2  A    between atoms: N1_6  and  C6_7
REMARK    3  A    between atoms: C6_7  and  C7_8
REMARK    4  A    between atoms: C6_7  and  C9_11
REMARK    5  A    between atoms: C7_8  and  C8_9
REMARK       I    between atoms: C9_11  and  N2_13
REMARK    6  A    between atoms: N2_13  and  C10_15
REMARK    7  A    between atoms: C21_26  and  C22_27
REMARK    8  A    between atoms: N4_34  and  C26_35
REMARK    9  A    between atoms: C26_35  and  C27_36
ROOT
HETATM    1  C4  UNL     1     -17.951 -24.580 -12.996  1.00  0.00     0.095 C
HETATM    2  C5  UNL     1     -18.152 -25.592 -14.121  1.00  0.00     0.294 C
HETATM    3  N1  UNL     1     -18.681 -26.800 -13.650  1.00  0.00     0.105 N
HETATM    4  C20 UNL     1     -18.155 -27.112 -12.324  1.00  0.00     0.299 C
HETATM    5  C21 UNL     1     -16.895 -26.436 -11.950  1.00  0.00     0.141 C
HETATM    6  N4  UNL     1     -16.919 -24.997 -12.160  1.00  0.00    -0.274 NA
ENDROOT
BRANCH   3   7
HETATM    7  C6  UNL     1     -18.600 -27.958 -14.473  1.00  0.00     0.316 C
BRANCH   7   8
HETATM    8  C7  UNL     1     -17.862 -27.873 -15.738  1.00  0.00     0.077 C
BRANCH   8   9
HETATM    9  C8  UNL     1     -16.522 -28.501 -15.876  1.00  0.00     0.225 C
HETATM   10  F1  UNL     1     -16.516 -29.555 -16.771  1.00  0.00    -0.255 F
ENDBRANCH   8   9
ENDBRANCH   7   8
BRANCH   7  11
HETATM   11  C9  UNL     1     -20.033 -28.297 -14.888  1.00  0.00     0.251 C
HETATM   12  O1  UNL     1     -20.942 -27.640 -14.342  1.00  0.00    -0.271 OA
HETATM   13  N2  UNL     1     -20.291 -29.299 -15.829  1.00  0.00    -0.354 N
ATOM     14  H2  UNL     1     -19.512 -29.805 -16.248  1.00  0.00     0.162 HD
BRANCH  13  15
HETATM   15  C10 UNL     1     -21.634 -29.626 -16.214  1.00  0.00     0.092 C
HETATM   16  C11 UNL     1     -22.111 -28.906 -17.427  1.00  0.00     0.009 C
HETATM   17  C12 UNL     1     -21.413 -29.382 -18.690  1.00  0.00     0.011 C
HETATM   18  C16 UNL     1     -23.611 -29.166 -17.540  1.00  0.00     0.011 C
HETATM   19  C13 UNL     1     -21.673 -30.842 -18.895  1.00  0.00    -0.013 C
HETATM   20  C14 UNL     1     -23.150 -31.129 -18.975  1.00  0.00     0.009 C
HETATM   21  C19 UNL     1     -21.090 -31.581 -17.707  1.00  0.00     0.011 C
HETATM   22  C15 UNL     1     -23.811 -30.652 -17.719  1.00  0.00    -0.013 C
HETATM   23  C17 UNL     1     -23.245 -31.434 -16.550  1.00  0.00     0.011 C
HETATM   24  C18 UNL     1     -21.784 -31.126 -16.457  1.00  0.00     0.009 C
ENDBRANCH  13  15
ENDBRANCH   7  11
ENDBRANCH   3   7
BRANCH   1  25
HETATM   25  C2  UNL     1     -19.298 -24.280 -12.394  1.00  0.00    -0.003 C
HETATM   26  C1  UNL     1     -19.215 -23.665 -11.023  1.00  0.00     0.011 C
HETATM   27  C3  UNL     1     -19.917 -23.165 -13.279  1.00  0.00     0.011 C
ENDBRANCH   1  25
BRANCH   5  28
HETATM   28  C22 UNL     1     -16.586 -26.785 -10.524  1.00  0.00     0.031 A
HETATM   29  C23 UNL     1     -17.359 -26.551  -9.412  1.00  0.00     0.031 A
HETATM   30  C24 UNL     1     -16.700 -27.019  -8.314  1.00  0.00     0.063 A
HETATM   31  C25 UNL     1     -15.485 -27.558  -8.744  1.00  0.00     0.188 A
HETATM   32  F2  UNL     1     -14.513 -28.135  -7.986  1.00  0.00    -0.186 F
HETATM   33  N3  UNL     1     -15.469 -27.393 -10.080  1.00  0.00    -0.335 N
ATOM     34  H3  UNL     1     -14.703 -27.692 -10.683  1.00  0.00     0.168 HD
ENDBRANCH   5  28
BRANCH   6  35
HETATM   35  C26 UNL     1     -15.611 -24.624 -12.549  1.00  0.00     0.069 C
BRANCH  35  36
HETATM   36  C27 UNL     1     -14.617 -24.101 -11.609  1.00  0.00    -0.035 C
HETATM   37  C28 UNL     1     -15.123 -23.732 -10.265  1.00  0.00     0.046 C
HETATM   38  C29 UNL     1     -14.661 -22.312 -10.056  1.00  0.00     0.062 C
HETATM   39  C30 UNL     1     -13.647 -22.076 -11.116  1.00  0.00     0.020 A
HETATM   40  N5  UNL     1     -12.816 -21.020 -11.226  1.00  0.00    -0.367 N
HETATM   41  C34 UNL     1     -13.629 -23.126 -11.992  1.00  0.00    -0.005 A
HETATM   42  C31 UNL     1     -11.912 -20.931 -12.209  1.00  0.00     0.112 A
ATOM     43  H5  UNL     1     -12.879 -20.266 -10.541  1.00  0.00     0.165 HD
HETATM   44  C32 UNL     1     -11.831 -21.962 -13.142  1.00  0.00     0.050 A
HETATM   45 CL1  UNL     1     -10.639 -21.849 -14.440  1.00  0.00    -0.083 Cl
HETATM   46  C33 UNL     1     -12.675 -23.022 -13.021  1.00  0.00     0.039 A
ENDBRANCH  35  36
ENDBRANCH   6  35
TORSDOF 9
ENDMDL