MODEL 2
REMARK VINA RESULT: -7.023490671      1.759      3.384
REMARK  11 active torsions:
REMARK  status: ('A' for Active; 'I' for Inactive)
REMARK    1  A    between atoms: C2_2  and  O1_3
REMARK    2  A    between atoms: O1_3  and  C3_4
REMARK    3  A    between atoms: C6_7  and  C7_8
REMARK    4  A    between atoms: C9_10  and  C10_11
REMARK       I    between atoms: C10_11  and  N1_13
REMARK    5  A    between atoms: N1_13  and  C12_15
REMARK    6  A    between atoms: C14_17  and  N2_18
REMARK       I    between atoms: N2_18  and  C15_20
REMARK    7  A    between atoms: C15_20  and  C16_22
REMARK    8  A    between atoms: C16_22  and  C17_23
REMARK       I    between atoms: C17_23  and  N3_25
REMARK    9  A    between atoms: N3_25  and  C18_27
REMARK   10  A    between atoms: C25_34  and  C26_35
REMARK   11  A    between atoms: C31_40  and  C32_41
ROOT
HETATM    1  C12 UNL     1     -14.891 -29.643 -14.053  1.00  0.00     0.090 C
HETATM    2  C13 UNL     1     -15.504 -28.349 -14.483  1.00  0.00     0.050 C
HETATM    3  C14 UNL     1     -16.636 -28.551 -13.497  1.00  0.00     0.088 C
HETATM    4  C30 UNL     1     -16.196 -29.969 -13.345  1.00  0.00     0.050 C
ENDROOT
BRANCH   1   5
HETATM    5  N1  UNL     1     -14.496 -30.569 -15.066  1.00  0.00    -0.351 N
HETATM    6  C10 UNL     1     -13.293 -31.314 -15.047  1.00  0.00     0.224 C
HETATM    7  O2  UNL     1     -12.520 -31.164 -14.071  1.00  0.00    -0.273 OA
HETATM    8  C11 UNL     1     -15.388 -30.771 -16.217  1.00  0.00     0.153 C
BRANCH   6   9
HETATM    9  C9  UNL     1     -12.917 -32.245 -16.111  1.00  0.00     0.087 A
HETATM   10  C7  UNL     1     -12.008 -33.376 -15.972  1.00  0.00     0.033 A
HETATM   11  C8  UNL     1     -13.488 -33.651 -15.885  1.00  0.00     0.025 A
BRANCH  10  12
HETATM   12  C6  UNL     1     -11.298 -33.936 -17.138  1.00  0.00    -0.037 A
HETATM   13  C5  UNL     1     -11.300 -33.299 -18.369  1.00  0.00     0.011 A
HETATM   14  C4  UNL     1     -10.654 -33.793 -19.487  1.00  0.00     0.038 A
HETATM   15  C3  UNL     1      -9.968 -34.966 -19.405  1.00  0.00     0.075 A
HETATM   16  C33 UNL     1      -9.933 -35.652 -18.183  1.00  0.00    -0.013 A
HETATM   17  C31 UNL     1     -10.587 -35.147 -17.061  1.00  0.00     0.063 A
HETATM   18  C34 UNL     1      -9.181 -36.912 -18.146  1.00  0.00     0.052 C
BRANCH  15  19
HETATM   19  O1  UNL     1      -9.311 -35.483 -20.512  1.00  0.00    -0.351 OA
BRANCH  19  20
HETATM   20  C2  UNL     1      -9.890 -35.617 -21.772  1.00  0.00     0.171 C
HETATM   21  C1  UNL     1     -10.901 -36.762 -21.743  1.00  0.00     0.034 C
ENDBRANCH  19  20
ENDBRANCH  15  19
BRANCH  17  22
HETATM   22  C32 UNL     1     -10.584 -35.829 -15.751  1.00  0.00     0.418 C
HETATM   23  F1  UNL     1      -9.603 -36.792 -15.676  1.00  0.00    -0.166 F
HETATM   24  F2  UNL     1     -11.776 -36.498 -15.485  1.00  0.00    -0.166 F
HETATM   25  F3  UNL     1     -10.271 -34.939 -14.708  1.00  0.00    -0.166 F
ENDBRANCH  17  22
ENDBRANCH  10  12
ENDBRANCH   6   9
ENDBRANCH   1   5
BRANCH   3  26
HETATM   26  N2  UNL     1     -16.452 -27.799 -12.249  1.00  0.00    -0.355 N
HETATM   27  C15 UNL     1     -17.483 -27.167 -11.559  1.00  0.00     0.236 C
HETATM   28  O3  UNL     1     -18.640 -27.250 -12.031  1.00  0.00    -0.272 OA
ATOM     29  H2  UNL     1     -15.509 -27.735 -11.864  1.00  0.00     0.162 HD
BRANCH  27  30
HETATM   30  C16 UNL     1     -17.245 -26.425 -10.332  1.00  0.00     0.126 C
HETATM   31  C22 UNL     1     -18.314 -25.389 -10.021  1.00  0.00     0.029 C
HETATM   32  C23 UNL     1     -18.281 -25.160  -8.540  1.00  0.00     0.002 C
HETATM   33  C24 UNL     1     -17.184 -26.030  -8.046  1.00  0.00     0.007 C
HETATM   34  C25 UNL     1     -16.947 -27.133  -9.088  1.00  0.00     0.020 C
BRANCH  30  35
HETATM   35  C17 UNL     1     -16.009 -25.588 -10.643  1.00  0.00     0.236 C
HETATM   36  O4  UNL     1     -14.887 -26.033 -10.351  1.00  0.00    -0.272 OA
HETATM   37  N3  UNL     1     -16.143 -24.319 -11.260  1.00  0.00    -0.351 N
ATOM     38  H3  UNL     1     -17.078 -23.980 -11.489  1.00  0.00     0.163 HD
BRANCH  37  39
HETATM   39  C18 UNL     1     -15.006 -23.486 -11.575  1.00  0.00     0.029 A
HETATM   40  C19 UNL     1     -14.568 -22.629 -10.391  1.00  0.00     0.038 C
HETATM   41  C20 UNL     1     -13.994 -23.885 -12.573  1.00  0.00     0.033 A
HETATM   42  C21 UNL     1     -15.000 -22.803 -12.917  1.00  0.00     0.033 A
ENDBRANCH  37  39
ENDBRANCH  30  35
BRANCH  34  43
HETATM   43  C26 UNL     1     -17.558 -28.409  -8.713  1.00  0.00    -0.046 C
HETATM   44  C27 UNL     1     -18.988 -28.652  -8.976  1.00  0.00     0.015 C
HETATM   45  C28 UNL     1     -16.764 -29.605  -9.240  1.00  0.00     0.015 C
HETATM   46  C29 UNL     1     -17.394 -28.511  -7.171  1.00  0.00     0.015 C
ENDBRANCH  34  43
ENDBRANCH  27  30
ENDBRANCH   3  26
TORSDOF 11
ENDMDL