MODEL 3
REMARK VINA RESULT: -9.250438027      4.623     11.244
REMARK  10 active torsions:
REMARK  status: ('A' for Active; 'I' for Inactive)
REMARK    1  A    between atoms: C2_2  and  C3_3
REMARK    2  A    between atoms: C3_3  and  C4_4
REMARK    3  A    between atoms: C3_3  and  N5_37
REMARK    4  A    between atoms: C4_4  and  C5_5
REMARK       I    between atoms: C5_5  and  N1_7
REMARK    5  A    between atoms: N1_7  and  C6_9
REMARK    6  A    between atoms: N2_13  and  C10_14
REMARK    7  A    between atoms: C13_17  and  C14_18
REMARK    8  A    between atoms: C14_18  and  N3_19
REMARK    9  A    between atoms: C17_22  and  C18_23
REMARK   10  A    between atoms: C32_40  and  C34_42
ROOT
HETATM    1  C6  UNL     1     -16.984 -27.213 -11.975  1.00  0.00     0.102 C
HETATM    2  C7  UNL     1     -18.474 -27.223 -12.248  1.00  0.00     0.028 C
HETATM    3  C8  UNL     1     -18.711 -27.405 -13.709  1.00  0.00     0.021 C
HETATM    4  C9  UNL     1     -17.881 -28.591 -14.261  1.00  0.00     0.117 C
HETATM    5  N2  UNL     1     -16.552 -28.170 -14.220  1.00  0.00    -0.406 N
HETATM    6  C29 UNL     1     -16.242 -27.159 -13.269  1.00  0.00     0.142 C
ENDROOT
BRANCH   5   7
HETATM    7  C10 UNL     1     -15.632 -28.452 -15.230  1.00  0.00     0.079 C
HETATM    8  C11 UNL     1     -14.353 -28.985 -14.661  1.00  0.00     0.025 C
HETATM    9  C12 UNL     1     -14.258 -30.455 -14.510  1.00  0.00     0.008 C
HETATM   10  C13 UNL     1     -14.513 -31.109 -15.845  1.00  0.00     0.014 C
HETATM   11  C27 UNL     1     -15.862 -30.716 -16.334  1.00  0.00     0.008 C
HETATM   12  C28 UNL     1     -16.133 -29.244 -16.401  1.00  0.00     0.025 C
BRANCH  10  13
HETATM   13  C14 UNL     1     -14.439 -32.613 -15.745  1.00  0.00     0.277 C
BRANCH  13  14
HETATM   14  N3  UNL     1     -13.062 -33.103 -15.684  1.00  0.00     0.089 N
HETATM   15  C15 UNL     1     -12.994 -34.541 -15.958  1.00  0.00     0.273 C
HETATM   16  C16 UNL     1     -11.480 -34.678 -16.178  1.00  0.00     0.041 C
HETATM   17  C17 UNL     1     -11.287 -33.578 -17.215  1.00  0.00     0.051 C
HETATM   18  C26 UNL     1     -12.308 -32.560 -16.806  1.00  0.00     0.281 C
BRANCH  17  19
HETATM   19  C18 UNL     1     -11.572 -34.117 -18.571  1.00  0.00    -0.024 A
HETATM   20  C19 UNL     1     -12.478 -35.049 -19.003  1.00  0.00     0.096 A
HETATM   21  N4  UNL     1     -12.348 -35.200 -20.338  1.00  0.00    -0.365 N
HETATM   22  C20 UNL     1     -11.373 -34.390 -20.822  1.00  0.00     0.042 A
ATOM     23  H4  UNL     1     -12.907 -35.836 -20.906  1.00  0.00     0.165 HD
HETATM   24  C21 UNL     1     -10.880 -34.182 -22.083  1.00  0.00     0.030 A
HETATM   25  C25 UNL     1     -10.885 -33.710 -19.717  1.00  0.00    -0.001 A
HETATM   26  C22 UNL     1      -9.865 -33.276 -22.302  1.00  0.00     0.002 A
HETATM   27  C23 UNL     1      -9.387 -32.606 -21.203  1.00  0.00     0.001 A
HETATM   28  C24 UNL     1      -9.864 -32.797 -19.931  1.00  0.00     0.014 A
ENDBRANCH  17  19
ENDBRANCH  13  14
ENDBRANCH  10  13
ENDBRANCH   5   7
BRANCH   1  29
HETATM   29  N1  UNL     1     -16.628 -26.018 -11.193  1.00  0.00    -0.355 N
HETATM   30  C5  UNL     1     -15.504 -26.001 -10.311  1.00  0.00     0.220 C
HETATM   31  O1  UNL     1     -14.831 -27.062 -10.224  1.00  0.00    -0.274 OA
ATOM     32  H1  UNL     1     -17.200 -25.178 -11.284  1.00  0.00     0.162 HD
BRANCH  30  33
HETATM   33  C4  UNL     1     -15.155 -24.820  -9.551  1.00  0.00     0.128 C
BRANCH  33  34
HETATM   34  C3  UNL     1     -14.780 -23.597 -10.280  1.00  0.00     0.096 C
BRANCH  34  35
HETATM   35  C2  UNL     1     -14.623 -23.846 -11.753  1.00  0.00     0.021 C
HETATM   36  C1  UNL     1     -13.665 -22.806 -12.370  1.00  0.00     0.007 C
ENDBRANCH  34  35
BRANCH  34  37
HETATM   37  N5  UNL     1     -15.695 -22.495 -10.097  1.00  0.00    -0.368 N
HETATM   38  C30 UNL     1     -17.000 -22.661 -10.558  1.00  0.00     0.065 C
HETATM   39  C31 UNL     1     -17.904 -22.351  -9.394  1.00  0.00     0.068 C
HETATM   40  C32 UNL     1     -17.039 -21.468  -8.512  1.00  0.00     0.090 C
HETATM   41  C33 UNL     1     -17.249 -19.986  -8.854  1.00  0.00     0.031 C
HETATM   42  C35 UNL     1     -15.619 -21.863  -8.846  1.00  0.00     0.082 C
BRANCH  40  43
HETATM   43  C34 UNL     1     -17.344 -21.659  -7.036  1.00  0.00     0.399 C
HETATM   44  F1  UNL     1     -16.624 -20.698  -6.346  1.00  0.00    -0.170 F
HETATM   45  F2  UNL     1     -18.709 -21.474  -6.885  1.00  0.00    -0.170 F
HETATM   46  F3  UNL     1     -16.978 -22.930  -6.686  1.00  0.00    -0.170 F
ENDBRANCH  40  43
ENDBRANCH  34  37
ENDBRANCH  33  34
ENDBRANCH  30  33
ENDBRANCH   1  29
TORSDOF 10
ENDMDL