MODEL 1
REMARK VINA RESULT: -6.902339027      0.000      0.000
REMARK  12 active torsions:
REMARK  status: ('A' for Active; 'I' for Inactive)
REMARK    1  A    between atoms: C2_2  and  C3_3
REMARK    2  A    between atoms: C3_3  and  C4_4
REMARK    3  A    between atoms: C9_9  and  C10_10
REMARK    4  A    between atoms: C10_10  and  C11_11
REMARK       I    between atoms: C11_11  and  N1_13
REMARK    5  A    between atoms: N1_13  and  C12_15
REMARK    6  A    between atoms: C12_15  and  C13_16
REMARK    7  A    between atoms: C12_15  and  C18_21
REMARK    8  A    between atoms: C13_16  and  C14_17
REMARK       I    between atoms: C18_21  and  N2_23
REMARK    9  A    between atoms: C22_27  and  C23_28
REMARK   10  A    between atoms: N3_36  and  C28_37
REMARK   11  A    between atoms: C28_37  and  C30_39
REMARK   12  A    between atoms: C30_39  and  O4_40
ROOT
HETATM    1  C10 UNL     1     -20.854 -24.732 -14.263  1.00  0.00     0.108 C
ENDROOT
BRANCH   1   2
HETATM    2  C9  UNL     1     -19.501 -25.302 -14.450  1.00  0.00     0.003 C
HETATM    3  C8  UNL     1     -18.476 -24.496 -13.625  1.00  0.00     0.005 C
HETATM    4  C7  UNL     1     -18.205 -23.131 -14.084  1.00  0.00     0.000 C
HETATM    5  C6  UNL     1     -16.746 -22.799 -13.724  1.00  0.00     0.000 C
HETATM    6  C5  UNL     1     -16.323 -23.348 -12.397  1.00  0.00     0.005 C
HETATM    7  C4  UNL     1     -15.249 -24.425 -12.489  1.00  0.00    -0.011 C
HETATM    8  C33 UNL     1     -15.574 -25.566 -11.539  1.00  0.00    -0.013 C
HETATM    9  C32 UNL     1     -15.440 -26.929 -12.232  1.00  0.00     0.024 C
HETATM   10  C34 UNL     1     -14.834 -25.587 -10.266  1.00  0.00     0.010 C
HETATM   11  C31 UNL     1     -16.746 -27.691 -12.256  1.00  0.00     0.127 C
HETATM   12  N3  UNL     1     -17.170 -28.092 -13.578  1.00  0.00    -0.346 N
HETATM   13  C27 UNL     1     -18.185 -27.398 -14.302  1.00  0.00     0.220 C
HETATM   14  C26 UNL     1     -19.356 -26.680 -13.756  1.00  0.00     0.108 C
HETATM   15  O3  UNL     1     -18.075 -27.392 -15.571  1.00  0.00    -0.273 OA
BRANCH   7  16
HETATM   16  C3  UNL     1     -13.924 -23.787 -12.298  1.00  0.00     0.004 C
BRANCH  16  17
HETATM   17  C2  UNL     1     -13.748 -22.458 -12.979  1.00  0.00    -0.004 C
HETATM   18  C1  UNL     1     -12.775 -21.656 -12.133  1.00  0.00     0.005 C
ENDBRANCH  16  17
ENDBRANCH   7  16
BRANCH  12  19
HETATM   19  C28 UNL     1     -16.549 -29.241 -14.215  1.00  0.00     0.106 C
HETATM   20  C29 UNL     1     -15.275 -28.906 -14.953  1.00  0.00     0.034 C
BRANCH  19  21
HETATM   21  C30 UNL     1     -16.344 -30.425 -13.339  1.00  0.00     0.189 C
BRANCH  21  22
HETATM   22  O4  UNL     1     -15.098 -30.975 -13.298  1.00  0.00    -0.399 OA
ATOM     23  H4  UNL     1     -14.916 -31.606 -12.613  1.00  0.00     0.209 HD
ENDBRANCH  21  22
ENDBRANCH  19  21
ENDBRANCH  12  19
ENDBRANCH   1   2
BRANCH   1  24
HETATM   24  C11 UNL     1     -21.146 -24.606 -12.818  1.00  0.00     0.218 C
HETATM   25  O1  UNL     1     -21.355 -25.578 -12.042  1.00  0.00    -0.274 OA
HETATM   26  N1  UNL     1     -21.195 -23.301 -12.267  1.00  0.00    -0.348 N
ATOM     27  H1  UNL     1     -21.041 -22.486 -12.860  1.00  0.00     0.163 HD
BRANCH  26  28
HETATM   28  C12 UNL     1     -21.477 -23.131 -10.786  1.00  0.00     0.177 C
BRANCH  28  29
HETATM   29  C13 UNL     1     -22.891 -22.642 -10.753  1.00  0.00     0.043 C
BRANCH  29  30
HETATM   30  C14 UNL     1     -23.990 -23.595 -10.512  1.00  0.00    -0.049 C
HETATM   31  C15 UNL     1     -25.081 -22.750  -9.770  1.00  0.00     0.014 C
HETATM   32  C16 UNL     1     -24.714 -24.076 -11.754  1.00  0.00     0.014 C
HETATM   33  C17 UNL     1     -23.700 -24.716  -9.560  1.00  0.00     0.014 C
ENDBRANCH  29  30
ENDBRANCH  28  29
BRANCH  28  34
HETATM   34  C18 UNL     1     -20.460 -22.230 -10.257  1.00  0.00     0.243 C
HETATM   35  O2  UNL     1     -20.769 -20.985 -10.248  1.00  0.00    -0.271 OA
HETATM   36  N2  UNL     1     -19.172 -22.550  -9.759  1.00  0.00    -0.345 N
HETATM   37  C19 UNL     1     -18.752 -23.936  -9.782  1.00  0.00     0.126 C
HETATM   38  C24 UNL     1     -18.259 -21.561  -9.263  1.00  0.00     0.092 C
HETATM   39  C20 UNL     1     -18.015 -24.364  -8.544  1.00  0.00     0.020 C
HETATM   40  C21 UNL     1     -16.787 -23.470  -8.473  1.00  0.00     0.014 C
HETATM   41  C22 UNL     1     -17.139 -22.029  -8.418  1.00  0.00     0.073 C
HETATM   42  C25 UNL     1     -18.941 -20.425  -8.502  1.00  0.00     0.033 C
BRANCH  41  43
HETATM   43  C23 UNL     1     -15.872 -21.263  -8.844  1.00  0.00     0.359 C
HETATM   44  F1  UNL     1     -14.987 -22.257  -9.284  1.00  0.00    -0.214 F
HETATM   45  F2  UNL     1     -15.355 -20.536  -7.811  1.00  0.00    -0.214 F
ENDBRANCH  41  43
ENDBRANCH  28  34
ENDBRANCH  26  28
ENDBRANCH   1  24
TORSDOF 12
ENDMDL