MODEL 5
REMARK VINA RESULT: -8.065193370      3.104      5.224
REMARK  11 active torsions:
REMARK  status: ('A' for Active; 'I' for Inactive)
REMARK    1  A    between atoms: C2_2  and  C4_4
REMARK    2  A    between atoms: C4_4  and  C6_6
REMARK    3  A    between atoms: C4_4  and  C7_9
REMARK    4  A    between atoms: C10_12  and  C11_13
REMARK    5  A    between atoms: C12_17  and  C13_18
REMARK    6  A    between atoms: C13_18  and  N1_19
REMARK    7  A    between atoms: N2_28  and  C22_29
REMARK    8  A    between atoms: C22_29  and  C23_30
REMARK    9  A    between atoms: C23_30  and  C24_31
REMARK   10  A    between atoms: C23_30  and  N3_37
REMARK   11  A    between atoms: C24_31  and  C25_32
ROOT
HETATM    1  N1  UNL     1     -19.944 -25.141 -12.255  1.00  0.00     0.094 N
HETATM    2  C14 UNL     1     -20.000 -25.020 -13.658  1.00  0.00     0.275 C
HETATM    3  C15 UNL     1     -18.691 -24.890 -14.383  1.00  0.00     0.066 C
HETATM    4  C16 UNL     1     -18.047 -23.562 -14.333  1.00  0.00     0.225 C
HETATM    5  C17 UNL     1     -18.939 -22.427 -14.699  1.00  0.00     0.036 C
HETATM    6  C18 UNL     1     -19.280 -21.609 -13.489  1.00  0.00     0.004 C
HETATM    7  C19 UNL     1     -19.354 -22.357 -12.194  1.00  0.00     0.038 C
HETATM    8  C20 UNL     1     -18.265 -23.343 -11.965  1.00  0.00     0.251 C
HETATM    9  C21 UNL     1     -18.767 -24.694 -11.589  1.00  0.00     0.308 C
HETATM   10  N2  UNL     1     -17.343 -23.330 -13.086  1.00  0.00     0.101 N
ENDROOT
BRANCH   1  11
HETATM   11  C13 UNL     1     -20.186 -26.508 -11.860  1.00  0.00     0.311 C
BRANCH  11  12
HETATM   12  C12 UNL     1     -19.063 -27.432 -11.936  1.00  0.00    -0.015 A
HETATM   13  C10 UNL     1     -18.579 -27.971 -10.734  1.00  0.00     0.056 A
HETATM   14  C9  UNL     1     -17.535 -28.866 -10.848  1.00  0.00     0.017 A
HETATM   15  C8  UNL     1     -16.985 -29.221 -12.059  1.00  0.00     0.009 A
HETATM   16  C7  UNL     1     -17.460 -28.691 -13.251  1.00  0.00    -0.038 A
HETATM   17  C34 UNL     1     -18.508 -27.795 -13.145  1.00  0.00     0.018 A
BRANCH  13  18
HETATM   18  C11 UNL     1     -19.154 -27.594  -9.433  1.00  0.00     0.418 C
HETATM   19  F1  UNL     1     -20.476 -27.886  -9.258  1.00  0.00    -0.166 F
HETATM   20  F2  UNL     1     -18.488 -28.356  -8.452  1.00  0.00    -0.166 F
HETATM   21  F3  UNL     1     -18.842 -26.277  -9.066  1.00  0.00    -0.166 F
ENDBRANCH  13  18
BRANCH  16  22
HETATM   22  C4  UNL     1     -16.839 -29.101 -14.536  1.00  0.00     0.075 C
HETATM   23  C5  UNL     1     -16.902 -30.638 -14.578  1.00  0.00     0.032 C
BRANCH  22  24
HETATM   24  C2  UNL     1     -17.686 -28.609 -15.688  1.00  0.00     0.001 C
HETATM   25  C1  UNL     1     -16.844 -28.107 -16.840  1.00  0.00     0.011 C
HETATM   26  C3  UNL     1     -18.715 -29.607 -16.149  1.00  0.00     0.011 C
ENDBRANCH  22  24
BRANCH  22  27
HETATM   27  C6  UNL     1     -15.419 -28.768 -14.660  1.00  0.00     0.186 C
HETATM   28  O1  UNL     1     -14.926 -27.698 -14.253  1.00  0.00    -0.647 OA
HETATM   29  O2  UNL     1     -14.580 -29.688 -15.261  1.00  0.00    -0.647 OA
ENDBRANCH  22  27
ENDBRANCH  16  22
ENDBRANCH  11  12
ENDBRANCH   1  11
BRANCH  10  30
HETATM   30  C22 UNL     1     -16.230 -24.195 -12.938  1.00  0.00     0.298 C
BRANCH  30  31
HETATM   31  C23 UNL     1     -15.131 -23.841 -12.055  1.00  0.00     0.116 C
BRANCH  31  32
HETATM   32  C24 UNL     1     -13.750 -23.595 -12.398  1.00  0.00     0.031 C
BRANCH  32  33
HETATM   33  C25 UNL     1     -13.158 -22.357 -12.906  1.00  0.00    -0.013 C
HETATM   34  C26 UNL     1     -11.878 -22.538 -13.634  1.00  0.00     0.005 C
HETATM   35  C27 UNL     1     -10.870 -21.529 -13.063  1.00  0.00     0.000 C
HETATM   36  C28 UNL     1     -11.763 -20.537 -12.345  1.00  0.00     0.000 C
HETATM   37  C29 UNL     1     -12.870 -21.363 -11.758  1.00  0.00     0.005 C
ENDBRANCH  32  33
ENDBRANCH  31  32
BRANCH  31  38
HETATM   38  N3  UNL     1     -15.130 -24.759 -10.888  1.00  0.00    -0.343 N
HETATM   39  C30 UNL     1     -15.156 -26.200 -11.038  1.00  0.00     0.154 C
HETATM   40  C31 UNL     1     -14.742 -26.793  -9.703  1.00  0.00     0.252 C
HETATM   41  N4  UNL     1     -15.653 -26.399  -8.648  1.00  0.00    -0.065 N
HETATM   42  C32 UNL     1     -15.801 -24.989  -8.502  1.00  0.00     0.334 C
ATOM     43  H42 UNL     1     -16.562 -26.842  -8.777  1.00  0.00     0.277 HD
ATOM     44  H41 UNL     1     -15.378 -26.823  -7.761  1.00  0.00     0.277 HD
HETATM   45  C33 UNL     1     -15.093 -24.212  -9.585  1.00  0.00     0.245 C
HETATM   46  O3  UNL     1     -14.508 -23.134  -9.316  1.00  0.00    -0.272 OA
ENDBRANCH  31  38
ENDBRANCH  30  31
ENDBRANCH  10  30
TORSDOF 11
ENDMDL