MODEL 4
REMARK VINA RESULT: -8.226216522      1.866      3.430
REMARK  11 active torsions:
REMARK  status: ('A' for Active; 'I' for Inactive)
REMARK    1  A    between atoms: N1_2  and  C2_5
REMARK    2  A    between atoms: C2_5  and  C3_6
REMARK    3  A    between atoms: C3_6  and  C4_7
REMARK    4  A    between atoms: C4_7  and  O1_8
REMARK    5  A    between atoms: O1_8  and  C5_9
REMARK    6  A    between atoms: C12_16  and  C13_17
REMARK    7  A    between atoms: C13_17  and  N2_18
REMARK       I    between atoms: N2_18  and  C14_20
REMARK    8  A    between atoms: C14_20  and  C15_22
REMARK    9  A    between atoms: C15_22  and  C19_26
REMARK   10  A    between atoms: C24_31  and  C25_32
REMARK   11  A    between atoms: C27_37  and  N3_38
ROOT
HETATM    1  C5  UNL     1     -16.789 -27.888 -14.718  1.00  0.00     0.135 C
HETATM    2  C6  UNL     1     -16.764 -28.365 -16.149  1.00  0.00     0.033 C
HETATM    3  C7  UNL     1     -17.621 -29.570 -16.383  1.00  0.00     0.007 C
HETATM    4  C8  UNL     1     -16.938 -30.868 -16.015  1.00  0.00    -0.012 C
HETATM    5  C9  UNL     1     -15.447 -30.807 -16.215  1.00  0.00     0.009 C
HETATM    6  C10 UNL     1     -14.665 -30.501 -15.012  1.00  0.00    -0.011 C
HETATM    7  C11 UNL     1     -14.643 -29.093 -14.489  1.00  0.00     0.022 C
HETATM    8  C12 UNL     1     -15.814 -28.580 -13.789  1.00  0.00     0.021 C
HETATM    9  C26 UNL     1     -16.590 -29.665 -13.027  1.00  0.00     0.048 C
HETATM   10  C27 UNL     1     -16.458 -31.039 -13.524  1.00  0.00     0.037 C
HETATM   11  C32 UNL     1     -17.316 -31.410 -14.690  1.00  0.00     0.036 C
HETATM   12  C33 UNL     1     -15.018 -31.408 -13.881  1.00  0.00     0.036 C
ENDROOT
BRANCH   8  13
HETATM   13  C13 UNL     1     -15.519 -27.567 -12.717  1.00  0.00     0.076 C
BRANCH  13  14
HETATM   14  N2  UNL     1     -15.513 -26.201 -12.902  1.00  0.00    -0.336 N
HETATM   15  C14 UNL     1     -16.164 -25.146 -12.227  1.00  0.00     0.256 C
HETATM   16  O2  UNL     1     -16.934 -25.310 -11.258  1.00  0.00    -0.267 OA
ATOM     17  H2  UNL     1     -14.925 -25.893 -13.676  1.00  0.00     0.168 HD
BRANCH  15  18
HETATM   18  C15 UNL     1     -15.969 -23.736 -12.648  1.00  0.00     0.045 C
HETATM   19  C16 UNL     1     -16.883 -23.180 -13.382  1.00  0.00    -0.063 A
HETATM   20  C17 UNL     1     -18.228 -23.299 -14.105  1.00  0.00     0.039 A
HETATM   21  C18 UNL     1     -17.483 -22.062 -14.233  1.00  0.00     0.039 A
BRANCH  18  22
HETATM   22  C19 UNL     1     -14.771 -23.072 -12.232  1.00  0.00    -0.005 A
HETATM   23  C20 UNL     1     -13.745 -22.952 -13.205  1.00  0.00     0.013 A
HETATM   24  C21 UNL     1     -12.541 -22.377 -12.906  1.00  0.00     0.001 A
HETATM   25  C22 UNL     1     -12.353 -21.913 -11.620  1.00  0.00     0.001 A
HETATM   26  C23 UNL     1     -13.344 -22.027 -10.679  1.00  0.00     0.017 A
HETATM   27  C24 UNL     1     -14.581 -22.615 -10.976  1.00  0.00     0.059 A
BRANCH  27  28
HETATM   28  C25 UNL     1     -15.551 -22.673  -9.908  1.00  0.00     0.418 C
HETATM   29  F1  UNL     1     -16.838 -22.434 -10.324  1.00  0.00    -0.166 F
HETATM   30  F2  UNL     1     -15.604 -23.871  -9.212  1.00  0.00    -0.166 F
HETATM   31  F3  UNL     1     -15.297 -21.691  -8.931  1.00  0.00    -0.166 F
ENDBRANCH  27  28
ENDBRANCH  18  22
ENDBRANCH  15  18
ENDBRANCH  13  14
ENDBRANCH   8  13
BRANCH   1  32
HETATM   32  O1  UNL     1     -18.104 -27.896 -14.246  1.00  0.00    -0.384 OA
BRANCH  32  33
HETATM   33  C4  UNL     1     -18.673 -26.675 -14.488  1.00  0.00     0.179 C
BRANCH  33  34
HETATM   34  C3  UNL     1     -20.048 -26.527 -13.872  1.00  0.00     0.005 A
HETATM   35  C34 UNL     1     -20.994 -25.594 -14.616  1.00  0.00     0.014 A
HETATM   36  C35 UNL     1     -21.240 -27.104 -14.534  1.00  0.00     0.014 A
BRANCH  34  37
HETATM   37  C2  UNL     1     -20.036 -26.343 -12.374  1.00  0.00     0.243 C
BRANCH  37  38
HETATM   38  N1  UNL     1     -19.139 -27.271 -11.711  1.00  0.00    -0.078 N
HETATM   39  C1  UNL     1     -19.894 -28.441 -11.236  1.00  0.00     0.267 C
ATOM     40  H12 UNL     1     -18.611 -26.825 -10.961  1.00  0.00     0.276 HD
ATOM     41  H11 UNL     1     -18.355 -27.538 -12.306  1.00  0.00     0.276 HD
ENDBRANCH  37  38
ENDBRANCH  34  37
ENDBRANCH  33  34
ENDBRANCH  32  33
ENDBRANCH   1  32
BRANCH  10  42
HETATM   42  N3  UNL     1     -16.818 -31.971 -12.441  1.00  0.00    -0.343 N
HETATM   43  C28 UNL     1     -17.208 -33.384 -12.599  1.00  0.00     0.127 C
HETATM   44  C29 UNL     1     -18.016 -33.684 -11.381  1.00  0.00     0.029 C
HETATM   45  C30 UNL     1     -17.332 -32.911 -10.299  1.00  0.00     0.104 C
HETATM   46  C31 UNL     1     -16.863 -31.696 -11.053  1.00  0.00     0.220 C
HETATM   47  O3  UNL     1     -16.573 -30.630 -10.469  1.00  0.00    -0.273 OA
ENDBRANCH  10  42
TORSDOF 11
ENDMDL