MODEL 3
REMARK VINA RESULT: -7.715156920      3.161      9.445
REMARK  10 active torsions:
REMARK  status: ('A' for Active; 'I' for Inactive)
REMARK    1  A    between atoms: C2_2  and  C3_5
REMARK    2  A    between atoms: C3_5  and  C4_6
REMARK    3  A    between atoms: C3_5  and  N1_12
REMARK    4  A    between atoms: C4_6  and  C5_7
REMARK       I    between atoms: N1_12  and  C10_14
REMARK    5  A    between atoms: C10_14  and  C11_16
REMARK       I    between atoms: N2_19  and  C14_20
REMARK    6  A    between atoms: C14_20  and  C15_22
REMARK    7  A    between atoms: N3_24  and  C17_25
REMARK    8  A    between atoms: C22_30  and  C23_31
REMARK    9  A    between atoms: C30_39  and  N4_40
REMARK   10  A    between atoms: N4_40  and  C31_42
ROOT
HETATM    1  C11 UNL     1     -17.229 -25.740 -11.978  1.00  0.00     0.103 C
HETATM    2  C12 UNL     1     -18.065 -25.719 -13.221  1.00  0.00     0.036 C
HETATM    3  C13 UNL     1     -19.134 -26.738 -13.327  1.00  0.00     0.127 C
HETATM    4  N2  UNL     1     -18.744 -27.975 -12.706  1.00  0.00    -0.350 N
HETATM    5  C14 UNL     1     -18.947 -29.237 -13.342  1.00  0.00     0.226 C
HETATM    6  O2  UNL     1     -18.608 -30.273 -12.720  1.00  0.00    -0.273 OA
HETATM    7  C29 UNL     1     -18.123 -27.904 -11.388  1.00  0.00     0.151 C
HETATM    8  C30 UNL     1     -18.006 -26.493 -10.900  1.00  0.00     0.108 C
ENDROOT
BRANCH   5   9
HETATM    9  C15 UNL     1     -19.516 -29.321 -14.656  1.00  0.00     0.116 C
HETATM   10  C16 UNL     1     -19.709 -30.751 -15.158  1.00  0.00     0.288 C
HETATM   11  N3  UNL     1     -19.839 -30.614 -16.579  1.00  0.00     0.098 N
HETATM   12  C21 UNL     1     -19.339 -29.339 -16.948  1.00  0.00     0.283 C
HETATM   13  C22 UNL     1     -18.571 -28.843 -15.778  1.00  0.00     0.061 C
BRANCH  11  14
HETATM   14  C17 UNL     1     -21.109 -30.980 -17.103  1.00  0.00     0.149 C
HETATM   15  C18 UNL     1     -21.128 -32.481 -17.302  1.00  0.00     0.048 C
HETATM   16  C19 UNL     1     -22.285 -30.611 -16.239  1.00  0.00     0.048 C
HETATM   17  C20 UNL     1     -21.243 -30.337 -18.480  1.00  0.00     0.048 C
ENDBRANCH  11  14
BRANCH  13  18
HETATM   18  C23 UNL     1     -17.222 -29.400 -15.677  1.00  0.00    -0.051 A
HETATM   19  C24 UNL     1     -16.900 -30.692 -15.994  1.00  0.00     0.009 A
HETATM   20  C25 UNL     1     -15.622 -31.215 -15.884  1.00  0.00     0.024 A
HETATM   21  C26 UNL     1     -14.629 -30.382 -15.431  1.00  0.00     0.034 A
HETATM   22 CL2  UNL     1     -13.002 -31.036 -15.286  1.00  0.00    -0.084 Cl
HETATM   23  C27 UNL     1     -14.933 -29.078 -15.107  1.00  0.00     0.024 A
HETATM   24  C28 UNL     1     -16.197 -28.561 -15.215  1.00  0.00     0.009 A
ENDBRANCH  13  18
ENDBRANCH   5   9
BRANCH   8  25
HETATM   25  N4  UNL     1     -19.160 -25.766 -10.615  1.00  0.00    -0.411 N
ATOM     26  H4  UNL     1     -19.599 -25.233 -11.366  1.00  0.00     0.154 HD
BRANCH  25  27
HETATM   27  C31 UNL     1     -19.745 -25.737  -9.339  1.00  0.00     0.077 A
HETATM   28  C32 UNL     1     -19.797 -24.468  -8.575  1.00  0.00     0.027 A
HETATM   29  C33 UNL     1     -18.816 -25.603  -8.158  1.00  0.00     0.027 A
ENDBRANCH  25  27
ENDBRANCH   8  25
BRANCH   1  30
HETATM   30  C10 UNL     1     -16.830 -24.389 -11.618  1.00  0.00     0.224 C
HETATM   31  N1  UNL     1     -16.053 -24.041 -10.482  1.00  0.00    -0.352 N
ATOM     32  H1  UNL     1     -15.754 -24.785  -9.852  1.00  0.00     0.163 HD
HETATM   33  O1  UNL     1     -17.186 -23.426 -12.354  1.00  0.00    -0.273 OA
BRANCH  31  34
HETATM   34  C3  UNL     1     -15.662 -22.666 -10.171  1.00  0.00     0.139 C
BRANCH  34  35
HETATM   35  C2  UNL     1     -16.424 -22.147  -8.984  1.00  0.00     0.195 C
HETATM   36  C1  UNL     1     -15.801 -20.895  -8.408  1.00  0.00     0.072 C
HETATM   37  F1  UNL     1     -16.744 -23.009  -8.015  1.00  0.00    -0.224 F
HETATM   38 CL1  UNL     1     -18.042 -21.541  -9.588  1.00  0.00    -0.081 Cl
ENDBRANCH  34  35
BRANCH  34  39
HETATM   39  C4  UNL     1     -14.225 -22.445 -10.233  1.00  0.00     0.034 C
BRANCH  39  40
HETATM   40  C5  UNL     1     -13.393 -22.342 -11.382  1.00  0.00    -0.013 C
HETATM   41  C6  UNL     1     -13.830 -22.490 -12.778  1.00  0.00     0.005 C
HETATM   42  C7  UNL     1     -12.408 -22.692 -13.399  1.00  0.00     0.000 C
HETATM   43  C8  UNL     1     -11.619 -21.584 -12.681  1.00  0.00     0.000 C
HETATM   44  C9  UNL     1     -12.504 -21.117 -11.526  1.00  0.00     0.005 C
ENDBRANCH  39  40
ENDBRANCH  34  39
ENDBRANCH  31  34
ENDBRANCH   1  30
TORSDOF 10
ENDMDL