MODEL 3
REMARK VINA RESULT: -8.088917704      3.310      7.403
REMARK  10 active torsions:
REMARK  status: ('A' for Active; 'I' for Inactive)
REMARK    1  A    between atoms: C5_5  and  C6_6
REMARK    2  A    between atoms: C6_6  and  N1_7
REMARK    3  A    between atoms: N1_7  and  C7_9
REMARK    4  A    between atoms: C7_9  and  C8_10
REMARK    5  A    between atoms: C7_9  and  C20_30
REMARK       I    between atoms: C8_10  and  N2_12
REMARK    6  A    between atoms: C12_17  and  C13_18
REMARK       I    between atoms: C13_18  and  N3_20
REMARK    7  A    between atoms: N3_20  and  C14_22
REMARK    8  A    between atoms: C23_33  and  N4_34
REMARK    9  A    between atoms: N4_34  and  C24_35
REMARK   10  A    between atoms: N4_34  and  C27_38
ROOT
HETATM    1  C7  UNL     1     -15.233 -22.734 -10.987  1.00  0.00     0.177 C
ENDROOT
BRANCH   1   2
HETATM    2  N1  UNL     1     -13.985 -22.065 -10.937  1.00  0.00    -0.385 N
ATOM      3  H1  UNL     1     -13.950 -21.107 -10.591  1.00  0.00     0.159 HD
BRANCH   2   4
HETATM    4  C6  UNL     1     -12.802 -22.685 -11.349  1.00  0.00     0.095 C
BRANCH   4   5
HETATM    5  C5  UNL     1     -12.113 -21.728 -12.311  1.00  0.00    -0.021 A
HETATM    6  C4  UNL     1     -11.221 -22.235 -13.229  1.00  0.00     0.013 A
HETATM    7  C3  UNL     1     -10.555 -21.408 -14.130  1.00  0.00     0.007 A
HETATM    8  C2  UNL     1     -10.786 -20.053 -14.109  1.00  0.00    -0.062 A
HETATM    9  C1  UNL     1     -10.061 -19.163 -15.080  1.00  0.00     0.048 C
HETATM   10  C35 UNL     1     -11.676 -19.542 -13.193  1.00  0.00     0.007 A
HETATM   11  C34 UNL     1     -12.343 -20.377 -12.291  1.00  0.00     0.013 A
ENDBRANCH   4   5
ENDBRANCH   2   4
ENDBRANCH   1   2
BRANCH   1  12
HETATM   12  C8  UNL     1     -15.770 -22.980 -12.345  1.00  0.00     0.243 C
HETATM   13  O1  UNL     1     -14.940 -23.087 -13.306  1.00  0.00    -0.271 OA
HETATM   14  N2  UNL     1     -17.154 -23.087 -12.608  1.00  0.00    -0.334 N
HETATM   15  C9  UNL     1     -18.250 -23.010 -11.671  1.00  0.00     0.164 C
HETATM   16  C12 UNL     1     -17.744 -23.228 -13.948  1.00  0.00     0.182 C
HETATM   17  C10 UNL     1     -19.401 -22.397 -12.444  1.00  0.00     0.190 C
HETATM   18  F1  UNL     1     -19.776 -21.159 -11.930  1.00  0.00    -0.248 F
HETATM   19  C11 UNL     1     -18.856 -22.140 -13.829  1.00  0.00     0.074 C
BRANCH  16  20
HETATM   20  C13 UNL     1     -18.375 -24.518 -14.213  1.00  0.00     0.241 C
HETATM   21  O2  UNL     1     -19.499 -24.590 -14.783  1.00  0.00    -0.271 OA
HETATM   22  N3  UNL     1     -17.762 -25.738 -13.851  1.00  0.00    -0.355 N
ATOM     23  H3  UNL     1     -16.866 -25.689 -13.367  1.00  0.00     0.162 HD
BRANCH  22  24
HETATM   24  C14 UNL     1     -18.305 -27.053 -14.113  1.00  0.00     0.084 C
HETATM   25  C15 UNL     1     -17.740 -27.670 -15.338  1.00  0.00     0.031 C
HETATM   26  C16 UNL     1     -18.391 -29.000 -15.619  1.00  0.00     0.081 C
HETATM   27  C17 UNL     1     -18.430 -29.886 -14.418  1.00  0.00     0.243 C
HETATM   28  F2  UNL     1     -19.754 -29.913 -13.969  1.00  0.00    -0.206 F
HETATM   29  F3  UNL     1     -18.093 -31.201 -14.696  1.00  0.00    -0.206 F
HETATM   30  C18 UNL     1     -17.603 -29.330 -13.300  1.00  0.00     0.081 C
HETATM   31  C19 UNL     1     -18.051 -27.963 -12.899  1.00  0.00     0.031 C
ENDBRANCH  22  24
ENDBRANCH  16  20
ENDBRANCH   1  12
BRANCH   1  32
HETATM   32  C20 UNL     1     -15.027 -24.051 -10.237  1.00  0.00     0.018 C
HETATM   33  C21 UNL     1     -15.992 -23.975  -9.042  1.00  0.00     0.013 C
HETATM   34  C22 UNL     1     -15.803 -25.239  -8.187  1.00  0.00     0.053 C
HETATM   35  C23 UNL     1     -16.161 -26.403  -9.044  1.00  0.00    -0.015 C
HETATM   36  C32 UNL     1     -15.181 -26.502 -10.184  1.00  0.00     0.053 C
HETATM   37  C33 UNL     1     -15.354 -25.251 -11.073  1.00  0.00     0.013 C
BRANCH  35  38
HETATM   38  N4  UNL     1     -16.544 -27.624  -8.425  1.00  0.00    -0.379 N
BRANCH  38  39
HETATM   39  C24 UNL     1     -15.769 -28.779  -8.699  1.00  0.00     0.076 C
HETATM   40  C25 UNL     1     -16.677 -29.869  -9.315  1.00  0.00     0.032 C
HETATM   41  C26 UNL     1     -14.926 -29.400  -7.671  1.00  0.00     0.032 C
ENDBRANCH  38  39
BRANCH  38  42
HETATM   42  C27 UNL     1     -17.957 -27.868  -8.390  1.00  0.00     0.084 C
HETATM   43  C28 UNL     1     -18.805 -27.091  -9.352  1.00  0.00     0.025 C
HETATM   44  C29 UNL     1     -20.115 -26.760  -8.583  1.00  0.00     0.002 C
HETATM   45  C30 UNL     1     -19.548 -26.527  -7.194  1.00  0.00     0.002 C
HETATM   46  C31 UNL     1     -18.665 -27.795  -7.112  1.00  0.00     0.025 C
ENDBRANCH  38  42
ENDBRANCH  35  38
ENDBRANCH   1  32
TORSDOF 10
ENDMDL