MODEL 4
REMARK VINA RESULT: -7.215220334      3.464      5.080
REMARK  9 active torsions:
REMARK  status: ('A' for Active; 'I' for Inactive)
REMARK    1  A    between atoms: C2_2  and  N1_4
REMARK    2  A    between atoms: C6_7  and  C7_8
REMARK       I    between atoms: C7_8  and  N2_10
REMARK    3  A    between atoms: N2_10  and  C8_12
REMARK    4  A    between atoms: N3_20  and  C16_21
REMARK    5  A    between atoms: C16_21  and  C17_22
REMARK    6  A    between atoms: C17_22  and  C18_23
REMARK    7  A    between atoms: C18_23  and  C19_24
REMARK    8  A    between atoms: C19_24  and  C20_25
REMARK    9  A    between atoms: C20_25  and  C21_26
ROOT
HETATM    1  C8  UNL     1     -14.027 -22.865 -10.558  1.00  0.00     0.084 C
HETATM    2  C9  UNL     1     -14.972 -22.282  -9.554  1.00  0.00     0.026 C
HETATM    3  C10 UNL     1     -16.363 -22.798  -9.810  1.00  0.00     0.011 C
HETATM    4  C11 UNL     1     -16.362 -24.273  -9.981  1.00  0.00    -0.037 C
HETATM    5  C12 UNL     1     -15.491 -24.761 -11.123  1.00  0.00     0.011 C
HETATM    6  C13 UNL     1     -14.737 -23.566 -11.697  1.00  0.00     0.026 C
HETATM    7  C14 UNL     1     -15.884 -24.939  -8.714  1.00  0.00     0.039 C
HETATM    8  C15 UNL     1     -16.361 -26.395  -8.840  1.00  0.00     0.273 C
HETATM    9  N3  UNL     1     -17.730 -26.422  -8.329  1.00  0.00     0.088 N
HETATM   10  C30 UNL     1     -18.332 -25.185  -8.830  1.00  0.00     0.273 C
HETATM   11  C31 UNL     1     -17.797 -24.793 -10.183  1.00  0.00     0.039 C
ENDROOT
BRANCH   9  12
HETATM   12  C16 UNL     1     -18.455 -27.528  -8.896  1.00  0.00     0.272 C
BRANCH  12  13
HETATM   13  C17 UNL     1     -17.655 -28.421  -9.800  1.00  0.00     0.030 C
BRANCH  13  14
HETATM   14  C18 UNL     1     -18.132 -28.373 -11.258  1.00  0.00     0.003 C
BRANCH  14  15
HETATM   15  C19 UNL     1     -16.997 -28.070 -12.152  1.00  0.00     0.029 C
BRANCH  15  16
HETATM   16  C20 UNL     1     -16.881 -28.863 -13.418  1.00  0.00     0.124 C
HETATM   17  C27 UNL     1     -16.288 -30.205 -12.997  1.00  0.00     0.238 C
HETATM   18  O2  UNL     1     -16.215 -30.931 -12.004  1.00  0.00    -0.272 OA
HETATM   19  N4  UNL     1     -15.806 -30.298 -14.329  1.00  0.00    -0.323 N
HETATM   20  C28 UNL     1     -15.734 -28.826 -14.295  1.00  0.00     0.195 C
ATOM     21  H4  UNL     1     -15.603 -31.040 -14.999  1.00  0.00     0.165 HD
HETATM   22  C29 UNL     1     -15.905 -28.346 -15.721  1.00  0.00     0.078 C
HETATM   23  F1  UNL     1     -14.489 -28.500 -13.855  1.00  0.00    -0.218 F
BRANCH  16  24
HETATM   24  C21 UNL     1     -18.181 -29.189 -14.063  1.00  0.00    -0.013 A
HETATM   25  C22 UNL     1     -18.650 -30.477 -14.213  1.00  0.00     0.012 A
HETATM   26  C23 UNL     1     -19.858 -30.791 -14.782  1.00  0.00     0.024 A
HETATM   27  C24 UNL     1     -20.676 -29.791 -15.240  1.00  0.00     0.035 A
HETATM   28 CL1  UNL     1     -22.242 -30.123 -15.977  1.00  0.00    -0.084 Cl
HETATM   29  C25 UNL     1     -20.263 -28.504 -15.116  1.00  0.00     0.048 A
HETATM   30  C26 UNL     1     -19.051 -28.202 -14.547  1.00  0.00     0.043 A
HETATM   31 CL2  UNL     1     -18.605 -26.527 -14.467  1.00  0.00    -0.084 Cl
ENDBRANCH  16  24
ENDBRANCH  15  16
ENDBRANCH  14  15
ENDBRANCH  13  14
ENDBRANCH  12  13
ENDBRANCH   9  12
BRANCH   1  32
HETATM   32  N2  UNL     1     -13.151 -21.872 -11.075  1.00  0.00    -0.356 N
HETATM   33  C7  UNL     1     -12.456 -22.019 -12.291  1.00  0.00     0.222 C
HETATM   34  O1  UNL     1     -12.593 -23.058 -12.980  1.00  0.00    -0.273 OA
ATOM     35  H2  UNL     1     -13.019 -21.013 -10.540  1.00  0.00     0.162 HD
BRANCH  33  36
HETATM   36  C6  UNL     1     -11.571 -20.886 -12.691  1.00  0.00     0.081 C
HETATM   37  C5  UNL     1     -10.410 -21.354 -13.550  1.00  0.00     0.033 C
HETATM   38  C4  UNL     1     -10.423 -20.667 -14.893  1.00  0.00     0.118 C
HETATM   39  N1  UNL     1     -10.498 -19.249 -14.847  1.00  0.00    -0.409 N
HETATM   40  C33 UNL     1     -11.266 -18.739 -13.754  1.00  0.00     0.118 C
HETATM   41  C32 UNL     1     -12.325 -19.805 -13.409  1.00  0.00     0.033 C
BRANCH  39  42
HETATM   42  C2  UNL     1      -9.281 -18.548 -15.124  1.00  0.00     0.070 C
HETATM   43  C1  UNL     1      -9.483 -17.455 -16.145  1.00  0.00     0.031 C
HETATM   44  C3  UNL     1      -8.208 -19.471 -15.671  1.00  0.00     0.031 C
ENDBRANCH  39  42
ENDBRANCH  33  36
ENDBRANCH   1  32
TORSDOF 9
ENDMDL