MODEL 1
REMARK VINA RESULT: -8.687717829      0.000      0.000
REMARK  11 active torsions:
REMARK  status: ('A' for Active; 'I' for Inactive)
REMARK    1  A    between atoms: C2_2  and  C5_5
REMARK    2  A    between atoms: C6_8  and  C7_9
REMARK    3  A    between atoms: C9_14  and  C10_15
REMARK       I    between atoms: C10_15  and  N2_17
REMARK    4  A    between atoms: N2_17  and  C11_19
REMARK    5  A    between atoms: C11_19  and  C12_20
REMARK    6  A    between atoms: C12_20  and  C13_21
REMARK    7  A    between atoms: C13_21  and  N3_22
REMARK    8  A    between atoms: N4_25  and  C16_26
REMARK    9  A    between atoms: C16_26  and  C17_27
REMARK   10  A    between atoms: C17_27  and  N5_28
REMARK   11  A    between atoms: C25_36  and  C26_37
ROOT
HETATM    1  N3  UNL     1     -16.501 -29.601  -8.933  1.00  0.00     0.091 N
HETATM    2  C14 UNL     1     -17.153 -30.751  -8.285  1.00  0.00     0.302 C
HETATM    3  C15 UNL     1     -17.614 -31.650  -9.415  1.00  0.00     0.302 C
HETATM    4  N4  UNL     1     -18.883 -31.124  -9.890  1.00  0.00     0.093 N
HETATM    5  C34 UNL     1     -18.762 -29.665  -9.858  1.00  0.00     0.302 C
HETATM    6  C35 UNL     1     -17.331 -29.235 -10.101  1.00  0.00     0.302 C
ENDROOT
BRANCH   1   7
HETATM    7  C13 UNL     1     -16.435 -28.470  -8.026  1.00  0.00     0.274 C
BRANCH   7   8
HETATM    8  C12 UNL     1     -15.340 -27.544  -8.482  1.00  0.00     0.050 C
BRANCH   8   9
HETATM    9  C11 UNL     1     -15.833 -26.106  -8.536  1.00  0.00     0.124 C
BRANCH   9  10
HETATM   10  N2  UNL     1     -15.277 -25.404  -9.677  1.00  0.00    -0.357 N
HETATM   11  C10 UNL     1     -15.280 -24.000  -9.787  1.00  0.00     0.253 C
HETATM   12  O1  UNL     1     -15.793 -23.312  -8.889  1.00  0.00    -0.268 OA
ATOM     13  H2  UNL     1     -14.866 -25.951 -10.433  1.00  0.00     0.162 HD
BRANCH  11  14
HETATM   14  C9  UNL     1     -14.693 -23.365 -10.947  1.00  0.00     0.057 A
HETATM   15  C5  UNL     1     -15.259 -23.120 -12.161  1.00  0.00     0.033 A
HETATM   16  N1  UNL     1     -14.373 -22.416 -12.916  1.00  0.00    -0.354 N
HETATM   17  C6  UNL     1     -13.252 -22.207 -12.217  1.00  0.00     0.117 A
ATOM     18  H1  UNL     1     -14.538 -22.098 -13.870  1.00  0.00     0.166 HD
HETATM   19  C8  UNL     1     -13.409 -22.785 -10.980  1.00  0.00     0.053 A
BRANCH  15  20
HETATM   20  C2  UNL     1     -16.565 -23.573 -12.673  1.00  0.00    -0.008 C
HETATM   21  C1  UNL     1     -17.747 -23.262 -11.829  1.00  0.00     0.021 C
HETATM   22  C3  UNL     1     -16.818 -22.855 -14.017  1.00  0.00     0.021 C
HETATM   23  C4  UNL     1     -16.520 -25.054 -13.034  1.00  0.00     0.021 C
ENDBRANCH  15  20
BRANCH  17  24
HETATM   24  C7  UNL     1     -12.013 -21.468 -12.654  1.00  0.00     0.432 C
HETATM   25  F1  UNL     1     -10.923 -22.019 -12.043  1.00  0.00    -0.165 F
HETATM   26  F2  UNL     1     -12.237 -20.147 -12.294  1.00  0.00    -0.165 F
HETATM   27  F3  UNL     1     -11.948 -21.617 -14.034  1.00  0.00    -0.165 F
ENDBRANCH  17  24
ENDBRANCH  11  14
ENDBRANCH   9  10
ENDBRANCH   8   9
ENDBRANCH   7   8
ENDBRANCH   1   7
BRANCH   4  28
HETATM   28  C16 UNL     1     -19.152 -31.556 -11.272  1.00  0.00     0.302 C
BRANCH  28  29
HETATM   29  C17 UNL     1     -18.278 -32.733 -11.548  1.00  0.00     0.302 C
BRANCH  29  30
HETATM   30  N5  UNL     1     -17.790 -32.760 -12.913  1.00  0.00     0.090 N
HETATM   31  C18 UNL     1     -18.639 -32.013 -13.817  1.00  0.00     0.273 C
HETATM   32  C19 UNL     1     -17.844 -31.775 -15.084  1.00  0.00     0.040 C
HETATM   33  C20 UNL     1     -16.978 -30.536 -14.813  1.00  0.00    -0.029 C
HETATM   34  C21 UNL     1     -17.988 -29.379 -14.976  1.00  0.00     0.010 C
HETATM   35  C25 UNL     1     -15.944 -30.330 -15.840  1.00  0.00     0.027 C
HETATM   36  C32 UNL     1     -16.561 -30.660 -13.390  1.00  0.00     0.040 C
HETATM   37  C22 UNL     1     -18.216 -29.071 -16.440  1.00  0.00     0.001 C
HETATM   38  C23 UNL     1     -17.003 -28.319 -16.925  1.00  0.00     0.001 C
HETATM   39  C24 UNL     1     -15.826 -28.867 -16.180  1.00  0.00     0.010 C
HETATM   40  C33 UNL     1     -16.479 -32.122 -12.920  1.00  0.00     0.273 C
BRANCH  35  41
HETATM   41  C26 UNL     1     -14.591 -30.866 -15.619  1.00  0.00    -0.053 A
HETATM   42  C27 UNL     1     -13.618 -30.156 -14.958  1.00  0.00     0.007 A
HETATM   43  C28 UNL     1     -12.395 -30.718 -14.745  1.00  0.00     0.001 A
HETATM   44  C29 UNL     1     -12.063 -31.993 -15.165  1.00  0.00     0.000 A
HETATM   45  C30 UNL     1     -13.053 -32.679 -15.823  1.00  0.00     0.001 A
HETATM   46  C31 UNL     1     -14.287 -32.136 -16.048  1.00  0.00     0.007 A
ENDBRANCH  35  41
ENDBRANCH  29  30
ENDBRANCH  28  29
ENDBRANCH   4  28
TORSDOF 11
ENDMDL