MODEL 2
REMARK VINA RESULT: -8.486105639      2.883      3.899
REMARK  3 active torsions:
REMARK  status: ('A' for Active; 'I' for Inactive)
REMARK    1  A    between atoms: C4_4  and  O1_5
REMARK    2  A    between atoms: O1_5  and  C5_6
REMARK    3  A    between atoms: C10_11  and  C11_12
ROOT
HETATM    1  C5  UNL     1     -18.051  34.049 -30.387  1.00  0.00     0.091 A
HETATM    2  C6  UNL     1     -18.612  32.809 -30.152  1.00  0.00     0.038 A
HETATM    3  C7  UNL     1     -19.622  32.333 -30.949  1.00  0.00     0.003 A
HETATM    4  C8  UNL     1     -20.124  33.053 -32.012  1.00  0.00     0.001 A
HETATM    5  C9  UNL     1     -19.558  34.291 -32.235  1.00  0.00     0.018 A
HETATM    6  C10 UNL     1     -18.527  34.795 -31.433  1.00  0.00     0.041 A
ENDROOT
BRANCH   1   7
HETATM    7  O1  UNL     1     -17.036  34.482 -29.555  1.00  0.00    -0.293 OA
BRANCH   7   8
HETATM    8  C4  UNL     1     -16.030  33.725 -29.013  1.00  0.00     0.147 A
HETATM    9  C3  UNL     1     -16.078  33.095 -27.795  1.00  0.00     0.056 A
HETATM   10  C2  UNL     1     -15.018  32.349 -27.309  1.00  0.00     0.006 A
HETATM   11  C1  UNL     1     -13.878  32.233 -28.067  1.00  0.00     0.017 A
HETATM   12  C14 UNL     1     -13.842  32.871 -29.289  1.00  0.00     0.090 A
HETATM   13  N3  UNL     1     -14.896  33.585 -29.723  1.00  0.00    -0.347 N
ATOM     14  H3  UNL     1     -14.832  34.043 -30.632  1.00  0.00     0.167 HD
ENDBRANCH   7   8
ENDBRANCH   1   7
BRANCH   6  15
HETATM   15  C11 UNL     1     -18.069  36.151 -31.731  1.00  0.00     0.110 C
HETATM   16  N1  UNL     1     -16.911  36.517 -32.165  1.00  0.00    -0.374 N
HETATM   17  C12 UNL     1     -16.832  37.950 -32.341  1.00  0.00     0.141 C
ATOM     18  H1  UNL     1     -16.144  35.872 -32.362  1.00  0.00     0.161 HD
HETATM   19  C13 UNL     1     -18.292  38.347 -32.343  1.00  0.00     0.141 C
HETATM   20  N2  UNL     1     -18.904  37.306 -31.564  1.00  0.00    -0.374 N
ATOM     21  H2  UNL     1     -19.755  37.374 -31.007  1.00  0.00     0.161 HD
ENDBRANCH   6  15
TORSDOF 3
ENDMDL