MODEL 5
REMARK VINA RESULT: -8.585900523      1.685      5.981
REMARK  3 active torsions:
REMARK  status: ('A' for Active; 'I' for Inactive)
REMARK    1  A    between atoms: C4_5  and  C5_6
REMARK    2  A    between atoms: C5_6  and  N2_7
REMARK    3  A    between atoms: C8_12  and  C9_13
ROOT
HETATM    1  N2  UNL     1     -18.145  32.802 -29.042  1.00  0.00    -0.288 N
HETATM    2  N3  UNL     1     -19.245  32.166 -29.498  1.00  0.00    -0.309 N
ATOM      3  H3  UNL     1     -20.180  32.573 -29.526  1.00  0.00     0.186 HD
HETATM    4  C6  UNL     1     -18.948  30.963 -29.896  1.00  0.00     0.109 A
HETATM    5  C7  UNL     1     -17.604  30.790 -29.700  1.00  0.00     0.050 A
HETATM    6  C8  UNL     1     -17.119  31.994 -29.151  1.00  0.00     0.062 A
ENDROOT
BRANCH   1   7
HETATM    7  C5  UNL     1     -18.270  34.136 -28.516  1.00  0.00     0.187 C
BRANCH   7   8
HETATM    8  C4  UNL     1     -18.446  35.185 -29.547  1.00  0.00    -0.038 A
HETATM    9  C3  UNL     1     -19.454  36.091 -29.513  1.00  0.00     0.011 A
HETATM   10  C2  UNL     1     -19.587  37.043 -30.503  1.00  0.00     0.027 A
HETATM   11  C1  UNL     1     -18.685  37.076 -31.544  1.00  0.00     0.046 A
HETATM   12  N1  UNL     1     -18.848  38.063 -32.543  1.00  0.00    -0.102 NA
HETATM   13  C15 UNL     1     -17.658  36.150 -31.576  1.00  0.00     0.027 A
HETATM   14  C14 UNL     1     -17.535  35.214 -30.595  1.00  0.00     0.011 A
ENDBRANCH   7   8
ENDBRANCH   1   7
BRANCH   6  15
HETATM   15  C9  UNL     1     -15.693  32.144 -28.818  1.00  0.00    -0.005 A
HETATM   16  C10 UNL     1     -14.808  33.005 -29.386  1.00  0.00     0.030 A
HETATM   17  C11 UNL     1     -13.451  33.098 -28.996  1.00  0.00     0.088 A
HETATM   18  N4  UNL     1     -13.000  32.315 -28.033  1.00  0.00    -0.375 N
HETATM   19  C12 UNL     1     -13.823  31.452 -27.440  1.00  0.00     0.088 A
ATOM     20  H4  UNL     1     -12.024  32.371 -27.743  1.00  0.00     0.164 HD
HETATM   21  C13 UNL     1     -15.148  31.350 -27.810  1.00  0.00     0.030 A
ENDBRANCH   6  15
TORSDOF 3
ENDMDL