MODEL 1
REMARK VINA RESULT: -7.530951520      0.000      0.000
REMARK  3 active torsions:
REMARK  status: ('A' for Active; 'I' for Inactive)
REMARK    1  A    between atoms: C5_7  and  C6_8
REMARK    2  A    between atoms: C6_8  and  S1_9
REMARK    3  A    between atoms: S1_9  and  C7_10
ROOT
HETATM    1  N1  UNL     1     -23.178  35.345 -27.557  1.00  0.00    -0.195 NA
HETATM    2  C1  UNL     1     -22.110  35.582 -27.934  1.00  0.00     0.095 C
HETATM    3  C2  UNL     1     -20.749  35.886 -28.443  1.00  0.00     0.315 C
HETATM    4  C3  UNL     1     -20.825  37.083 -29.322  1.00  0.00     0.215 C
HETATM    5  O1  UNL     1     -19.827  37.182 -30.256  1.00  0.00    -0.386 OA
HETATM    6  C4  UNL     1     -19.599  36.015 -30.969  1.00  0.00     0.201 C
HETATM    7  C5  UNL     1     -19.183  34.944 -30.008  1.00  0.00     0.220 C
HETATM    8  N2  UNL     1     -20.316  34.683 -29.128  1.00  0.00    -0.049 N
ATOM      9  H21 UNL     1     -21.087  34.245 -29.633  1.00  0.00     0.279 HD
ATOM     10  H22 UNL     1     -20.111  33.932 -28.470  1.00  0.00     0.279 HD
ENDROOT
BRANCH   7  11
HETATM   11  C6  UNL     1     -18.873  33.632 -30.679  1.00  0.00     0.114 C
BRANCH  11  12
HETATM   12  S1  UNL     1     -18.350  32.332 -29.576  1.00  0.00    -0.128 SA
BRANCH  12  13
HETATM   13  C7  UNL     1     -16.605  32.396 -29.199  1.00  0.00     0.000 A
HETATM   14  C8  UNL     1     -15.918  31.273 -28.784  1.00  0.00     0.018 A
HETATM   15  C9  UNL     1     -14.559  31.310 -28.488  1.00  0.00     0.001 A
HETATM   16  C10 UNL     1     -13.850  32.492 -28.604  1.00  0.00     0.000 A
HETATM   17  C11 UNL     1     -14.546  33.606 -29.019  1.00  0.00     0.001 A
HETATM   18  C12 UNL     1     -15.894  33.580 -29.315  1.00  0.00     0.018 A
ENDBRANCH  12  13
ENDBRANCH  11  12
ENDBRANCH   7  11
TORSDOF 3
ENDMDL