MODEL 2
REMARK VINA RESULT: -9.182171931      0.033      1.122
REMARK  3 active torsions:
REMARK  status: ('A' for Active; 'I' for Inactive)
REMARK    1  A    between atoms: C4_4  and  O1_5
REMARK    2  A    between atoms: O1_5  and  C5_6
REMARK    3  A    between atoms: C9_10  and  C10_11
ROOT
HETATM    1  C5  UNL     1     -18.549  33.719 -30.061  1.00  0.00     0.077 A
HETATM    2  C6  UNL     1     -18.296  34.452 -31.213  1.00  0.00     0.037 A
HETATM    3  C7  UNL     1     -18.993  35.603 -31.517  1.00  0.00     0.004 A
HETATM    4  C8  UNL     1     -19.979  36.046 -30.645  1.00  0.00     0.015 A
HETATM    5  C9  UNL     1     -20.254  35.342 -29.494  1.00  0.00     0.013 A
HETATM    6  C11 UNL     1     -19.538  34.198 -29.225  1.00  0.00     0.052 A
ENDROOT
BRANCH   5   7
HETATM    7  C10 UNL     1     -21.293  35.815 -28.586  1.00  0.00     0.147 A
HETATM    8  N1  UNL     1     -21.593  37.105 -28.374  1.00  0.00    -0.268 N
HETATM    9  N2  UNL     1     -22.571  37.158 -27.500  1.00  0.00    -0.227 N
ATOM     10  H1  UNL     1     -21.141  37.906 -28.816  1.00  0.00     0.190 HD
HETATM   11  N3  UNL     1     -22.897  35.929 -27.151  1.00  0.00    -0.227 N
ATOM     12  H2  UNL     1     -23.006  38.010 -27.149  1.00  0.00     0.210 HD
HETATM   13  N4  UNL     1     -22.120  35.090 -27.812  1.00  0.00    -0.268 N
ATOM     14  H3  UNL     1     -23.626  35.671 -26.486  1.00  0.00     0.210 HD
ATOM     15  H4  UNL     1     -22.142  34.072 -27.746  1.00  0.00     0.190 HD
ENDBRANCH   5   7
BRANCH   1  16
HETATM   16  O1  UNL     1     -17.812  32.591 -29.838  1.00  0.00    -0.311 OA
BRANCH  16  17
HETATM   17  C4  UNL     1     -16.554  32.532 -29.310  1.00  0.00     0.076 A
HETATM   18  C3  UNL     1     -16.060  31.359 -28.810  1.00  0.00     0.037 A
HETATM   19  C2  UNL     1     -14.775  31.287 -28.268  1.00  0.00     0.003 A
HETATM   20  C1  UNL     1     -14.002  32.424 -28.243  1.00  0.00     0.000 A
HETATM   21  C13 UNL     1     -14.473  33.621 -28.740  1.00  0.00     0.003 A
HETATM   22  C12 UNL     1     -15.764  33.652 -29.274  1.00  0.00     0.037 A
ENDBRANCH  16  17
ENDBRANCH   1  16
TORSDOF 3
ENDMDL