MODEL 5
REMARK VINA RESULT: -7.983535754      1.853      6.533
REMARK  3 active torsions:
REMARK  status: ('A' for Active; 'I' for Inactive)
REMARK    1  A    between atoms: C4_4  and  C5_5
REMARK    2  A    between atoms: C5_5  and  N1_6
REMARK    3  A    between atoms: N1_6  and  C6_8
ROOT
HETATM    1  C6  UNL     1     -16.409  33.695 -29.870  1.00  0.00     0.101 A
HETATM    2  C7  UNL     1     -17.015  32.571 -29.326  1.00  0.00     0.049 A
HETATM    3  C8  UNL     1     -16.241  31.641 -28.666  1.00  0.00     0.017 A
HETATM    4  C9  UNL     1     -14.875  31.787 -28.524  1.00  0.00    -0.007 A
HETATM    5  C10 UNL     1     -14.075  30.874 -27.870  1.00  0.00     0.030 A
HETATM    6  C11 UNL     1     -12.703  31.074 -27.758  1.00  0.00     0.088 A
HETATM    7  N2  UNL     1     -12.188  32.185 -28.310  1.00  0.00    -0.373 N
ATOM      8  H2  UNL     1     -11.183  32.349 -28.238  1.00  0.00     0.164 HD
HETATM    9  C12 UNL     1     -12.953  33.099 -28.958  1.00  0.00     0.117 A
HETATM   10  C13 UNL     1     -14.314  32.909 -29.074  1.00  0.00     0.059 A
HETATM   11  N3  UNL     1     -15.078  33.810 -29.716  1.00  0.00    -0.341 N
ATOM     12  H3  UNL     1     -14.620  34.631 -30.111  1.00  0.00     0.167 HD
ENDROOT
BRANCH   1  13
HETATM   13  N1  UNL     1     -17.172  34.702 -30.573  1.00  0.00    -0.371 N
ATOM     14  H1  UNL     1     -16.733  35.545 -30.944  1.00  0.00     0.161 HD
BRANCH  13  15
HETATM   15  C5  UNL     1     -18.563  34.461 -30.723  1.00  0.00     0.178 C
BRANCH  15  16
HETATM   16  C4  UNL     1     -19.481  35.323 -30.001  1.00  0.00     0.026 A
HETATM   17  C3  UNL     1     -19.515  36.680 -30.158  1.00  0.00     0.027 A
HETATM   18  C2  UNL     1     -20.419  37.465 -29.432  1.00  0.00     0.003 A
HETATM   19  C1  UNL     1     -21.254  36.807 -28.570  1.00  0.00     0.017 A
HETATM   20  C14 UNL     1     -21.228  35.440 -28.404  1.00  0.00     0.088 A
HETATM   21  N4  UNL     1     -20.345  34.727 -29.121  1.00  0.00    -0.368 N
ATOM     22  H4  UNL     1     -20.316  33.714 -29.007  1.00  0.00     0.165 HD
ENDBRANCH  15  16
ENDBRANCH  13  15
ENDBRANCH   1  13
TORSDOF 3
ENDMDL