MODEL 3
REMARK VINA RESULT: -7.826617754      1.261      3.601
REMARK  3 active torsions:
REMARK  status: ('A' for Active; 'I' for Inactive)
REMARK    1  A    between atoms: C3_5  and  N2_6
REMARK    2  A    between atoms: C7_12  and  N4_13
REMARK    3  A    between atoms: N4_13  and  C8_15
ROOT
HETATM    1  C1  UNL     1     -21.654  36.548 -28.205  1.00  0.00     0.019 A
HETATM    2  C2  UNL     1     -21.159  37.816 -28.412  1.00  0.00     0.090 A
HETATM    3  N1  UNL     1     -20.227  38.024 -29.329  1.00  0.00    -0.350 N
ATOM      4  H1  UNL     1     -19.862  38.964 -29.481  1.00  0.00     0.166 HD
HETATM    5  C3  UNL     1     -19.764  37.000 -30.057  1.00  0.00     0.139 A
HETATM    6  C7  UNL     1     -20.203  35.694 -29.916  1.00  0.00     0.073 A
HETATM    7  C14 UNL     1     -21.172  35.488 -28.960  1.00  0.00     0.034 A
ENDROOT
BRANCH   6   8
HETATM    8  N4  UNL     1     -19.708  34.640 -30.710  1.00  0.00    -0.382 N
ATOM      9  H4  UNL     1     -19.675  34.778 -31.719  1.00  0.00     0.160 HD
BRANCH   8  10
HETATM   10  C8  UNL     1     -19.254  33.398 -30.193  1.00  0.00     0.082 C
HETATM   11  C9  UNL     1     -17.755  33.274 -30.041  1.00  0.00     0.025 C
HETATM   12  C10 UNL     1     -17.512  32.057 -29.180  1.00  0.00     0.002 C
HETATM   13  C11 UNL     1     -18.109  30.808 -29.780  1.00  0.00     0.000 C
HETATM   14  C12 UNL     1     -19.460  30.986 -30.379  1.00  0.00     0.002 C
HETATM   15  C13 UNL     1     -19.639  32.268 -31.159  1.00  0.00     0.025 C
ENDBRANCH   8  10
ENDBRANCH   6   8
BRANCH   5  16
HETATM   16  N2  UNL     1     -18.753  37.261 -31.045  1.00  0.00    -0.301 N
HETATM   17  C4  UNL     1     -17.633  36.572 -31.307  1.00  0.00     0.116 A
HETATM   18  C5  UNL     1     -16.917  37.140 -32.332  1.00  0.00     0.106 A
HETATM   19  N3  UNL     1     -17.648  38.225 -32.704  1.00  0.00    -0.360 N
HETATM   20  C6  UNL     1     -18.745  38.289 -31.927  1.00  0.00     0.189 A
ATOM     21  H3  UNL     1     -17.406  38.881 -33.447  1.00  0.00     0.166 HD
ENDBRANCH   5  16
TORSDOF 3
ENDMDL