MODEL 4
REMARK VINA RESULT: -7.807890596      1.834      2.945
REMARK  4 active torsions:
REMARK  status: ('A' for Active; 'I' for Inactive)
REMARK    1  A    between atoms: N1_1  and  C1_5
REMARK    2  A    between atoms: C5_10  and  O2_11
REMARK    3  A    between atoms: O2_11  and  C6_12
REMARK    4  A    between atoms: C6_12  and  C7_13
ROOT
HETATM    1  C1  UNL     1     -14.139  32.627 -28.461  1.00  0.00     0.477 C
HETATM    2  O1  UNL     1     -14.802  31.353 -28.454  1.00  0.00    -0.294 OA
HETATM    3  C2  UNL     1     -16.113  31.665 -28.826  1.00  0.00     0.107 A
HETATM    4  C3  UNL     1     -17.139  30.970 -29.425  1.00  0.00     0.042 A
HETATM    5  C4  UNL     1     -18.371  31.580 -29.672  1.00  0.00     0.039 A
HETATM    6  C5  UNL     1     -18.621  32.882 -29.337  1.00  0.00     0.071 A
HETATM    7  C13 UNL     1     -17.563  33.583 -28.724  1.00  0.00     0.076 A
HETATM    8  C14 UNL     1     -16.348  32.981 -28.481  1.00  0.00     0.110 A
HETATM    9  O3  UNL     1     -15.150  33.440 -27.896  1.00  0.00    -0.294 OA
ENDROOT
BRANCH   6  10
HETATM   10  O2  UNL     1     -19.807  33.517 -29.562  1.00  0.00    -0.347 OA
BRANCH  10  11
HETATM   11  C6  UNL     1     -19.942  34.675 -30.319  1.00  0.00     0.214 C
BRANCH  11  12
HETATM   12  C7  UNL     1     -20.472  35.808 -29.553  1.00  0.00    -0.034 A
HETATM   13  C8  UNL     1     -19.920  37.066 -29.642  1.00  0.00     0.009 A
HETATM   14  C9  UNL     1     -20.420  38.134 -28.940  1.00  0.00     0.001 A
HETATM   15  C10 UNL     1     -21.502  37.937 -28.123  1.00  0.00     0.000 A
HETATM   16  C11 UNL     1     -22.076  36.691 -28.012  1.00  0.00     0.001 A
HETATM   17  C12 UNL     1     -21.556  35.634 -28.727  1.00  0.00     0.009 A
ENDBRANCH  11  12
ENDBRANCH  10  11
ENDBRANCH   6  10
BRANCH   1  18
HETATM   18  N1  UNL     1     -14.005  33.017 -29.847  1.00  0.00    -0.028 N
ATOM     19  H13 UNL     1     -13.195  32.600 -30.305  1.00  0.00     0.280 HD
ATOM     20  H12 UNL     1     -14.718  32.609 -30.451  1.00  0.00     0.280 HD
ATOM     21  H11 UNL     1     -13.997  34.036 -29.865  1.00  0.00     0.280 HD
ENDBRANCH   1  18
TORSDOF 4
ENDMDL