MODEL 3
REMARK VINA RESULT: -7.540762124      1.755      2.494
REMARK  3 active torsions:
REMARK  status: ('A' for Active; 'I' for Inactive)
REMARK    1  A    between atoms: C4_4  and  O1_5
REMARK    2  A    between atoms: O1_5  and  C5_6
REMARK    3  A    between atoms: C8_13  and  C9_14
ROOT
HETATM    1  C5  UNL     1     -18.274  35.392 -30.132  1.00  0.00     0.177 A
HETATM    2  N1  UNL     1     -17.223  35.603 -30.921  1.00  0.00    -0.343 N
ATOM      3  H1  UNL     1     -16.416  34.982 -30.854  1.00  0.00     0.167 HD
HETATM    4  C6  UNL     1     -17.202  36.613 -31.801  1.00  0.00     0.107 A
HETATM    5  C7  UNL     1     -18.288  37.418 -31.871  1.00  0.00     0.105 A
HETATM    6  N2  UNL     1     -19.358  37.211 -31.081  1.00  0.00    -0.360 N
ATOM      7  H2  UNL     1     -20.158  37.838 -31.166  1.00  0.00     0.165 HD
HETATM    8  C8  UNL     1     -19.418  36.209 -30.181  1.00  0.00     0.106 A
ENDROOT
BRANCH   1   9
HETATM    9  O1  UNL     1     -18.347  34.373 -29.246  1.00  0.00    -0.292 OA
BRANCH   9  10
HETATM   10  C4  UNL     1     -17.392  33.468 -28.855  1.00  0.00     0.077 A
HETATM   11  C3  UNL     1     -17.415  32.194 -29.445  1.00  0.00     0.037 A
HETATM   12  C2  UNL     1     -16.530  31.218 -29.151  1.00  0.00     0.003 A
HETATM   13  C1  UNL     1     -15.533  31.460 -28.217  1.00  0.00     0.000 A
HETATM   14  C14 UNL     1     -15.494  32.707 -27.624  1.00  0.00     0.003 A
HETATM   15  C13 UNL     1     -16.403  33.682 -27.939  1.00  0.00     0.037 A
ENDBRANCH   9  10
ENDBRANCH   1   9
BRANCH   8  16
HETATM   16  C9  UNL     1     -20.500  36.115 -29.264  1.00  0.00     0.036 C
HETATM   17  C10 UNL     1     -21.542  37.192 -29.159  1.00  0.00     0.061 C
HETATM   18  C11 UNL     1     -22.288  36.751 -27.926  1.00  0.00     0.026 C
HETATM   19  C12 UNL     1     -21.903  35.306 -27.730  1.00  0.00     0.120 C
HETATM   20  N3  UNL     1     -21.177  34.922 -28.957  1.00  0.00    -0.391 N
ATOM     21  H3  UNL     1     -21.169  34.029 -29.451  1.00  0.00     0.159 HD
ENDBRANCH   8  16
TORSDOF 3
ENDMDL