MODEL 2
REMARK VINA RESULT: -8.522924892      2.354      6.902
REMARK  3 active torsions:
REMARK  status: ('A' for Active; 'I' for Inactive)
REMARK    1  A    between atoms: C4_4  and  C5_5
REMARK    2  A    between atoms: C7_7  and  O1_8
REMARK    3  A    between atoms: O1_8  and  C8_9
ROOT
HETATM    1  C5  UNL     1     -20.873  37.456 -28.659  1.00  0.00     0.047 A
HETATM    2  C6  UNL     1     -20.059  36.415 -29.007  1.00  0.00     0.086 A
HETATM    3  C7  UNL     1     -20.412  35.099 -28.721  1.00  0.00     0.151 A
HETATM    4  N3  UNL     1     -21.576  34.897 -28.094  1.00  0.00    -0.333 N
ATOM      5  H3  UNL     1     -21.854  33.941 -27.875  1.00  0.00     0.168 HD
HETATM    6  C11 UNL     1     -22.390  35.900 -27.744  1.00  0.00     0.182 A
HETATM    7  N4  UNL     1     -22.025  37.164 -28.032  1.00  0.00    -0.352 N
ATOM      8  H4  UNL     1     -22.646  37.928 -27.765  1.00  0.00     0.166 HD
ENDROOT
BRANCH   3   9
HETATM    9  O1  UNL     1     -19.594  34.060 -29.071  1.00  0.00    -0.291 OA
BRANCH   9  10
HETATM   10  C8  UNL     1     -18.237  34.011 -29.181  1.00  0.00     0.111 A
HETATM   11  C9  UNL     1     -17.512  34.191 -30.375  1.00  0.00     0.145 A
HETATM   12  N1  UNL     1     -16.215  34.072 -30.089  1.00  0.00    -0.309 N
HETATM   13  N2  UNL     1     -16.018  33.832 -28.828  1.00  0.00    -0.309 N
ATOM     14  H1  UNL     1     -15.468  34.159 -30.778  1.00  0.00     0.186 HD
HETATM   15  C10 UNL     1     -17.258  33.790 -28.247  1.00  0.00     0.145 A
ATOM     16  H2  UNL     1     -15.120  33.701 -28.364  1.00  0.00     0.186 HD
ENDBRANCH   9  10
ENDBRANCH   3   9
BRANCH   1  17
HETATM   17  C4  UNL     1     -20.521  38.835 -28.950  1.00  0.00    -0.009 A
HETATM   18  C3  UNL     1     -19.797  39.126 -30.113  1.00  0.00     0.013 A
HETATM   19  C2  UNL     1     -19.431  40.410 -30.447  1.00  0.00     0.001 A
HETATM   20  C1  UNL     1     -19.765  41.482 -29.648  1.00  0.00     0.000 A
HETATM   21  C13 UNL     1     -20.478  41.222 -28.499  1.00  0.00     0.001 A
HETATM   22  C12 UNL     1     -20.847  39.913 -28.162  1.00  0.00     0.013 A
ENDBRANCH   1  17
TORSDOF 3
ENDMDL