MODEL 2
REMARK VINA RESULT: -8.034861339      2.399      6.616
REMARK  3 active torsions:
REMARK  status: ('A' for Active; 'I' for Inactive)
REMARK    1  A    between atoms: C6_7  and  O1_8
REMARK    2  A    between atoms: O1_8  and  C7_9
REMARK    3  A    between atoms: C7_9  and  C8_10
ROOT
HETATM    1  N1  UNL     1     -17.541  36.333 -31.326  1.00  0.00    -0.099 NA
HETATM    2  C1  UNL     1     -18.580  35.945 -30.449  1.00  0.00     0.082 A
HETATM    3  C2  UNL     1     -19.622  36.834 -30.227  1.00  0.00     0.069 A
HETATM    4  C3  UNL     1     -20.624  36.436 -29.369  1.00  0.00     0.107 A
HETATM    5  C4  UNL     1     -20.584  35.200 -28.761  1.00  0.00     0.107 A
HETATM    6  C5  UNL     1     -19.530  34.316 -28.993  1.00  0.00     0.078 A
HETATM    7  C6  UNL     1     -18.529  34.709 -29.848  1.00  0.00     0.096 A
HETATM    8  O2  UNL     1     -21.724  35.073 -27.952  1.00  0.00    -0.323 OA
HETATM    9  C14 UNL     1     -22.378  36.312 -27.961  1.00  0.00     0.352 C
HETATM   10  O3  UNL     1     -21.777  37.095 -28.956  1.00  0.00    -0.323 OA
ENDROOT
BRANCH   7  11
HETATM   11  O1  UNL     1     -17.457  33.871 -30.117  1.00  0.00    -0.345 OA
BRANCH  11  12
HETATM   12  C7  UNL     1     -17.336  32.664 -29.420  1.00  0.00     0.214 C
BRANCH  12  13
HETATM   13  C8  UNL     1     -15.902  32.473 -29.029  1.00  0.00    -0.034 A
HETATM   14  C9  UNL     1     -15.509  31.391 -28.260  1.00  0.00     0.009 A
HETATM   15  C10 UNL     1     -14.199  31.178 -27.880  1.00  0.00     0.001 A
HETATM   16  C11 UNL     1     -13.230  32.080 -28.277  1.00  0.00     0.000 A
HETATM   17  C12 UNL     1     -13.616  33.171 -29.050  1.00  0.00     0.001 A
HETATM   18  C13 UNL     1     -14.924  33.368 -29.421  1.00  0.00     0.009 A
ENDBRANCH  12  13
ENDBRANCH  11  12
ENDBRANCH   7  11
TORSDOF 3
ENDMDL