MODEL 3
REMARK VINA RESULT: -9.839621471      2.994      6.977
REMARK  7 active torsions:
REMARK  status: ('A' for Active; 'I' for Inactive)
REMARK    1  A    between atoms: C2_2  and  O1_3
REMARK    2  A    between atoms: O1_3  and  C3_4
REMARK    3  A    between atoms: C5_6  and  N1_7
REMARK       I    between atoms: N1_7  and  C6_9
REMARK    4  A    between atoms: C6_9  and  C7_11
REMARK    5  A    between atoms: C7_11  and  N2_12
REMARK    6  A    between atoms: N2_12  and  C8_14
REMARK    7  A    between atoms: C21_32  and  C22_33
ROOT
HETATM    1  C8  UNL     1     -13.949 -11.204  12.240  1.00  0.00     0.124 A
HETATM    2  N3  UNL     1     -14.237 -10.327  13.281  1.00  0.00    -0.327 N
ATOM      3  H3  UNL     1     -13.902 -10.560  14.216  1.00  0.00     0.169 HD
HETATM    4  C9  UNL     1     -14.923  -9.206  13.120  1.00  0.00     0.118 A
HETATM    5  N4  UNL     1     -15.193  -8.386  14.166  1.00  0.00    -0.345 N
ATOM      6  H4  UNL     1     -14.848  -8.642  15.091  1.00  0.00     0.167 HD
HETATM    7  C10 UNL     1     -15.902  -7.242  14.029  1.00  0.00     0.013 A
HETATM    8  C11 UNL     1     -16.174  -6.349  15.196  1.00  0.00     0.068 C
HETATM    9  C12 UNL     1     -16.392  -6.847  12.805  1.00  0.00    -0.033 A
HETATM   10  C13 UNL     1     -17.163  -5.583  12.644  1.00  0.00     0.050 C
HETATM   11  C14 UNL     1     -16.108  -7.697  11.748  1.00  0.00    -0.040 A
HETATM   12  C15 UNL     1     -16.638  -7.306  10.419  1.00  0.00     0.050 C
HETATM   13  C16 UNL     1     -15.396  -8.852  11.863  1.00  0.00     0.016 A
HETATM   14  C17 UNL     1     -15.117  -9.706  10.831  1.00  0.00     0.042 A
HETATM   15  C18 UNL     1     -14.402 -10.880  10.982  1.00  0.00     0.089 A
HETATM   16  C19 UNL     1     -14.136 -11.713   9.829  1.00  0.00     0.103 C
HETATM   17  N5  UNL     1     -13.924 -12.361   8.879  1.00  0.00    -0.191 NA
ENDROOT
BRANCH   1  18
HETATM   18  N2  UNL     1     -13.332 -12.230  12.487  1.00  0.00    -0.366 N
ATOM     19  H2  UNL     1     -12.349 -11.994  12.349  1.00  0.00     0.161 HD
BRANCH  18  20
HETATM   20  C7  UNL     1     -13.339 -13.536  12.857  1.00  0.00     0.224 C
BRANCH  20  21
HETATM   21  C6  UNL     1     -14.226 -14.394  11.952  1.00  0.00     0.239 C
HETATM   22  N1  UNL     1     -15.604 -14.202  12.149  1.00  0.00    -0.326 N
ATOM     23  H1  UNL     1     -15.878 -13.522  12.859  1.00  0.00     0.169 HD
HETATM   24  O2  UNL     1     -13.668 -15.144  11.169  1.00  0.00    -0.271 OA
BRANCH  22  25
HETATM   25  C5  UNL     1     -16.643 -14.859  11.460  1.00  0.00     0.038 A
HETATM   26  C4  UNL     1     -17.668 -14.087  10.880  1.00  0.00     0.066 A
HETATM   27  C3  UNL     1     -18.694 -14.639  10.154  1.00  0.00     0.071 A
HETATM   28  C23 UNL     1     -18.715 -16.002   9.994  1.00  0.00     0.053 A
HETATM   29  C21 UNL     1     -17.729 -16.811  10.544  1.00  0.00     0.052 A
HETATM   30  C20 UNL     1     -16.706 -16.209  11.271  1.00  0.00     0.046 A
BRANCH  27  31
HETATM   31  O1  UNL     1     -19.639 -13.822   9.631  1.00  0.00    -0.351 OA
BRANCH  31  32
HETATM   32  C2  UNL     1     -20.763 -14.039   8.881  1.00  0.00     0.171 C
HETATM   33  C1  UNL     1     -21.779 -12.919   8.885  1.00  0.00     0.034 C
ENDBRANCH  31  32
ENDBRANCH  27  31
BRANCH  29  34
HETATM   34  C22 UNL     1     -17.777 -18.296  10.359  1.00  0.00     0.417 C
HETATM   35  F1  UNL     1     -19.065 -18.774  10.519  1.00  0.00    -0.166 F
HETATM   36  F2  UNL     1     -17.314 -18.699   9.135  1.00  0.00    -0.166 F
HETATM   37  F3  UNL     1     -16.936 -18.871  11.303  1.00  0.00    -0.166 F
ENDBRANCH  29  34
ENDBRANCH  22  25
ENDBRANCH  20  21
ENDBRANCH  18  20
ENDBRANCH   1  18
TORSDOF 7
ENDMDL