MODEL 3
REMARK VINA RESULT: -10.138730929      1.541      2.811
REMARK  9 active torsions:
REMARK  status: ('A' for Active; 'I' for Inactive)
REMARK    1  A    between atoms: C2_2  and  N1_5
REMARK    2  A    between atoms: N1_5  and  N2_6
REMARK    3  A    between atoms: N1_5  and  C13_19
REMARK       I    between atoms: N2_6  and  C5_8
REMARK    4  A    between atoms: C5_8  and  C6_10
REMARK    5  A    between atoms: C11_15  and  C12_16
REMARK    6  A    between atoms: C13_19  and  O4_20
REMARK    7  A    between atoms: C13_19  and  C14_22
REMARK    8  A    between atoms: C17_25  and  C18_26
REMARK    9  A    between atoms: C20_31  and  N3_32
ROOT
HETATM    1  N1  UNL     1     -14.125 -12.797  12.012  1.00  0.00    -0.259 N
ENDROOT
BRANCH   1   2
HETATM    2  C2  UNL     1     -13.258 -12.626  10.811  1.00  0.00     0.045 C
HETATM    3  C1  UNL     1     -12.492 -13.865  10.461  1.00  0.00     0.039 C
HETATM    4  C3  UNL     1     -14.080 -12.222   9.616  1.00  0.00     0.039 C
HETATM    5  C4  UNL     1     -12.277 -11.523  11.040  1.00  0.00     0.039 C
ENDBRANCH   1   2
BRANCH   1   6
HETATM    6  N2  UNL     1     -14.494 -11.665  12.665  1.00  0.00    -0.261 N
HETATM    7  C5  UNL     1     -14.458 -11.145  13.954  1.00  0.00     0.271 C
HETATM    8  O1  UNL     1     -14.014 -11.715  14.952  1.00  0.00    -0.266 OA
ATOM      9  H2  UNL     1     -14.921 -11.000  12.020  1.00  0.00     0.190 HD
BRANCH   7  10
HETATM   10  C6  UNL     1     -14.996  -9.776  14.242  1.00  0.00     0.050 A
HETATM   11  C7  UNL     1     -15.096  -9.376  15.540  1.00  0.00     0.018 A
HETATM   12  C8  UNL     1     -15.602  -8.139  15.890  1.00  0.00     0.001 A
HETATM   13  C9  UNL     1     -16.009  -7.319  14.847  1.00  0.00     0.001 A
HETATM   14  C10 UNL     1     -15.925  -7.692  13.543  1.00  0.00     0.019 A
HETATM   15  C11 UNL     1     -15.405  -8.954  13.225  1.00  0.00     0.056 A
BRANCH  15  16
HETATM   16  C12 UNL     1     -15.372  -9.284  11.829  1.00  0.00     0.210 C
HETATM   17  O2  UNL     1     -14.369  -8.947  11.125  1.00  0.00    -0.644 OA
HETATM   18  O3  UNL     1     -16.425  -9.967  11.223  1.00  0.00    -0.644 OA
ENDBRANCH  15  16
ENDBRANCH   7  10
ENDBRANCH   1   6
BRANCH   1  19
HETATM   19  C13 UNL     1     -14.478 -14.112  12.322  1.00  0.00     0.170 C
BRANCH  19  20
HETATM   20  O4  UNL     1     -13.872 -14.658  13.375  1.00  0.00    -0.344 OA
ATOM     21  H4  UNL     1     -14.032 -14.246  14.217  1.00  0.00     0.219 HD
ENDBRANCH  19  20
BRANCH  19  22
HETATM   22  C14 UNL     1     -15.345 -15.103  11.783  1.00  0.00     0.049 A
HETATM   23  C15 UNL     1     -14.853 -16.413  11.534  1.00  0.00     0.019 A
HETATM   24  C16 UNL     1     -15.659 -17.423  11.085  1.00  0.00     0.017 A
HETATM   25  C17 UNL     1     -17.000 -17.177  10.863  1.00  0.00     0.050 A
HETATM   26  C19 UNL     1     -17.497 -15.952  11.091  1.00  0.00     0.053 A
HETATM   27  C20 UNL     1     -16.671 -14.931  11.546  1.00  0.00     0.118 A
BRANCH  25  28
HETATM   28  C18 UNL     1     -17.906 -18.298  10.407  1.00  0.00     0.417 C
HETATM   29  F1  UNL     1     -17.713 -19.406  11.256  1.00  0.00    -0.166 F
HETATM   30  F2  UNL     1     -17.554 -18.675   9.152  1.00  0.00    -0.166 F
HETATM   31  F3  UNL     1     -19.221 -17.961  10.494  1.00  0.00    -0.166 F
ENDBRANCH  25  28
BRANCH  27  32
HETATM   32  N3  UNL     1     -17.295 -13.682  11.755  1.00  0.00    -0.115 N
HETATM   33  O5  UNL     1     -17.433 -13.214  12.917  1.00  0.00    -0.532 OA
HETATM   34  O6  UNL     1     -17.777 -12.962  10.723  1.00  0.00    -0.532 OA
ENDBRANCH  27  32
ENDBRANCH  19  22
ENDBRANCH   1  19
TORSDOF 9
ENDMDL