MODEL 1
REMARK VINA RESULT: -9.493715524      0.000      0.000
REMARK  6 active torsions:
REMARK  status: ('A' for Active; 'I' for Inactive)
REMARK    1  A    between atoms: O1_2  and  C2_3
REMARK    2  A    between atoms: C5_6  and  N1_7
REMARK    3  A    between atoms: C7_12  and  C8_13
REMARK    4  A    between atoms: C7_12  and  C15_25
REMARK    5  A    between atoms: C11_16  and  N3_17
REMARK    6  A    between atoms: N3_17  and  S1_19
ROOT
HETATM    1  N1  UNL     1     -16.099 -14.025  10.230  1.00  0.00    -0.344 N
ATOM      2  H1  UNL     1     -16.608 -13.361   9.647  1.00  0.00     0.167 HD
HETATM    3  C6  UNL     1     -15.078 -13.483  10.649  1.00  0.00     0.115 C
HETATM    4  N2  UNL     1     -14.717 -12.117  10.325  1.00  0.00    -0.334 N
ATOM      5  H2  UNL     1     -15.049 -11.565   9.534  1.00  0.00     0.164 HD
HETATM    6  C7  UNL     1     -13.789 -11.697  11.354  1.00  0.00     0.265 C
HETATM    7  O4  UNL     1     -13.401 -12.796  12.071  1.00  0.00    -0.331 OA
HETATM    8  C16 UNL     1     -13.997 -13.933  11.516  1.00  0.00     0.115 C
HETATM    9  C17 UNL     1     -14.495 -14.761  12.683  1.00  0.00     0.054 C
HETATM   10  C18 UNL     1     -12.909 -14.629  10.732  1.00  0.00     0.054 C
ENDROOT
BRANCH   6  11
HETATM   11  C8  UNL     1     -14.524 -10.731  12.247  1.00  0.00     0.006 A
HETATM   12  C9  UNL     1     -14.002 -10.377  13.483  1.00  0.00     0.014 A
HETATM   13  C10 UNL     1     -14.606  -9.522  14.331  1.00  0.00     0.031 A
HETATM   14  C11 UNL     1     -15.843  -8.944  13.947  1.00  0.00     0.042 A
HETATM   15  C13 UNL     1     -16.392  -9.263  12.742  1.00  0.00     0.031 A
HETATM   16  C14 UNL     1     -15.710 -10.158  11.916  1.00  0.00     0.014 A
BRANCH  14  17
HETATM   17  N3  UNL     1     -16.419  -8.042  14.870  1.00  0.00    -0.285 N
ATOM     18  H3  UNL     1     -16.716  -8.451  15.755  1.00  0.00     0.178 HD
BRANCH  17  19
HETATM   19  S1  UNL     1     -16.689  -6.374  14.712  1.00  0.00     0.227 S
HETATM   20  C12 UNL     1     -16.059  -5.630  13.260  1.00  0.00     0.186 C
HETATM   21  O2  UNL     1     -16.191  -5.616  15.927  1.00  0.00    -0.206 OA
HETATM   22  O3  UNL     1     -18.200  -6.095  14.706  1.00  0.00    -0.206 OA
ENDBRANCH  17  19
ENDBRANCH  14  17
ENDBRANCH   6  11
BRANCH   6  23
HETATM   23  C15 UNL     1     -12.657 -10.939  10.687  1.00  0.00     0.443 C
HETATM   24  F1  UNL     1     -12.091 -11.587   9.635  1.00  0.00    -0.166 F
HETATM   25  F2  UNL     1     -11.718 -10.722  11.708  1.00  0.00    -0.166 F
HETATM   26  F3  UNL     1     -13.080  -9.694  10.233  1.00  0.00    -0.166 F
ENDBRANCH   6  23
BRANCH   1  27
HETATM   27  C5  UNL     1     -16.793 -15.197  10.269  1.00  0.00     0.033 A
HETATM   28  C4  UNL     1     -16.264 -16.420   9.895  1.00  0.00     0.032 A
HETATM   29  C3  UNL     1     -17.015 -17.564   9.943  1.00  0.00     0.039 A
HETATM   30  C2  UNL     1     -18.326 -17.575  10.358  1.00  0.00     0.068 A
HETATM   31  C20 UNL     1     -18.875 -16.351  10.739  1.00  0.00     0.039 A
HETATM   32  C19 UNL     1     -18.134 -15.208  10.696  1.00  0.00     0.032 A
BRANCH  30  33
HETATM   33  O1  UNL     1     -19.079 -18.729  10.403  1.00  0.00    -0.356 OA
HETATM   34  C1  UNL     1     -20.493 -18.726  10.379  1.00  0.00     0.210 C
ENDBRANCH  30  33
ENDBRANCH   1  27
TORSDOF 6
ENDMDL