MODEL 4
REMARK VINA RESULT: -8.942030941      1.423      1.735
REMARK  7 active torsions:
REMARK  status: ('A' for Active; 'I' for Inactive)
REMARK       I    between atoms: C1_2  and  N1_3
REMARK    1  A    between atoms: C1_2  and  C11_23
REMARK    2  A    between atoms: N1_3  and  C2_5
REMARK    3  A    between atoms: C2_5  and  C8_14
REMARK    4  A    between atoms: N2_6  and  C3_8
REMARK    5  A    between atoms: C3_8  and  C4_9
REMARK    6  A    between atoms: C8_14  and  C9_19
REMARK    7  A    between atoms: N3_15  and  O3_17
ROOT
HETATM    1  C2  UNL     1     -15.344 -10.495  12.533  1.00  0.00     0.135 C
HETATM    2  N2  UNL     1     -14.708  -9.878  11.580  1.00  0.00    -0.368 N
ATOM      3  H2  UNL     1     -14.447  -8.907  11.753  1.00  0.00     0.161 HD
ENDROOT
BRANCH   1   4
HETATM    4  N1  UNL     1     -15.695 -11.837  12.276  1.00  0.00    -0.307 N
HETATM    5  C1  UNL     1     -15.741 -13.027  12.943  1.00  0.00     0.257 C
HETATM    6  O1  UNL     1     -15.435 -13.249  14.120  1.00  0.00    -0.267 OA
ATOM      7  H1  UNL     1     -16.004 -11.951  11.310  1.00  0.00     0.170 HD
BRANCH   5   8
HETATM    8  C11 UNL     1     -16.212 -14.271  12.226  1.00  0.00     0.032 A
HETATM    9  C12 UNL     1     -15.359 -15.313  12.061  1.00  0.00     0.018 A
HETATM   10  C13 UNL     1     -15.708 -16.484  11.426  1.00  0.00     0.020 A
HETATM   11  C14 UNL     1     -16.987 -16.610  10.930  1.00  0.00     0.011 A
HETATM   12 BR1  UNL     1     -17.516 -18.223  10.039  1.00  0.00    -0.051 Br
HETATM   13  C15 UNL     1     -17.861 -15.557  11.092  1.00  0.00     0.020 A
HETATM   14  C16 UNL     1     -17.491 -14.370  11.741  1.00  0.00     0.018 A
ENDBRANCH   5   8
ENDBRANCH   1   4
BRANCH   1  15
HETATM   15  C8  UNL     1     -15.613  -9.725  13.741  1.00  0.00     0.120 C
HETATM   16  N3  UNL     1     -14.742  -8.752  13.909  1.00  0.00    -0.264 N
ATOM     17  H3  UNL     1     -14.011  -8.657  13.204  1.00  0.00     0.194 HD
BRANCH  16  18
HETATM   18  O3  UNL     1     -14.728  -7.897  14.900  1.00  0.00    -0.289 OA
ATOM     19  H3  UNL     1     -14.045  -7.815  15.556  1.00  0.00     0.244 HD
ENDBRANCH  16  18
BRANCH  15  20
HETATM   20  C9  UNL     1     -16.616  -9.854  14.710  1.00  0.00     0.077 C
HETATM   21 CL1  UNL     1     -15.985 -10.421  16.376  1.00  0.00    -0.081 Cl
HETATM   22  C10 UNL     1     -17.871  -9.687  14.763  1.00  0.00     0.111 C
HETATM   23 CL2  UNL     1     -19.074  -9.198  13.663  1.00  0.00    -0.095 Cl
ENDBRANCH  15  20
ENDBRANCH   1  15
BRANCH   2  24
HETATM   24  C3  UNL     1     -14.339 -10.433  10.307  1.00  0.00     0.186 C
BRANCH  24  25
HETATM   25  C4  UNL     1     -13.645 -11.724  10.360  1.00  0.00     0.070 A
HETATM   26  C5  UNL     1     -13.901 -12.744   9.466  1.00  0.00     0.036 A
HETATM   27  C6  UNL     1     -13.101 -13.800   9.779  1.00  0.00     0.027 A
HETATM   28  C7  UNL     1     -12.362 -13.397  10.876  1.00  0.00     0.142 A
HETATM   29  O2  UNL     1     -12.722 -12.173  11.171  1.00  0.00    -0.325 OA
ENDBRANCH  24  25
ENDBRANCH   2  24
TORSDOF 7
ENDMDL