MODEL 2
REMARK VINA RESULT: -8.852611304      2.919      6.917
REMARK  8 active torsions:
REMARK  status: ('A' for Active; 'I' for Inactive)
REMARK    1  A    between atoms: C7_7  and  O1_8
REMARK    2  A    between atoms: O1_8  and  C8_9
REMARK    3  A    between atoms: C8_9  and  C11_13
REMARK       I    between atoms: C11_13  and  N2_15
REMARK    4  A    between atoms: N2_15  and  C12_17
REMARK    5  A    between atoms: C12_17  and  N3_18
REMARK    6  A    between atoms: C12_17  and  C18_27
REMARK       I    between atoms: N3_18  and  C13_20
REMARK    7  A    between atoms: C13_20  and  O4_22
REMARK    8  A    between atoms: O4_22  and  C14_23
ROOT
HETATM    1  C8  UNL     1     -14.864 -10.454  14.213  1.00  0.00     0.231 C
HETATM    2  C9  UNL     1     -13.510  -9.824  14.503  1.00  0.00     0.074 C
HETATM    3  C10 UNL     1     -15.536 -10.544  15.541  1.00  0.00     0.108 C
HETATM    4  N1  UNL     1     -16.049 -10.632  16.574  1.00  0.00    -0.193 NA
ENDROOT
BRANCH   1   5
HETATM    5  O1  UNL     1     -15.629  -9.576  13.470  1.00  0.00    -0.315 OA
BRANCH   5   6
HETATM    6  C7  UNL     1     -16.571  -9.769  12.526  1.00  0.00     0.077 A
HETATM    7  C2  UNL     1     -16.221  -9.627  11.203  1.00  0.00    -0.029 A
HETATM    8  C1  UNL     1     -14.828  -9.265  10.781  1.00  0.00     0.051 C
HETATM    9  C3  UNL     1     -17.144  -9.812  10.185  1.00  0.00     0.009 A
HETATM   10  C4  UNL     1     -18.423 -10.141  10.499  1.00  0.00     0.001 A
HETATM   11  C5  UNL     1     -18.777 -10.285  11.832  1.00  0.00     0.003 A
HETATM   12  C6  UNL     1     -17.859 -10.100  12.838  1.00  0.00     0.037 A
ENDBRANCH   5   6
ENDBRANCH   1   5
BRANCH   1  13
HETATM   13  C11 UNL     1     -14.740 -11.803  13.652  1.00  0.00     0.269 C
HETATM   14  O2  UNL     1     -15.324 -12.749  14.234  1.00  0.00    -0.269 OA
HETATM   15  N2  UNL     1     -13.996 -12.104  12.487  1.00  0.00    -0.332 N
ATOM     16  H2  UNL     1     -13.527 -11.326  12.023  1.00  0.00     0.164 HD
BRANCH  15  17
HETATM   17  C12 UNL     1     -13.843 -13.394  11.901  1.00  0.00     0.243 C
BRANCH  17  18
HETATM   18  N3  UNL     1     -15.185 -13.938  11.697  1.00  0.00    -0.311 N
HETATM   19  C13 UNL     1     -15.471 -15.321  11.858  1.00  0.00     0.363 C
HETATM   20  O3  UNL     1     -14.543 -16.105  12.185  1.00  0.00    -0.238 OA
ATOM     21  H3  UNL     1     -15.940 -13.305  11.433  1.00  0.00     0.167 HD
BRANCH  19  22
HETATM   22  O4  UNL     1     -16.714 -15.843  11.671  1.00  0.00    -0.294 OA
BRANCH  22  23
HETATM   23  C14 UNL     1     -17.163 -16.558  10.564  1.00  0.00     0.061 C
HETATM   24  C15 UNL     1     -16.916 -18.045  10.682  1.00  0.00     0.046 C
HETATM   25  C16 UNL     1     -16.533 -16.057   9.275  1.00  0.00     0.046 C
HETATM   26  C17 UNL     1     -18.663 -16.372  10.472  1.00  0.00     0.046 C
ENDBRANCH  22  23
ENDBRANCH  19  22
ENDBRANCH  17  18
BRANCH  17  27
HETATM   27  C18 UNL     1     -13.182 -13.381  10.549  1.00  0.00     0.226 C
HETATM   28 CL1  UNL     1     -12.289 -14.893  10.258  1.00  0.00    -0.080 Cl
HETATM   29 CL2  UNL     1     -14.304 -13.139   9.220  1.00  0.00    -0.080 Cl
HETATM   30 CL3  UNL     1     -12.002 -12.047  10.508  1.00  0.00    -0.080 Cl
ENDBRANCH  17  27
ENDBRANCH  15  17
ENDBRANCH   1  13
TORSDOF 8
ENDMDL