MODEL 1
REMARK VINA RESULT: -9.619401170      0.000      0.000
REMARK  10 active torsions:
REMARK  status: ('A' for Active; 'I' for Inactive)
REMARK    1  A    between atoms: C4_4  and  O1_5
REMARK    2  A    between atoms: O1_5  and  C5_6
REMARK    3  A    between atoms: C5_6  and  C6_7
REMARK    4  A    between atoms: C6_7  and  O2_8
REMARK    5  A    between atoms: C6_7  and  C7_10
REMARK    6  A    between atoms: C14_20  and  O3_21
REMARK    7  A    between atoms: O3_21  and  C15_22
REMARK    8  A    between atoms: C15_22  and  C16_24
REMARK    9  A    between atoms: C16_24  and  C19_27
REMARK   10  A    between atoms: C19_27  and  O5_28
ROOT
HETATM    1  C1  UNL     1     -12.065 -17.189  11.951  1.00  0.00     0.019 C
HETATM    2  C2  UNL     1     -12.892 -16.279  11.495  1.00  0.00    -0.065 C
HETATM    3  C3  UNL     1     -14.315 -16.251  11.837  1.00  0.00     0.039 C
HETATM    4  C4  UNL     1     -15.073 -15.187  11.618  1.00  0.00     0.051 C
HETATM    5  C8  UNL     1     -14.533 -13.968  11.020  1.00  0.00     0.052 C
HETATM    6  C9  UNL     1     -13.008 -13.913  11.078  1.00  0.00     0.000 C
HETATM    7  C10 UNL     1     -12.629 -12.768  10.145  1.00  0.00     0.006 C
HETATM    8  C11 UNL     1     -13.154 -11.468  10.626  1.00  0.00     0.012 C
HETATM    9  C12 UNL     1     -14.607 -11.477  11.011  1.00  0.00    -0.013 C
HETATM   10  C13 UNL     1     -15.412 -11.335   9.733  1.00  0.00     0.018 C
HETATM   11  C14 UNL     1     -14.854 -10.267  11.879  1.00  0.00     0.140 C
HETATM   12  C20 UNL     1     -15.729 -10.530  13.060  1.00  0.00     0.033 C
HETATM   13  C21 UNL     1     -15.365 -11.726  13.871  1.00  0.00     0.003 C
HETATM   14  C22 UNL     1     -14.457 -12.684  13.097  1.00  0.00     0.006 C
HETATM   15  C23 UNL     1     -15.042 -12.733  11.700  1.00  0.00     0.007 C
HETATM   16  C24 UNL     1     -12.414 -15.204  10.587  1.00  0.00     0.043 C
ENDROOT
BRANCH   4  17
HETATM   17  O1  UNL     1     -16.419 -15.215  11.962  1.00  0.00    -0.352 OA
BRANCH  17  18
HETATM   18  C5  UNL     1     -17.342 -15.363  10.900  1.00  0.00     0.216 C
BRANCH  18  19
HETATM   19  C6  UNL     1     -18.088 -16.666  10.967  1.00  0.00     0.249 C
BRANCH  19  20
HETATM   20  O2  UNL     1     -19.384 -16.519  10.429  1.00  0.00    -0.384 OA
ATOM     21  H2  UNL     1     -19.354 -16.555   9.480  1.00  0.00     0.210 HD
ENDBRANCH  19  20
BRANCH  19  22
HETATM   22  C7  UNL     1     -17.412 -17.793  10.267  1.00  0.00     0.415 C
HETATM   23  F1  UNL     1     -16.615 -17.242   9.269  1.00  0.00    -0.168 F
HETATM   24  F2  UNL     1     -16.520 -18.427  11.138  1.00  0.00    -0.168 F
HETATM   25  F3  UNL     1     -18.281 -18.663   9.684  1.00  0.00    -0.168 F
ENDBRANCH  19  22
ENDBRANCH  18  19
ENDBRANCH  17  18
ENDBRANCH   4  17
BRANCH  11  26
HETATM   26  O3  UNL     1     -15.501  -9.264  11.117  1.00  0.00    -0.315 OA
BRANCH  26  27
HETATM   27  C15 UNL     1     -16.071  -8.137  11.668  1.00  0.00     0.269 C
HETATM   28  O4  UNL     1     -15.392  -7.484  12.491  1.00  0.00    -0.264 OA
BRANCH  27  29
HETATM   29  C16 UNL     1     -17.441  -7.767  11.255  1.00  0.00     0.062 C
HETATM   30  C17 UNL     1     -18.157  -8.962  10.637  1.00  0.00     0.028 C
HETATM   31  C18 UNL     1     -18.221  -7.217  12.412  1.00  0.00     0.028 C
BRANCH  29  32
HETATM   32  C19 UNL     1     -17.421  -6.689  10.178  1.00  0.00     0.183 C
BRANCH  32  33
HETATM   33  O5  UNL     1     -16.121  -6.455   9.784  1.00  0.00    -0.400 OA
ATOM     34  H5  UNL     1     -15.581  -6.296  10.549  1.00  0.00     0.209 HD
ENDBRANCH  32  33
ENDBRANCH  29  32
ENDBRANCH  27  29
ENDBRANCH  26  27
ENDBRANCH  11  26
TORSDOF 10
ENDMDL