MODEL 1
REMARK VINA RESULT: -9.758933385      0.000      0.000
REMARK  8 active torsions:
REMARK  status: ('A' for Active; 'I' for Inactive)
REMARK    1  A    between atoms: C4_5  and  S1_6
REMARK    2  A    between atoms: S1_6  and  N2_7
REMARK    3  A    between atoms: S1_6  and  C5_11
REMARK    4  A    between atoms: C8_14  and  C9_15
REMARK    5  A    between atoms: C9_15  and  C10_16
REMARK    6  A    between atoms: C10_16  and  C11_17
REMARK       I    between atoms: C11_17  and  N3_19
REMARK    7  A    between atoms: N3_19  and  C12_21
REMARK    8  A    between atoms: C19_31  and  C20_32
ROOT
HETATM    1  N1  UNL     1     -19.897 -15.808  10.029  1.00  0.00    -0.191 NA
HETATM    2  C1  UNL     1     -18.821 -15.839  10.441  1.00  0.00     0.100 C
HETATM    3  C2  UNL     1     -17.482 -15.879  10.937  1.00  0.00     0.061 A
HETATM    4  C3  UNL     1     -16.882 -14.746  11.441  1.00  0.00     0.045 A
HETATM    5  C4  UNL     1     -15.583 -14.788  11.922  1.00  0.00     0.044 A
HETATM    6  C17 UNL     1     -14.921 -15.991  11.881  1.00  0.00     0.023 A
HETATM    7  C18 UNL     1     -15.535 -17.127  11.372  1.00  0.00     0.019 A
HETATM    8  C19 UNL     1     -16.824 -17.098  10.890  1.00  0.00     0.068 A
ENDROOT
BRANCH   8   9
HETATM    9  C20 UNL     1     -17.442 -18.302  10.364  1.00  0.00     0.418 C
HETATM   10  F1  UNL     1     -18.751 -18.493  10.708  1.00  0.00    -0.166 F
HETATM   11  F2  UNL     1     -16.736 -19.401  10.814  1.00  0.00    -0.166 F
HETATM   12  F3  UNL     1     -17.276 -18.291   8.979  1.00  0.00    -0.166 F
ENDBRANCH   8   9
BRANCH   5  13
HETATM   13  S1  UNL     1     -14.802 -13.356  12.566  1.00  0.00     0.082 S
HETATM   14  O1  UNL     1     -13.624 -12.997  11.710  1.00  0.00    -0.240 OA
BRANCH  13  15
HETATM   15  N2  UNL     1     -14.262 -13.730  13.985  1.00  0.00    -0.353 N
ATOM     16  H22 UNL     1     -14.281 -14.660  14.403  1.00  0.00     0.166 HD
ATOM     17  H21 UNL     1     -13.895 -12.873  14.399  1.00  0.00     0.166 HD
ENDBRANCH  13  15
BRANCH  13  18
HETATM   18  C5  UNL     1     -15.976 -12.087  12.668  1.00  0.00     0.043 A
HETATM   19  C6  UNL     1     -16.970 -12.144  13.613  1.00  0.00     0.023 A
HETATM   20  C7  UNL     1     -17.919 -11.126  13.701  1.00  0.00     0.008 A
HETATM   21  C8  UNL     1     -17.870 -10.051  12.840  1.00  0.00    -0.058 A
HETATM   22  C15 UNL     1     -16.852 -10.022  11.897  1.00  0.00     0.008 A
HETATM   23  C16 UNL     1     -15.916 -11.031  11.814  1.00  0.00     0.023 A
BRANCH  21  24
HETATM   24  C9  UNL     1     -18.877  -8.965  12.930  1.00  0.00     0.048 C
BRANCH  24  25
HETATM   25  C10 UNL     1     -18.692  -8.131  14.157  1.00  0.00     0.108 C
BRANCH  25  26
HETATM   26  C11 UNL     1     -17.259  -7.843  14.345  1.00  0.00     0.223 C
HETATM   27  O2  UNL     1     -16.698  -7.033  13.571  1.00  0.00    -0.273 OA
HETATM   28  N3  UNL     1     -16.470  -8.438  15.368  1.00  0.00    -0.312 N
ATOM     29  H3  UNL     1     -16.854  -8.484  16.312  1.00  0.00     0.170 HD
BRANCH  28  30
HETATM   30  C12 UNL     1     -15.302  -8.921  15.163  1.00  0.00     0.130 A
HETATM   31  C13 UNL     1     -14.833 -10.097  15.696  1.00  0.00     0.077 A
HETATM   32  C14 UNL     1     -13.530 -10.269  15.239  1.00  0.00     0.171 A
HETATM   33  O3  UNL     1     -13.276  -9.247  14.487  1.00  0.00    -0.248 OA
HETATM   34  N4  UNL     1     -14.296  -8.429  14.417  1.00  0.00    -0.245 N
ATOM     35  H4  UNL     1     -14.323  -7.561  13.883  1.00  0.00     0.196 HD
ENDBRANCH  28  30
ENDBRANCH  25  26
ENDBRANCH  24  25
ENDBRANCH  21  24
ENDBRANCH  13  18
ENDBRANCH   5  13
TORSDOF 8
ENDMDL