MODEL 1
REMARK VINA RESULT: -9.687140933      0.000      0.000
REMARK  5 active torsions:
REMARK  status: ('A' for Active; 'I' for Inactive)
REMARK    1  A    between atoms: C2_2  and  C3_4
REMARK    2  A    between atoms: C6_7  and  C7_8
REMARK    3  A    between atoms: C13_20  and  C14_21
REMARK    4  A    between atoms: C13_20  and  C21_31
REMARK    5  A    between atoms: C17_24  and  S1_25
ROOT
HETATM    1  C7  UNL     1     -16.357 -15.968  10.415  1.00  0.00     0.068 C
HETATM    2  C8  UNL     1     -17.787 -15.717  10.437  1.00  0.00     0.073 C
HETATM    3  N1  UNL     1     -18.954 -15.541  10.476  1.00  0.00    -0.196 NA
HETATM    4  C9  UNL     1     -16.193 -17.510  10.300  1.00  0.00     0.029 C
HETATM    5  C10 UNL     1     -15.091 -17.415  11.351  1.00  0.00     0.004 C
HETATM    6  C11 UNL     1     -15.846 -16.161  11.816  1.00  0.00     0.029 C
ENDROOT
BRANCH   1   7
HETATM    7  C6  UNL     1     -15.547 -15.323   9.417  1.00  0.00     0.013 C
HETATM    8  C5  UNL     1     -14.595 -14.260   9.556  1.00  0.00     0.015 C
HETATM    9  C4  UNL     1     -14.980 -12.906  10.062  1.00  0.00     0.001 C
HETATM   10  C12 UNL     1     -13.309 -14.557  10.170  1.00  0.00     0.106 C
HETATM   11  C3  UNL     1     -16.096 -12.303   9.710  1.00  0.00     0.061 C
HETATM   12  C13 UNL     1     -13.893 -12.444  10.915  1.00  0.00     0.186 C
HETATM   13  N3  UNL     1     -13.165 -13.695  11.260  1.00  0.00    -0.351 N
ATOM     14  H3  UNL     1     -12.658 -13.886  12.125  1.00  0.00     0.162 HD
HETATM   15  N2  UNL     1     -12.434 -15.434   9.816  1.00  0.00    -0.385 N
ATOM     16  H22 UNL     1     -12.539 -16.064   9.021  1.00  0.00     0.157 HD
ATOM     17  H21 UNL     1     -11.533 -15.643  10.246  1.00  0.00     0.157 HD
BRANCH  11  18
HETATM   18  C2  UNL     1     -16.744 -11.082   9.979  1.00  0.00     0.146 C
HETATM   19  C1  UNL     1     -18.276 -11.121  10.190  1.00  0.00     0.096 C
HETATM   20  O1  UNL     1     -16.318  -9.928  10.084  1.00  0.00    -0.294 OA
ENDBRANCH  11  18
BRANCH  12  21
HETATM   21  C14 UNL     1     -14.214 -11.774  12.172  1.00  0.00    -0.016 A
HETATM   22  C15 UNL     1     -14.980 -12.416  13.154  1.00  0.00     0.012 A
HETATM   23  C16 UNL     1     -15.275 -11.826  14.365  1.00  0.00     0.024 A
HETATM   24  C17 UNL     1     -14.816 -10.571  14.646  1.00  0.00     0.058 A
HETATM   25  C19 UNL     1     -14.070  -9.924  13.712  1.00  0.00     0.024 A
HETATM   26  C20 UNL     1     -13.764 -10.519  12.471  1.00  0.00     0.012 A
BRANCH  24  27
HETATM   27  S1  UNL     1     -15.165  -9.774  16.180  1.00  0.00     0.171 S
HETATM   28  C18 UNL     1     -15.725  -8.102  15.911  1.00  0.00     0.167 C
HETATM   29  O2  UNL     1     -16.221 -10.556  16.932  1.00  0.00    -0.223 OA
HETATM   30  O3  UNL     1     -13.930  -9.754  17.042  1.00  0.00    -0.223 OA
ENDBRANCH  24  27
ENDBRANCH  12  21
BRANCH  12  31
HETATM   31  C21 UNL     1     -12.844 -11.651  10.160  1.00  0.00     0.421 C
HETATM   32  F1  UNL     1     -13.049 -10.324  10.073  1.00  0.00    -0.168 F
HETATM   33  F2  UNL     1     -12.907 -12.082   8.784  1.00  0.00    -0.168 F
HETATM   34  F3  UNL     1     -11.569 -12.015  10.505  1.00  0.00    -0.168 F
ENDBRANCH  12  31
ENDBRANCH   1   7
TORSDOF 5
ENDMDL