MODEL 1
REMARK VINA RESULT: -9.097551154      0.000      0.000
REMARK  8 active torsions:
REMARK  status: ('A' for Active; 'I' for Inactive)
REMARK    1  A    between atoms: N1_2  and  C2_4
REMARK    2  A    between atoms: C3_7  and  C4_8
REMARK    3  A    between atoms: C7_11  and  N3_12
REMARK    4  A    between atoms: N3_12  and  C9_14
REMARK    5  A    between atoms: C9_14  and  O1_15
REMARK    6  A    between atoms: C10_17  and  N4_18
REMARK       I    between atoms: N4_18  and  C11_20
REMARK    7  A    between atoms: C11_20  and  C12_22
REMARK    8  A    between atoms: C17_27  and  C18_28
ROOT
HETATM    1  C9  UNL     1     -13.856 -15.908  11.214  1.00  0.00     0.158 C
HETATM    2  C10 UNL     1     -14.563 -17.129  11.502  1.00  0.00     0.147 C
ENDROOT
BRANCH   1   3
HETATM    3  N3  UNL     1     -14.203 -14.597  10.931  1.00  0.00    -0.325 N
HETATM    4  C8  UNL     1     -14.334 -14.032   9.617  1.00  0.00     0.159 C
BRANCH   3   5
HETATM    5  C7  UNL     1     -14.449 -13.648  12.013  1.00  0.00     0.078 A
HETATM    6  C6  UNL     1     -14.522 -13.866  13.344  1.00  0.00     0.039 A
HETATM    7  C5  UNL     1     -14.762 -12.810  14.128  1.00  0.00     0.024 A
HETATM    8  C4  UNL     1     -14.914 -11.605  13.542  1.00  0.00     0.034 A
HETATM    9  S1  UNL     1     -14.717 -11.968  11.863  1.00  0.00    -0.070 SA
BRANCH   8  10
HETATM   10  C3  UNL     1     -15.190 -10.274  14.136  1.00  0.00     0.058 A
HETATM   11  N2  UNL     1     -15.123  -9.160  13.447  1.00  0.00    -0.335 N
HETATM   12  C2  UNL     1     -15.386  -8.016  14.070  1.00  0.00     0.144 A
ATOM     13  H2  UNL     1     -14.876  -9.172  12.459  1.00  0.00     0.168 HD
HETATM   14  S2  UNL     1     -15.739  -8.502  15.660  1.00  0.00    -0.064 SA
HETATM   15  C19 UNL     1     -15.530 -10.183  15.459  1.00  0.00     0.084 A
BRANCH  12  16
HETATM   16  N1  UNL     1     -15.383  -6.797  13.602  1.00  0.00    -0.375 N
HETATM   17  C1  UNL     1     -16.123  -6.414  12.434  1.00  0.00     0.148 C
ATOM     18  H1  UNL     1     -14.834  -6.088  14.087  1.00  0.00     0.161 HD
ENDBRANCH  12  16
ENDBRANCH   8  10
ENDBRANCH   3   5
ENDBRANCH   1   3
BRANCH   1  19
HETATM   19  O1  UNL     1     -12.539 -16.092  11.222  1.00  0.00    -0.345 OA
ATOM     20  H1  UNL     1     -12.227 -16.501  10.424  1.00  0.00     0.219 HD
ENDBRANCH   1  19
BRANCH   2  21
HETATM   21  N4  UNL     1     -15.975 -17.177  11.573  1.00  0.00    -0.329 N
HETATM   22  C11 UNL     1     -16.783 -17.098  10.379  1.00  0.00     0.256 C
HETATM   23  O2  UNL     1     -16.190 -17.002   9.269  1.00  0.00    -0.267 OA
ATOM     24  H4  UNL     1     -16.430 -17.269  12.481  1.00  0.00     0.168 HD
BRANCH  22  25
HETATM   25  C12 UNL     1     -18.216 -17.128  10.358  1.00  0.00     0.047 A
HETATM   26  C13 UNL     1     -18.804 -18.410  10.387  1.00  0.00     0.018 A
HETATM   27  C14 UNL     1     -20.160 -18.612  10.416  1.00  0.00     0.001 A
HETATM   28  C15 UNL     1     -20.981 -17.501  10.419  1.00  0.00     0.001 A
HETATM   29  C16 UNL     1     -20.439 -16.243  10.390  1.00  0.00     0.017 A
HETATM   30  C17 UNL     1     -19.055 -16.039  10.359  1.00  0.00     0.063 A
BRANCH  30  31
HETATM   31  C18 UNL     1     -18.544 -14.674  10.279  1.00  0.00     0.418 C
HETATM   32  F1  UNL     1     -18.009 -14.213  11.445  1.00  0.00    -0.166 F
HETATM   33  F2  UNL     1     -17.618 -14.547   9.226  1.00  0.00    -0.166 F
HETATM   34  F3  UNL     1     -19.608 -13.804   9.980  1.00  0.00    -0.166 F
ENDBRANCH  30  31
ENDBRANCH  22  25
ENDBRANCH   2  21
TORSDOF 8
ENDMDL