MODEL 2
REMARK VINA RESULT: -9.335814194      1.084      1.209
REMARK  7 active torsions:
REMARK  status: ('A' for Active; 'I' for Inactive)
REMARK    1  A    between atoms: C5_5  and  O1_6
REMARK    2  A    between atoms: C19_22  and  O3_23
REMARK    3  A    between atoms: C19_22  and  C20_25
REMARK    4  A    between atoms: C20_25  and  C21_28
REMARK    5  A    between atoms: C21_28  and  O4_29
REMARK    6  A    between atoms: O4_29  and  C22_30
REMARK    7  A    between atoms: C22_30  and  C23_31
ROOT
HETATM    1  C23 UNL     1     -18.125 -18.027  10.395  1.00  0.00     0.150 C
HETATM    2  C24 UNL     1     -18.481 -16.628  10.567  1.00  0.00     0.061 C
HETATM    3  N1  UNL     1     -18.753 -15.511  10.686  1.00  0.00    -0.197 NA
ENDROOT
BRANCH   1   4
HETATM    4  C22 UNL     1     -16.662 -18.178  10.787  1.00  0.00     0.181 C
BRANCH   4   5
HETATM    5  O4  UNL     1     -16.117 -17.002  11.273  1.00  0.00    -0.384 OA
BRANCH   5   6
HETATM    6  C21 UNL     1     -14.827 -16.764  10.822  1.00  0.00     0.250 C
BRANCH   6   7
HETATM    7  C20 UNL     1     -14.260 -15.486  11.461  1.00  0.00     0.295 C
HETATM    8  F1  UNL     1     -12.902 -15.692  11.587  1.00  0.00    -0.201 F
HETATM    9  F2  UNL     1     -14.726 -15.506  12.757  1.00  0.00    -0.201 F
BRANCH   7  10
HETATM   10  C19 UNL     1     -14.677 -14.269  10.733  1.00  0.00     0.133 C
HETATM   11  C14 UNL     1     -14.931 -13.013  11.478  1.00  0.00     0.001 C
HETATM   12  C13 UNL     1     -16.220 -12.960  12.248  1.00  0.00     0.014 C
HETATM   13  C15 UNL     1     -13.800 -12.578  12.341  1.00  0.00     0.019 C
HETATM   14  C16 UNL     1     -15.083 -12.054  10.335  1.00  0.00     0.030 C
HETATM   15  C12 UNL     1     -17.286 -12.125  11.615  1.00  0.00     0.011 C
HETATM   16  C11 UNL     1     -16.883 -10.738  11.198  1.00  0.00     0.027 C
HETATM   17  C2  UNL     1     -17.223  -9.710  12.215  1.00  0.00    -0.032 C
HETATM   18  C10 UNL     1     -15.510 -10.675  10.582  1.00  0.00    -0.024 C
HETATM   19  C1  UNL     1     -18.764  -9.593  12.217  1.00  0.00     0.016 C
HETATM   20  C3  UNL     1     -16.881 -10.045  13.632  1.00  0.00     0.012 C
HETATM   21  C7  UNL     1     -16.592  -8.413  11.853  1.00  0.00     0.004 C
HETATM   22  C4  UNL     1     -17.357  -8.969  14.553  1.00  0.00     0.032 C
HETATM   23  C5  UNL     1     -17.012  -7.586  14.184  1.00  0.00     0.118 C
HETATM   24  C6  UNL     1     -17.006  -7.280  12.718  1.00  0.00     0.037 C
HETATM   25  C8  UNL     1     -15.086  -8.607  12.016  1.00  0.00     0.088 C
HETATM   26  C9  UNL     1     -14.599  -9.698  11.139  1.00  0.00     0.152 C
HETATM   27  O2  UNL     1     -13.422  -9.734  10.913  1.00  0.00    -0.293 OA
HETATM   28  C17 UNL     1     -13.875 -12.321   9.545  1.00  0.00     0.013 C
HETATM   29  C18 UNL     1     -13.664 -13.814   9.701  1.00  0.00     0.046 C
BRANCH  23  30
HETATM   30  O1  UNL     1     -15.799  -7.183  14.758  1.00  0.00    -0.396 OA
ATOM     31  H1  UNL     1     -15.477  -7.819  15.386  1.00  0.00     0.210 HD
ENDBRANCH  23  30
BRANCH  10  32
HETATM   32  O3  UNL     1     -15.801 -14.655   9.959  1.00  0.00    -0.383 OA
ATOM     33  H3  UNL     1     -16.367 -13.916   9.770  1.00  0.00     0.210 HD
ENDBRANCH  10  32
ENDBRANCH   7  10
ENDBRANCH   6   7
ENDBRANCH   5   6
ENDBRANCH   4   5
ENDBRANCH   1   4
TORSDOF 7
ENDMDL