MODEL 3
REMARK VINA RESULT: -4.159633405      8.647      9.363
REMARK  3 active torsions:
REMARK  status: ('A' for Active; 'I' for Inactive)
REMARK    1  A    between atoms: O1_2  and  C2_3
REMARK    2  A    between atoms: C2_3  and  C3_5
REMARK    3  A    between atoms: C5_9  and  O3_10
ROOT
HETATM    1  C3  UNL     1      21.457  22.552   7.112  1.00  0.00     0.179 C
HETATM    2  S1  UNL     1      22.885  23.554   6.711  1.00  0.00    -0.128 SA
HETATM    3  C4  UNL     1      21.369  24.571   6.534  1.00  0.00     0.174 C
HETATM    4 CL1  UNL     1      21.503  25.867   5.358  1.00  0.00    -0.111 Cl
HETATM    5  C5  UNL     1      20.682  23.303   6.020  1.00  0.00     0.169 C
ENDROOT
BRANCH   1   6
HETATM    6  C2  UNL     1      21.591  21.104   6.810  1.00  0.00     0.275 C
HETATM    7  O2  UNL     1      20.684  20.504   6.199  1.00  0.00    -0.264 OA
BRANCH   6   8
HETATM    8  O1  UNL     1      22.696  20.355   7.177  1.00  0.00    -0.326 OA
HETATM    9  C1  UNL     1      22.636  19.213   7.993  1.00  0.00     0.213 C
ENDBRANCH   6   8
ENDBRANCH   1   6
BRANCH   5  10
HETATM   10  O3  UNL     1      21.058  22.954   4.734  1.00  0.00    -0.392 OA
ATOM     11  H3  UNL     1      21.981  22.742   4.653  1.00  0.00     0.210 HD
ENDBRANCH   5  10
TORSDOF 3
ENDMDL