MODEL 1
REMARK VINA RESULT: -5.545277874      0.000      0.000
REMARK  2 active torsions:
REMARK  status: ('A' for Active; 'I' for Inactive)
REMARK    1  A    between atoms: C1_4  and  N2_5
REMARK    2  A    between atoms: N3_7  and  N4_9
ROOT
HETATM    1  N4  UNL     1      26.455  16.581   8.625  1.00  0.00    -0.303 N
HETATM    2  C2  UNL     1      26.697  15.185   8.966  1.00  0.00     0.151 C
HETATM    3  C3  UNL     1      28.153  15.147   9.314  1.00  0.00     0.031 C
HETATM    4  C4  UNL     1      28.339  15.643  10.726  1.00  0.00     0.177 C
HETATM    5  O1  UNL     1      27.708  16.821  10.994  1.00  0.00    -0.354 OA
HETATM    6  C5  UNL     1      27.891  17.819  10.071  1.00  0.00     0.331 C
HETATM    7  F1  UNL     1      29.067  18.515  10.230  1.00  0.00    -0.217 F
HETATM    8  C6  UNL     1      27.700  17.328   8.655  1.00  0.00     0.164 C
HETATM    9  C7  UNL     1      28.715  16.223   8.375  1.00  0.00     0.040 C
ENDROOT
BRANCH   1  10
HETATM   10  N3  UNL     1      25.228  17.178   8.305  1.00  0.00    -0.244 N
HETATM   11  N2  UNL     1      25.176  18.390   7.967  1.00  0.00    -0.282 N
ATOM     12  H2  UNL     1      26.016  18.964   7.916  1.00  0.00     0.189 HD
ATOM     13  H3  UNL     1      24.371  16.626   8.347  1.00  0.00     0.208 HD
BRANCH  11  14
HETATM   14  C1  UNL     1      23.894  18.924   7.657  1.00  0.00     0.192 C
HETATM   15  N1  UNL     1      22.868  18.482   8.286  1.00  0.00    -0.394 N
ATOM     16  H12 UNL     1      22.986  17.757   8.995  1.00  0.00     0.156 HD
ATOM     17  H11 UNL     1      21.949  18.864   8.064  1.00  0.00     0.156 HD
ENDBRANCH  11  14
ENDBRANCH   1  10
TORSDOF 2
ENDMDL