MODEL 3
REMARK VINA RESULT: -5.537786935      4.941      6.206
REMARK  2 active torsions:
REMARK  status: ('A' for Active; 'I' for Inactive)
REMARK    1  A    between atoms: C3_4  and  O1_5
REMARK    2  A    between atoms: C3_4  and  C4_7
ROOT
HETATM    1  C4  UNL     1      27.594  17.209   9.837  1.00  0.00     0.152 C
HETATM    2  C5  UNL     1      27.010  18.256   8.875  1.00  0.00     0.057 C
HETATM    3  C6  UNL     1      28.787  16.597   9.113  1.00  0.00     0.161 C
HETATM    4  C7  UNL     1      28.472  15.144   9.120  1.00  0.00     0.292 C
HETATM    5  O2  UNL     1      29.064  14.206   8.524  1.00  0.00    -0.263 OA
HETATM    6  O3  UNL     1      27.358  15.061   9.947  1.00  0.00    -0.158 OA
HETATM    7  O4  UNL     1      26.692  16.214   9.963  1.00  0.00    -0.214 OA
ENDROOT
BRANCH   1   8
HETATM    8  C3  UNL     1      28.012  17.907  11.064  1.00  0.00     0.115 C
HETATM    9  C2  UNL     1      28.286  19.183  11.198  1.00  0.00     0.122 C
HETATM   10  C1  UNL     1      28.217  20.165  10.097  1.00  0.00     0.085 C
HETATM   11  F1  UNL     1      28.651  19.634  12.420  1.00  0.00    -0.208 F
BRANCH   8  12
HETATM   12  O1  UNL     1      28.129  17.105  12.223  1.00  0.00    -0.359 OA
ATOM     13  H1  UNL     1      27.789  16.220  12.166  1.00  0.00     0.217 HD
ENDBRANCH   8  12
ENDBRANCH   1   8
TORSDOF 2
ENDMDL