MODEL 3
REMARK VINA RESULT: -5.328064045      2.629      3.290
REMARK  2 active torsions:
REMARK  status: ('A' for Active; 'I' for Inactive)
REMARK    1  A    between atoms: C1_4  and  N2_6
REMARK    2  A    between atoms: N3_8  and  N4_10
ROOT
HETATM    1  N2  UNL     1      28.842  20.334  12.629  1.00  0.00    -0.262 N
ATOM      2  H2  UNL     1      29.064  21.178  12.101  1.00  0.00     0.191 HD
HETATM    3  N3  UNL     1      28.462  19.300  11.995  1.00  0.00    -0.243 N
ATOM      4  H3  UNL     1      28.243  18.463  12.534  1.00  0.00     0.208 HD
ENDROOT
BRANCH   3   5
HETATM    5  N4  UNL     1      28.329  19.240  10.629  1.00  0.00    -0.309 N
HETATM    6  C2  UNL     1      28.103  20.373   9.766  1.00  0.00     0.170 C
HETATM    7  C3  UNL     1      27.069  20.116   8.709  1.00  0.00     0.189 C
HETATM    8  O1  UNL     1      27.016  18.851   8.228  1.00  0.00    -0.388 OA
HETATM    9  C4  UNL     1      27.170  17.835   9.113  1.00  0.00     0.189 C
HETATM   10  C5  UNL     1      28.418  17.935   9.970  1.00  0.00     0.170 C
ENDBRANCH   3   5
BRANCH   1  11
HETATM   11  C1  UNL     1      28.970  20.362  14.040  1.00  0.00     0.188 C
HETATM   12  N1  UNL     1      29.223  21.452  14.637  1.00  0.00    -0.375 N
ATOM     13  H12 UNL     1      29.315  21.472  15.652  1.00  0.00     0.158 HD
ATOM     14  H11 UNL     1      29.330  22.290  14.066  1.00  0.00     0.158 HD
HETATM   15 CL1  UNL     1      28.785  18.915  15.026  1.00  0.00    -0.044 Cl
ENDBRANCH   1  11
TORSDOF 2
ENDMDL