MODEL 3
REMARK VINA RESULT: -4.604932577      2.366      3.023
REMARK  2 active torsions:
REMARK  status: ('A' for Active; 'I' for Inactive)
REMARK    1  A    between atoms: C5_6  and  N1_8
REMARK    2  A    between atoms: N2_11  and  O3_12
ROOT
HETATM    1  C1  UNL     1      28.406  16.575  11.067  1.00  0.00     0.037 C
HETATM    2  C2  UNL     1      27.913  16.044   9.750  1.00  0.00     0.069 A
HETATM    3  C3  UNL     1      27.533  17.131   8.806  1.00  0.00     0.037 C
HETATM    4  C4  UNL     1      26.786  15.021   9.850  1.00  0.00     0.245 A
HETATM    5  F1  UNL     1      25.649  15.380   9.208  1.00  0.00    -0.243 F
HETATM    6  C5  UNL     1      27.700  14.022   9.206  1.00  0.00     0.202 A
HETATM    7  C6  UNL     1      27.915  12.853  10.173  1.00  0.00     0.069 C
HETATM    8  N2  UNL     1      28.751  15.002   9.257  1.00  0.00    -0.150 NA
ENDROOT
BRANCH   6   9
HETATM    9  N1  UNL     1      27.287  13.569   7.930  1.00  0.00    -0.125 N
HETATM   10  O1  UNL     1      26.933  12.394   7.759  1.00  0.00    -0.535 OA
HETATM   11  O2  UNL     1      27.250  14.385   6.821  1.00  0.00    -0.535 OA
ENDBRANCH   6   9
BRANCH   8  12
HETATM   12  O3  UNL     1      29.453  15.216   8.160  1.00  0.00    -0.309 OA
ATOM     13  H3  UNL     1      29.197  14.774   7.359  1.00  0.00     0.237 HD
ENDBRANCH   8  12
TORSDOF 2
ENDMDL