MODEL 4
REMARK VINA RESULT: -5.010318253      3.357      5.053
REMARK  2 active torsions:
REMARK  status: ('A' for Active; 'I' for Inactive)
REMARK    1  A    between atoms: C2_2  and  N1_3
REMARK    2  A    between atoms: N2_9  and  O2_11
ROOT
HETATM    1  N1  UNL     1      23.529  22.172   7.294  1.00  0.00    -0.339 N
HETATM    2  C3  UNL     1      22.487  21.182   7.177  1.00  0.00     0.296 C
HETATM    3  O1  UNL     1      21.216  21.722   7.274  1.00  0.00    -0.362 OA
HETATM    4  C4  UNL     1      20.859  22.524   6.226  1.00  0.00     0.252 C
HETATM    5  S1  UNL     1      21.773  24.081   6.412  1.00  0.00    -0.066 SA
HETATM    6  C5  UNL     1      23.295  23.570   7.245  1.00  0.00     0.165 C
HETATM    7  N2  UNL     1      24.107  24.434   7.759  1.00  0.00    -0.247 N
ATOM      8  H2  UNL     1      24.966  24.147   8.228  1.00  0.00     0.196 HD
ENDROOT
BRANCH   1   9
HETATM    9  C2  UNL     1      24.898  21.756   7.472  1.00  0.00     0.122 C
HETATM   10  C1  UNL     1      25.091  20.267   7.520  1.00  0.00     0.026 C
ENDBRANCH   1   9
BRANCH   7  11
HETATM   11  O2  UNL     1      23.760  25.757   7.643  1.00  0.00    -0.288 OA
ATOM     12  H2  UNL     1      24.246  26.275   7.011  1.00  0.00     0.244 HD
ENDBRANCH   7  11
TORSDOF 2
ENDMDL