MODEL 4
REMARK VINA RESULT: -5.509167270      3.253      4.339
REMARK  2 active torsions:
REMARK  status: ('A' for Active; 'I' for Inactive)
REMARK    1  A    between atoms: O1_2  and  N1_3
REMARK    2  A    between atoms: C5_8  and  O2_9
ROOT
HETATM    1  N1  UNL     1      29.174  20.152  13.850  1.00  0.00    -0.249 N
ATOM      2  H1  UNL     1      29.681  20.769  13.215  1.00  0.00     0.196 HD
HETATM    3  C2  UNL     1      28.886  20.549  15.039  1.00  0.00     0.141 C
HETATM    4  C3  UNL     1      28.149  19.647  15.953  1.00  0.00     0.088 C
HETATM    5  C4  UNL     1      27.155  20.347  16.818  1.00  0.00     0.045 C
HETATM    6  C5  UNL     1      27.365  21.826  16.926  1.00  0.00     0.186 C
HETATM    7  C6  UNL     1      28.858  22.080  16.872  1.00  0.00     0.233 C
HETATM    8  C7  UNL     1      29.123  23.506  17.250  1.00  0.00     0.088 C
HETATM    9  F1  UNL     1      29.514  21.213  17.711  1.00  0.00    -0.209 F
HETATM   10  O3  UNL     1      29.241  21.813  15.513  1.00  0.00    -0.293 OA
ENDROOT
BRANCH   1  11
HETATM   11  O1  UNL     1      28.806  18.919  13.441  1.00  0.00    -0.284 OA
HETATM   12  C1  UNL     1      28.776  18.486  12.099  1.00  0.00     0.237 C
ENDBRANCH   1  11
BRANCH   6  13
HETATM   13  O2  UNL     1      26.878  22.353  18.117  1.00  0.00    -0.390 OA
ATOM     14  H2  UNL     1      27.121  23.263  18.243  1.00  0.00     0.210 HD
ENDBRANCH   6  13
TORSDOF 2
ENDMDL