MODEL 4
REMARK VINA RESULT: -4.650202027      8.041      9.292
REMARK  1 active torsions:
REMARK  status: ('A' for Active; 'I' for Inactive)
REMARK    1  A    between atoms: N1_2  and  N2_4
ROOT
HETATM    1  N2  UNL     1      27.367  18.504   9.366  1.00  0.00    -0.241 N
HETATM    2  C1  UNL     1      26.528  18.190   8.229  1.00  0.00     0.381 C
HETATM    3  N3  UNL     1      27.124  16.955   7.755  1.00  0.00    -0.046 N
ATOM      4  H31 UNL     1      27.929  17.093   7.144  1.00  0.00     0.280 HD
ATOM      5  H32 UNL     1      26.548  16.452   7.079  1.00  0.00     0.280 HD
HETATM    6  C2  UNL     1      27.418  16.202   8.941  1.00  0.00     0.162 C
HETATM    7  C3  UNL     1      28.557  15.245   8.690  1.00  0.00     0.115 C
HETATM    8  S1  UNL     1      27.885  14.050   9.871  1.00  0.00    -0.164 SA
HETATM    9  C4  UNL     1      26.490  15.094   9.297  1.00  0.00     0.115 C
HETATM   10  C5  UNL     1      27.678  17.238  10.000  1.00  0.00     0.191 C
ENDROOT
BRANCH   1  11
HETATM   11  N1  UNL     1      27.782  19.772   9.756  1.00  0.00    -0.040 N
HETATM   12  O1  UNL     1      28.220  19.968  10.900  1.00  0.00    -0.517 OA
HETATM   13  O2  UNL     1      27.722  20.835   8.894  1.00  0.00    -0.517 OA
ENDBRANCH   1  11
TORSDOF 1
ENDMDL