MODEL 1
REMARK VINA RESULT: -5.108076113      0.000      0.000
REMARK  2 active torsions:
REMARK  status: ('A' for Active; 'I' for Inactive)
REMARK    1  A    between atoms: C2_2  and  N1_4
REMARK    2  A    between atoms: N2_11  and  O2_12
ROOT
HETATM    1  N1  UNL     1      22.231  22.924   7.412  1.00  0.00    -0.163 NA
HETATM    2  C3  UNL     1      23.059  23.713   6.549  1.00  0.00     0.214 C
HETATM    3  C4  UNL     1      23.627  24.869   7.376  1.00  0.00     0.058 C
HETATM    4  O1  UNL     1      22.242  24.314   5.595  1.00  0.00    -0.342 OA
HETATM    5  C5  UNL     1      20.996  23.743   5.681  1.00  0.00     0.149 C
HETATM    6  C6  UNL     1      19.874  24.757   5.747  1.00  0.00     0.067 C
HETATM    7  C7  UNL     1      20.777  22.944   4.400  1.00  0.00     0.067 C
HETATM    8  N2  UNL     1      20.949  22.915   6.855  1.00  0.00    -0.087 NA
ENDROOT
BRANCH   1   9
HETATM    9  C2  UNL     1      22.651  21.550   7.535  1.00  0.00     0.260 C
HETATM   10  C1  UNL     1      24.143  21.376   7.395  1.00  0.00     0.064 C
HETATM   11  F1  UNL     1      22.318  21.155   8.832  1.00  0.00    -0.232 F
ENDBRANCH   1   9
BRANCH   8  12
HETATM   12  O2  UNL     1      20.553  21.681   6.463  1.00  0.00    -0.295 OA
ATOM     13  H2  UNL     1      19.796  21.700   5.889  1.00  0.00     0.238 HD
ENDBRANCH   8  12
TORSDOF 2
ENDMDL