MODEL 2
REMARK VINA RESULT: -4.455380175      2.277      3.837
REMARK  3 active torsions:
REMARK  status: ('A' for Active; 'I' for Inactive)
REMARK    1  A    between atoms: C2_3  and  N2_4
REMARK    2  A    between atoms: N2_4  and  O1_5
REMARK    3  A    between atoms: N2_4  and  C3_7
ROOT
HETATM    1  N1  UNL     1      28.858  15.740   6.904  1.00  0.00    -0.194 NA
HETATM    2  C1  UNL     1      27.994  15.929   7.650  1.00  0.00     0.093 C
HETATM    3  C2  UNL     1      26.906  16.177   8.619  1.00  0.00     0.149 A
HETATM    4  C4  UNL     1      27.206  15.851  10.084  1.00  0.00     0.053 A
HETATM    5  C5  UNL     1      26.352  14.955   9.271  1.00  0.00     0.053 A
ENDROOT
BRANCH   3   6
HETATM    6  N2  UNL     1      26.111  17.346   8.407  1.00  0.00    -0.215 N
BRANCH   6   7
HETATM    7  O1  UNL     1      24.773  17.243   8.127  1.00  0.00    -0.284 OA
ATOM      8  H1  UNL     1      24.229  18.019   8.059  1.00  0.00     0.245 HD
ENDBRANCH   6   7
BRANCH   6   9
HETATM    9  C3  UNL     1      26.680  18.647   8.480  1.00  0.00     0.196 C
HETATM   10  S1  UNL     1      26.250  19.768   7.373  1.00  0.00    -0.045 SA
HETATM   11 CL1  UNL     1      27.825  19.108   9.703  1.00  0.00    -0.050 Cl
ENDBRANCH   6   9
ENDBRANCH   3   6
TORSDOF 3
ENDMDL