MODEL 3
REMARK VINA RESULT: -6.681627839      1.429      1.658
REMARK  9 active torsions:
REMARK  status: ('A' for Active; 'I' for Inactive)
REMARK    1  A    between atoms: C2_2  and  O1_3
REMARK    2  A    between atoms: C2_2  and  C3_5
REMARK    3  A    between atoms: C3_5  and  C4_6
REMARK    4  A    between atoms: C3_5  and  N1_20
REMARK    5  A    between atoms: C4_6  and  O2_7
REMARK    6  A    between atoms: C4_6  and  C5_9
REMARK    7  A    between atoms: C10_17  and  O3_18
REMARK    8  A    between atoms: N1_20  and  N2_21
REMARK    9  A    between atoms: N1_20  and  N3_24
ROOT
HETATM    1  C3  UNL     1      28.655  16.142   9.002  1.00  0.00     0.213 C
ENDROOT
BRANCH   1   2
HETATM    2  C2  UNL     1      27.646  15.983   7.868  1.00  0.00     0.147 C
HETATM    3  C1  UNL     1      27.140  14.584   7.782  1.00  0.00     0.042 C
BRANCH   2   4
HETATM    4  O1  UNL     1      26.611  16.866   7.917  1.00  0.00    -0.393 OA
ATOM      5  H1  UNL     1      26.853  17.689   7.510  1.00  0.00     0.210 HD
ENDBRANCH   2   4
ENDBRANCH   1   2
BRANCH   1   6
HETATM    6  C4  UNL     1      28.064  16.857  10.130  1.00  0.00     0.087 C
BRANCH   6   7
HETATM    7  O2  UNL     1      26.951  16.301  10.535  1.00  0.00    -0.362 OA
ATOM      8  H2  UNL     1      26.565  16.768  11.266  1.00  0.00     0.217 HD
ENDBRANCH   6   7
BRANCH   6   9
HETATM    9  C5  UNL     1      28.456  18.008  10.853  1.00  0.00     0.053 A
HETATM   10  C6  UNL     1      28.221  19.304  10.485  1.00  0.00     0.051 A
HETATM   11 CL1  UNL     1      27.371  19.730   9.016  1.00  0.00    -0.083 Cl
HETATM   12  C7  UNL     1      28.631  20.397  11.265  1.00  0.00     0.052 A
HETATM   13  C8  UNL     1      29.293  20.199  12.450  1.00  0.00     0.077 A
HETATM   14 CL2  UNL     1      29.808  21.578  13.432  1.00  0.00    -0.081 Cl
HETATM   15  C9  UNL     1      29.542  18.907  12.847  1.00  0.00     0.172 A
HETATM   16  F1  UNL     1      30.200  18.710  14.026  1.00  0.00    -0.201 F
HETATM   17  C10 UNL     1      29.134  17.852  12.068  1.00  0.00     0.120 A
BRANCH  17  18
HETATM   18  O3  UNL     1      29.442  16.577  12.572  1.00  0.00    -0.357 OA
ATOM     19  H3  UNL     1      29.442  16.403  13.506  1.00  0.00     0.218 HD
ENDBRANCH  17  18
ENDBRANCH   6   9
ENDBRANCH   1   6
BRANCH   1  20
HETATM   20  N1  UNL     1      29.282  14.882   9.326  1.00  0.00    -0.211 N
BRANCH  20  21
HETATM   21  N2  UNL     1      29.069  14.303  10.596  1.00  0.00    -0.327 N
ATOM     22  H22 UNL     1      28.175  13.826  10.710  1.00  0.00     0.178 HD
ATOM     23  H21 UNL     1      29.797  14.367  11.307  1.00  0.00     0.178 HD
ENDBRANCH  20  21
BRANCH  20  24
HETATM   24  N3  UNL     1      30.133  14.165   8.483  1.00  0.00    -0.228 N
HETATM   25  C11 UNL     1      30.918  14.738   7.419  1.00  0.00     0.201 C
HETATM   26  N4  UNL     1      30.219  12.918   8.670  1.00  0.00    -0.328 N
ATOM     27  H42 UNL     1      29.664  12.513   9.423  1.00  0.00     0.178 HD
ATOM     28  H41 UNL     1      30.841  12.395   8.054  1.00  0.00     0.178 HD
ENDBRANCH  20  24
ENDBRANCH   1  20
TORSDOF 9
ENDMDL