MODEL 2
REMARK VINA RESULT: -6.750745640      1.830      2.401
REMARK  6 active torsions:
REMARK  status: ('A' for Active; 'I' for Inactive)
REMARK    1  A    between atoms: C2_2  and  N1_3
REMARK    2  A    between atoms: C2_2  and  C6_14
REMARK    3  A    between atoms: N1_3  and  N2_4
REMARK       I    between atoms: N2_4  and  C3_6
REMARK    4  A    between atoms: C3_6  and  O2_8
REMARK    5  A    between atoms: O2_8  and  C4_9
REMARK    6  A    between atoms: C4_9  and  C5_10
ROOT
HETATM    1  C1  UNL     1      27.700  20.762   8.359  1.00  0.00     0.038 C
HETATM    2  C2  UNL     1      26.997  19.634   7.596  1.00  0.00     0.164 C
ENDROOT
BRANCH   2   3
HETATM    3  N1  UNL     1      27.183  18.398   8.296  1.00  0.00    -0.124 NA
BRANCH   3   4
HETATM    4  N2  UNL     1      27.625  18.626   9.573  1.00  0.00    -0.248 N
HETATM    5  C3  UNL     1      27.606  17.613  10.599  1.00  0.00     0.376 C
HETATM    6  O1  UNL     1      27.167  16.508  10.259  1.00  0.00    -0.237 OA
ATOM      7  H2  UNL     1      27.982  19.552   9.808  1.00  0.00     0.187 HD
BRANCH   5   8
HETATM    8  O2  UNL     1      28.024  17.803  11.861  1.00  0.00    -0.299 OA
BRANCH   8   9
HETATM    9  C4  UNL     1      29.141  18.401  12.321  1.00  0.00     0.239 C
BRANCH   9  10
HETATM   10  C5  UNL     1      29.114  19.700  13.025  1.00  0.00     0.210 C
HETATM   11 CL1  UNL     1      28.278  19.555  14.620  1.00  0.00    -0.081 Cl
HETATM   12 CL2  UNL     1      28.607  21.111  12.126  1.00  0.00    -0.081 Cl
HETATM   13 CL3  UNL     1      30.836  20.051  13.520  1.00  0.00    -0.081 Cl
ENDBRANCH   9  10
ENDBRANCH   8   9
ENDBRANCH   5   8
ENDBRANCH   3   4
ENDBRANCH   2   3
BRANCH   2  14
HETATM   14  C6  UNL     1      25.558  20.014   7.562  1.00  0.00     0.118 C
HETATM   15  N3  UNL     1      24.705  19.053   7.600  1.00  0.00    -0.253 N
HETATM   16  O3  UNL     1      23.303  19.165   7.581  1.00  0.00    -0.279 OA
ATOM     17  H3  UNL     1      25.086  18.108   7.650  1.00  0.00     0.195 HD
HETATM   18  C7  UNL     1      22.622  20.314   8.129  1.00  0.00     0.203 C
HETATM   19  C8  UNL     1      22.857  21.474   7.200  1.00  0.00     0.048 C
HETATM   20  C9  UNL     1      24.119  22.200   7.559  1.00  0.00     0.123 C
HETATM   21  N4  UNL     1      25.308  21.396   7.502  1.00  0.00    -0.377 N
ATOM     22  H4  UNL     1      26.159  21.950   7.396  1.00  0.00     0.160 HD
ENDBRANCH   2  14
TORSDOF 6
ENDMDL