MODEL 4
REMARK VINA RESULT: -7.762078846      5.304      7.835
REMARK  6 active torsions:
REMARK  status: ('A' for Active; 'I' for Inactive)
REMARK    1  A    between atoms: C2_2  and  C3_3
REMARK    2  A    between atoms: C3_3  and  C4_4
REMARK    3  A    between atoms: C4_4  and  O1_5
REMARK    4  A    between atoms: N1_7  and  O2_9
REMARK    5  A    between atoms: C7_13  and  C8_14
REMARK       I    between atoms: C8_14  and  N2_16
REMARK       I    between atoms: N2_16  and  C9_18
REMARK    6  A    between atoms: C9_18  and  C10_20
ROOT
HETATM    1  C1  UNL     1      27.158  14.199   9.288  1.00  0.00     0.027 C
HETATM    2  C2  UNL     1      27.896  15.212   8.456  1.00  0.00     0.011 C
HETATM    3  C5  UNL     1      29.180  15.676   9.066  1.00  0.00     0.021 C
HETATM    4  C6  UNL     1      29.032  16.136  10.476  1.00  0.00     0.016 C
HETATM    5  C7  UNL     1      28.013  17.178  10.722  1.00  0.00     0.087 C
HETATM    6  C11 UNL     1      27.596  17.927   9.478  1.00  0.00     0.088 C
HETATM    7  S1  UNL     1      26.806  16.692   8.376  1.00  0.00    -0.158 SA
ENDROOT
BRANCH   5   8
HETATM    8  C8  UNL     1      28.520  18.230  11.689  1.00  0.00     0.229 C
HETATM    9  O3  UNL     1      28.989  17.776  12.742  1.00  0.00    -0.273 OA
HETATM   10  N2  UNL     1      28.433  19.586  11.346  1.00  0.00    -0.290 N
HETATM   11  C9  UNL     1      28.846  20.687  12.094  1.00  0.00     0.332 C
ATOM     12  H2  UNL     1      28.017  19.792  10.438  1.00  0.00     0.172 HD
HETATM   13  O4  UNL     1      28.669  21.851  11.563  1.00  0.00    -0.263 OA
BRANCH  11  14
HETATM   14  C10 UNL     1      29.454  20.595  13.419  1.00  0.00     0.472 C
HETATM   15  F1  UNL     1      28.574  20.135  14.384  1.00  0.00    -0.162 F
HETATM   16  F2  UNL     1      30.605  19.847  13.478  1.00  0.00    -0.162 F
HETATM   17  F3  UNL     1      29.867  21.897  13.778  1.00  0.00    -0.162 F
ENDBRANCH  11  14
ENDBRANCH   5   8
BRANCH   2  18
HETATM   18  C3  UNL     1      28.021  14.719   7.060  1.00  0.00     0.106 C
BRANCH  18  19
HETATM   19  C4  UNL     1      29.226  13.960   6.751  1.00  0.00     0.136 C
HETATM   20  N1  UNL     1      29.990  14.380   5.813  1.00  0.00    -0.251 N
ATOM     21  H1  UNL     1      29.750  15.229   5.302  1.00  0.00     0.196 HD
BRANCH  19  22
HETATM   22  O1  UNL     1      29.614  12.796   7.402  1.00  0.00    -0.348 OA
ATOM     23  H1  UNL     1      29.017  12.123   7.707  1.00  0.00     0.219 HD
ENDBRANCH  19  22
BRANCH  20  24
HETATM   24  O2  UNL     1      31.126  13.691   5.498  1.00  0.00    -0.288 OA
ATOM     25  H2  UNL     1      31.977  14.081   5.656  1.00  0.00     0.244 HD
ENDBRANCH  20  24
ENDBRANCH  18  19
ENDBRANCH   2  18
TORSDOF 6
ENDMDL