MODEL 1
REMARK VINA RESULT: -6.667539806      0.000      0.000
REMARK  7 active torsions:
REMARK  status: ('A' for Active; 'I' for Inactive)
REMARK    1  A    between atoms: C4_4  and  C5_5
REMARK    2  A    between atoms: C5_5  and  N1_6
REMARK    3  A    between atoms: C5_5  and  N2_10
REMARK    4  A    between atoms: N3_12  and  C6_14
REMARK    5  A    between atoms: C6_14  and  C7_15
REMARK    6  A    between atoms: C6_14  and  C9_21
REMARK    7  A    between atoms: C7_15  and  C8_17
ROOT
HETATM    1  N2  UNL     1      28.199  16.620  10.830  1.00  0.00    -0.305 N
ATOM      2  H2  UNL     1      27.192  16.546  10.682  1.00  0.00     0.182 HD
HETATM    3  N3  UNL     1      28.914  15.664  10.484  1.00  0.00    -0.322 N
ATOM      4  H3  UNL     1      29.921  15.737  10.631  1.00  0.00     0.181 HD
ENDROOT
BRANCH   1   5
HETATM    5  C5  UNL     1      28.702  17.812  11.420  1.00  0.00     0.331 C
BRANCH   5   6
HETATM    6  C4  UNL     1      28.360  19.014  10.609  1.00  0.00     0.017 A
HETATM    7  C3  UNL     1      27.734  19.118   9.397  1.00  0.00     0.045 A
HETATM    8  C2  UNL     1      27.655  20.455   9.072  1.00  0.00     0.049 A
HETATM    9  C1  UNL     1      27.033  20.989   7.812  1.00  0.00     0.076 C
HETATM   10  O2  UNL     1      28.207  21.120  10.046  1.00  0.00    -0.327 OA
HETATM   11  C10 UNL     1      28.645  20.316  10.988  1.00  0.00     0.153 A
ENDBRANCH   5   6
BRANCH   5  12
HETATM   12  N1  UNL     1      28.202  18.043  12.752  1.00  0.00    -0.053 N
ATOM     13  H13 UNL     1      28.893  18.470  13.369  1.00  0.00     0.277 HD
ATOM     14  H12 UNL     1      27.509  18.789  12.796  1.00  0.00     0.277 HD
ATOM     15  H11 UNL     1      27.851  17.151  13.100  1.00  0.00     0.277 HD
ENDBRANCH   5  12
ENDBRANCH   1   5
BRANCH   3  16
HETATM   16  C6  UNL     1      28.406  14.478   9.897  1.00  0.00     0.228 C
BRANCH  16  17
HETATM   17  C7  UNL     1      28.992  13.228  10.496  1.00  0.00     0.192 C
HETATM   18  O1  UNL     1      30.247  13.089  10.505  1.00  0.00    -0.289 OA
BRANCH  17  19
HETATM   19  C8  UNL     1      28.186  12.169  11.066  1.00  0.00     0.133 C
HETATM   20  N4  UNL     1      27.926  12.085  12.333  1.00  0.00    -0.405 N
ATOM     21  H42 UNL     1      28.312  12.805  12.943  1.00  0.00     0.155 HD
ATOM     22  H41 UNL     1      27.358  11.338  12.736  1.00  0.00     0.155 HD
ENDBRANCH  17  19
ENDBRANCH  16  17
BRANCH  16  23
HETATM   23  C9  UNL     1      28.620  14.431   8.398  1.00  0.00     0.217 C
HETATM   24 CL1  UNL     1      28.442  12.776   7.777  1.00  0.00    -0.081 Cl
HETATM   25 CL2  UNL     1      27.322  15.403   7.616  1.00  0.00    -0.081 Cl
HETATM   26 CL3  UNL     1      30.205  15.067   7.947  1.00  0.00    -0.081 Cl
ENDBRANCH  16  23
ENDBRANCH   3  16
TORSDOF 7
ENDMDL