MODEL 1
REMARK VINA RESULT: -9.039801490      0.000      0.000
REMARK  5 active torsions:
REMARK  status: ('A' for Active; 'I' for Inactive)
REMARK    1  A    between atoms: C3_3  and  C4_4
REMARK    2  A    between atoms: N1_5  and  N2_7
REMARK       I    between atoms: N2_7  and  C5_9
REMARK       I    between atoms: C5_9  and  N3_11
REMARK    3  A    between atoms: N3_11  and  C6_13
REMARK    4  A    between atoms: C8_17  and  N4_18
REMARK    5  A    between atoms: C9_21  and  O4_22
ROOT
HETATM    1  C1  UNL     1      28.338  18.333  11.913  1.00  0.00     0.051 C
HETATM    2  C2  UNL     1      28.009  18.842  10.556  1.00  0.00    -0.026 A
HETATM    3  C3  UNL     1      28.106  20.201  10.343  1.00  0.00    -0.009 A
HETATM    4  C7  UNL     1      27.800  20.656   9.090  1.00  0.00     0.052 A
HETATM    5  C8  UNL     1      27.399  19.791   8.048  1.00  0.00     0.138 A
HETATM    6  C9  UNL     1      27.324  18.452   8.325  1.00  0.00     0.121 A
HETATM    7  C10 UNL     1      27.630  17.957   9.598  1.00  0.00     0.076 A
HETATM    8 CL1  UNL     1      27.514  16.242   9.889  1.00  0.00    -0.081 Cl
ENDROOT
BRANCH   3   9
HETATM    9  C4  UNL     1      28.514  21.124  11.393  1.00  0.00     0.119 C
HETATM   10  N1  UNL     1      29.270  20.682  12.331  1.00  0.00    -0.307 N
ATOM     11  H1  UNL     1      29.571  19.707  12.330  1.00  0.00     0.186 HD
BRANCH  10  12
HETATM   12  N2  UNL     1      29.675  21.536  13.347  1.00  0.00    -0.252 N
HETATM   13  C5  UNL     1      29.283  21.199  14.678  1.00  0.00     0.338 C
HETATM   14  O1  UNL     1      28.601  20.171  14.911  1.00  0.00    -0.245 OA
HETATM   15  N3  UNL     1      29.674  22.042  15.738  1.00  0.00    -0.286 N
ATOM     16  H3  UNL     1      30.228  22.879  15.557  1.00  0.00     0.169 HD
ATOM     17  H2  UNL     1      30.230  22.369  13.151  1.00  0.00     0.191 HD
BRANCH  15  18
HETATM   18  C6  UNL     1      29.274  21.698  17.105  1.00  0.00     0.462 C
HETATM   19  F1  UNL     1      30.357  21.775  17.945  1.00  0.00    -0.191 F
HETATM   20  F2  UNL     1      28.300  22.600  17.494  1.00  0.00    -0.191 F
ENDBRANCH  15  18
ENDBRANCH  10  12
ENDBRANCH   3   9
BRANCH   5  21
HETATM   21  N4  UNL     1      27.103  20.335   6.779  1.00  0.00    -0.113 N
HETATM   22  O2  UNL     1      27.124  19.768   5.703  1.00  0.00    -0.532 OA
HETATM   23  O3  UNL     1      26.713  21.676   6.760  1.00  0.00    -0.532 OA
ENDBRANCH   5  21
BRANCH   6  24
HETATM   24  O4  UNL     1      26.951  17.516   7.394  1.00  0.00    -0.357 OA
ATOM     25  H4  UNL     1      27.576  16.991   6.907  1.00  0.00     0.218 HD
ENDBRANCH   6  24
TORSDOF 5
ENDMDL