MODEL 5
REMARK VINA RESULT: -7.775605255      3.166      4.376
REMARK  3 active torsions:
REMARK  status: ('A' for Active; 'I' for Inactive)
REMARK    1  A    between atoms: C3_3  and  C4_4
REMARK    2  A    between atoms: C3_3  and  C7_12
REMARK    3  A    between atoms: C8_17  and  C9_18
ROOT
HETATM    1  C7  UNL     1      28.674  15.836  10.279  1.00  0.00     0.176 A
HETATM    2  N3  UNL     1      27.367  16.011  10.569  1.00  0.00    -0.277 N
ATOM      3  H3  UNL     1      26.629  15.309  10.512  1.00  0.00     0.189 HD
HETATM    4  N4  UNL     1      27.233  17.270  10.944  1.00  0.00    -0.276 N
ATOM      5  H4  UNL     1      26.358  17.709  11.229  1.00  0.00     0.189 HD
HETATM    6  C8  UNL     1      28.416  17.879  10.892  1.00  0.00     0.189 A
HETATM    7  O2  UNL     1      29.262  16.971  10.483  1.00  0.00    -0.272 OA
ENDROOT
BRANCH   1   8
HETATM    8  C3  UNL     1      29.229  14.558   9.823  1.00  0.00     0.041 C
HETATM    9  C2  UNL     1      29.365  14.344   8.505  1.00  0.00    -0.013 C
HETATM   10  C1  UNL     1      28.937  15.375   7.525  1.00  0.00     0.037 C
BRANCH   8  11
HETATM   11  C4  UNL     1      29.659  13.524  10.742  1.00  0.00     0.066 A
HETATM   12  C5  UNL     1      29.984  12.212  10.360  1.00  0.00     0.123 A
HETATM   13  N1  UNL     1      30.359  11.516  11.471  1.00  0.00    -0.317 N
HETATM   14  C6  UNL     1      30.281  12.320  12.507  1.00  0.00     0.324 A
ATOM     15  H1  UNL     1      30.649  10.539  11.494  1.00  0.00     0.170 HD
HETATM   16  O1  UNL     1      30.541  12.066  13.723  1.00  0.00    -0.247 OA
HETATM   17  N2  UNL     1      29.855  13.538  12.054  1.00  0.00    -0.306 N
ATOM     18  H2  UNL     1      29.706  14.353  12.649  1.00  0.00     0.170 HD
ENDBRANCH   8  11
ENDBRANCH   1   8
BRANCH   6  19
HETATM   19  C9  UNL     1      28.626  19.258  11.235  1.00  0.00     0.120 C
HETATM   20 CL1  UNL     1      28.260  20.461  10.019  1.00  0.00    -0.077 Cl
HETATM   21  C10 UNL     1      29.049  19.624  12.393  1.00  0.00     0.129 C
HETATM   22 CL2  UNL     1      29.390  18.420  13.614  1.00  0.00    -0.069 Cl
HETATM   23 CL3  UNL     1      29.329  21.298  12.863  1.00  0.00    -0.069 Cl
ENDBRANCH   6  19
TORSDOF 3
ENDMDL