MODEL 4
REMARK VINA RESULT: -6.673190405      1.727      1.975
REMARK  7 active torsions:
REMARK  status: ('A' for Active; 'I' for Inactive)
REMARK    1  A    between atoms: C2_2  and  N1_3
REMARK    2  A    between atoms: C2_2  and  C9_18
REMARK       I    between atoms: N1_3  and  C3_5
REMARK    3  A    between atoms: C3_5  and  C4_7
REMARK    4  A    between atoms: C4_7  and  O2_8
REMARK    5  A    between atoms: O2_8  and  C5_9
REMARK    6  A    between atoms: C7_11  and  O3_12
REMARK    7  A    between atoms: C8_15  and  O5_16
ROOT
HETATM    1  C4  UNL     1      26.473  20.725   8.077  1.00  0.00     0.278 C
ENDROOT
BRANCH   1   2
HETATM    2  C3  UNL     1      27.446  19.965   8.896  1.00  0.00     0.242 C
HETATM    3  N1  UNL     1      27.270  18.563   9.056  1.00  0.00    -0.351 N
ATOM      4  H1  UNL     1      26.476  18.110   8.604  1.00  0.00     0.163 HD
HETATM    5  O1  UNL     1      28.407  20.545   9.439  1.00  0.00    -0.271 OA
BRANCH   3   6
HETATM    6  C2  UNL     1      28.181  17.760   9.841  1.00  0.00     0.134 C
HETATM    7  C1  UNL     1      27.905  17.863  11.324  1.00  0.00     0.036 C
BRANCH   6   8
HETATM    8  C9  UNL     1      28.015  16.312   9.418  1.00  0.00     0.208 C
HETATM    9 CL1  UNL     1      29.405  15.416  10.092  1.00  0.00    -0.082 Cl
HETATM   10 CL2  UNL     1      28.209  16.281   7.637  1.00  0.00    -0.082 Cl
HETATM   11 CL3  UNL     1      26.492  15.615   9.930  1.00  0.00    -0.082 Cl
ENDBRANCH   6   8
ENDBRANCH   3   6
ENDBRANCH   1   2
BRANCH   1  12
HETATM   12  O2  UNL     1      25.588  19.890   7.379  1.00  0.00    -0.337 OA
BRANCH  12  13
HETATM   13  C5  UNL     1      24.223  20.121   7.484  1.00  0.00     0.132 A
HETATM   14  C6  UNL     1      23.568  21.323   7.416  1.00  0.00     0.105 A
HETATM   15  C7  UNL     1      22.233  21.081   7.570  1.00  0.00     0.188 A
HETATM   16  O4  UNL     1      22.075  19.795   7.725  1.00  0.00    -0.262 OA
HETATM   17  C8  UNL     1      23.219  19.172   7.683  1.00  0.00     0.220 A
BRANCH  15  18
HETATM   18  O3  UNL     1      21.210  22.033   7.564  1.00  0.00    -0.341 OA
ATOM     19  H3  UNL     1      20.551  22.157   8.236  1.00  0.00     0.220 HD
ENDBRANCH  15  18
BRANCH  17  20
HETATM   20  O5  UNL     1      23.428  17.814   7.811  1.00  0.00    -0.339 OA
ATOM     21  H5  UNL     1      23.318  17.177   7.114  1.00  0.00     0.220 HD
ENDBRANCH  17  20
ENDBRANCH  12  13
ENDBRANCH   1  12
TORSDOF 7
ENDMDL