MODEL 3
REMARK VINA RESULT: -8.084306540      0.836      1.119
REMARK  7 active torsions:
REMARK  status: ('A' for Active; 'I' for Inactive)
REMARK    1  A    between atoms: C2_2  and  C4_4
REMARK    2  A    between atoms: C4_4  and  O2_6
REMARK    3  A    between atoms: O2_6  and  N1_7
REMARK       I    between atoms: N1_7  and  C5_8
REMARK    4  A    between atoms: C5_8  and  C6_10
REMARK    5  A    between atoms: C7_11  and  O4_12
REMARK    6  A    between atoms: O4_12  and  C8_13
REMARK    7  A    between atoms: C11_21  and  O5_22
ROOT
HETATM    1  C6  UNL     1      28.146  18.992  10.525  1.00  0.00     0.135 A
HETATM    2  C7  UNL     1      27.477  18.830   9.285  1.00  0.00     0.114 A
HETATM    3  C10 UNL     1      27.230  17.427   9.151  1.00  0.00     0.128 A
HETATM    4  N2  UNL     1      27.712  16.837  10.220  1.00  0.00    -0.343 N
ATOM      5  H2  UNL     1      27.678  15.834  10.400  1.00  0.00     0.167 HD
HETATM    6  C11 UNL     1      28.269  17.770  11.063  1.00  0.00     0.160 A
ENDROOT
BRANCH   1   7
HETATM    7  C5  UNL     1      28.560  20.328  11.061  1.00  0.00     0.361 C
HETATM    8  N1  UNL     1      29.010  20.462  12.333  1.00  0.00    -0.227 NA
HETATM    9  O3  UNL     1      28.438  21.251  10.213  1.00  0.00    -0.248 OA
BRANCH   8  10
HETATM   10  O2  UNL     1      29.440  20.590  13.546  1.00  0.00    -0.118 OA
BRANCH  10  11
HETATM   11  C4  UNL     1      29.204  19.845  14.664  1.00  0.00     0.324 C
HETATM   12  O1  UNL     1      29.638  18.667  14.677  1.00  0.00    -0.256 OA
BRANCH  11  13
HETATM   13  C2  UNL     1      28.476  20.358  15.829  1.00  0.00     0.007 C
HETATM   14  C1  UNL     1      27.411  19.724  16.251  1.00  0.00     0.025 C
HETATM   15  C3  UNL     1      28.927  21.574  16.546  1.00  0.00     0.054 C
ENDBRANCH  11  13
ENDBRANCH  10  11
ENDBRANCH   8  10
ENDBRANCH   1   7
BRANCH   2  16
HETATM   16  O4  UNL     1      27.162  19.764   8.442  1.00  0.00    -0.291 OA
BRANCH  16  17
HETATM   17  C8  UNL     1      26.852  20.681   7.615  1.00  0.00     0.214 C
HETATM   18 CL1  UNL     1      28.050  21.812   6.865  1.00  0.00    -0.051 Cl
HETATM   19  C9  UNL     1      25.599  20.916   7.206  1.00  0.00     0.312 C
HETATM   20  F1  UNL     1      24.587  20.204   7.636  1.00  0.00    -0.169 F
HETATM   21  F2  UNL     1      25.400  21.894   6.278  1.00  0.00    -0.169 F
ENDBRANCH  16  17
ENDBRANCH   2  16
BRANCH   6  22
HETATM   22  O5  UNL     1      28.881  17.405  12.296  1.00  0.00    -0.345 OA
ATOM     23  H5  UNL     1      29.073  16.534  12.624  1.00  0.00     0.219 HD
ENDBRANCH   6  22
TORSDOF 7
ENDMDL