MODEL 1
REMARK VINA RESULT: -6.481281475      0.000      0.000
REMARK  5 active torsions:
REMARK  status: ('A' for Active; 'I' for Inactive)
REMARK    1  A    between atoms: C2_2  and  C3_3
REMARK    2  A    between atoms: C2_2  and  C4_6
REMARK    3  A    between atoms: C4_6  and  N1_8
REMARK    4  A    between atoms: N2_10  and  C5_12
REMARK    5  A    between atoms: C6_14  and  N3_15
ROOT
HETATM    1  N1  UNL     1      26.984  16.619  10.526  1.00  0.00    -0.316 N
ATOM      2  H1  UNL     1      26.331  16.905  11.255  1.00  0.00     0.182 HD
HETATM    3  N2  UNL     1      26.972  15.420  10.141  1.00  0.00    -0.294 N
ATOM      4  H2  UNL     1      26.306  14.782  10.576  1.00  0.00     0.187 HD
ENDROOT
BRANCH   3   5
HETATM    5  C5  UNL     1      27.846  14.899   9.119  1.00  0.00     0.133 A
HETATM    6  S1  UNL     1      27.598  14.744   7.439  1.00  0.00    -0.032 SA
HETATM    7  C6  UNL     1      29.101  14.059   7.028  1.00  0.00     0.145 A
HETATM    8  N4  UNL     1      29.734  13.977   8.205  1.00  0.00    -0.323 N
HETATM    9  C7  UNL     1      29.112  14.398   9.270  1.00  0.00     0.153 A
ATOM     10  H4  UNL     1      30.677  13.595   8.266  1.00  0.00     0.169 HD
HETATM   11  N5  UNL     1      29.707  14.356  10.602  1.00  0.00    -0.080 NA
BRANCH   7  12
HETATM   12  N3  UNL     1      29.566  13.685   5.851  1.00  0.00    -0.380 N
ATOM     13  H32 UNL     1      30.111  14.251   5.200  1.00  0.00     0.158 HD
ATOM     14  H31 UNL     1      29.482  12.790   5.369  1.00  0.00     0.158 HD
ENDBRANCH   7  12
ENDBRANCH   3   5
BRANCH   1  15
HETATM   15  C4  UNL     1      27.880  17.600   9.978  1.00  0.00     0.204 C
HETATM   16 BR1  UNL     1      26.998  18.450   8.465  1.00  0.00    -0.062 Br
BRANCH  15  17
HETATM   17  C2  UNL     1      28.274  18.617  10.988  1.00  0.00     0.009 C
HETATM   18  C1  UNL     1      28.447  19.875  10.653  1.00  0.00     0.023 C
BRANCH  17  19
HETATM   19  C3  UNL     1      28.468  18.170  12.388  1.00  0.00     0.384 C
HETATM   20  F1  UNL     1      28.284  19.219  13.280  1.00  0.00    -0.209 F
HETATM   21  F2  UNL     1      29.750  17.672  12.507  1.00  0.00    -0.209 F
ENDBRANCH  17  19
ENDBRANCH  15  17
ENDBRANCH   1  15
TORSDOF 5
ENDMDL