MODEL 3
REMARK VINA RESULT: -7.196785295      3.651      4.826
REMARK  7 active torsions:
REMARK  status: ('A' for Active; 'I' for Inactive)
REMARK    1  A    between atoms: C2_2  and  O1_3
REMARK    2  A    between atoms: O1_3  and  C3_4
REMARK    3  A    between atoms: C3_4  and  C4_6
REMARK    4  A    between atoms: C9_13  and  C10_14
REMARK    5  A    between atoms: C13_20  and  C14_21
REMARK    6  A    between atoms: C14_21  and  S2_22
REMARK    7  A    between atoms: S2_22  and  C15_23
ROOT
HETATM    1  C10 UNL     1     -31.625 -16.625  59.999  1.00  0.00    -0.009 A
HETATM    2  C11 UNL     1     -31.863 -15.472  60.784  1.00  0.00     0.096 A
HETATM    3  N1  UNL     1     -32.868 -14.441  60.570  1.00  0.00    -0.094 NA
HETATM    4  S1  UNL     1     -30.548 -15.383  61.847  1.00  0.00    -0.062 SA
HETATM    5  C12 UNL     1     -29.688 -16.740  61.328  1.00  0.00     0.084 A
HETATM    6 CL1  UNL     1     -28.253 -17.447  62.086  1.00  0.00    -0.076 Cl
HETATM    7  C13 UNL     1     -30.441 -17.225  60.332  1.00  0.00    -0.010 A
ENDROOT
BRANCH   1   8
HETATM    8  C9  UNL     1     -32.623 -17.026  58.920  1.00  0.00     0.062 C
HETATM    9  C5  UNL     1     -33.840 -17.715  59.408  1.00  0.00    -0.041 C
HETATM   10  C4  UNL     1     -33.988 -18.635  60.440  1.00  0.00     0.088 C
HETATM   11  C6  UNL     1     -34.625 -18.110  58.160  1.00  0.00     0.213 C
HETATM   12  O3  UNL     1     -34.058 -19.342  57.711  1.00  0.00    -0.317 OA
HETATM   13  C7  UNL     1     -32.682 -19.400  57.913  1.00  0.00     0.260 C
HETATM   14  O4  UNL     1     -32.101 -20.509  57.989  1.00  0.00    -0.265 OA
HETATM   15  C8  UNL     1     -31.898 -18.131  58.056  1.00  0.00     0.125 C
BRANCH  10  16
HETATM   16  C3  UNL     1     -35.412 -18.640  60.911  1.00  0.00     0.283 C
HETATM   17  O2  UNL     1     -36.269 -19.482  60.526  1.00  0.00    -0.260 OA
BRANCH  16  18
HETATM   18  O1  UNL     1     -35.936 -17.700  61.839  1.00  0.00    -0.319 OA
BRANCH  18  19
HETATM   19  C2  UNL     1     -35.101 -17.083  62.811  1.00  0.00     0.174 C
HETATM   20  C1  UNL     1     -34.671 -17.972  63.922  1.00  0.00     0.034 C
ENDBRANCH  18  19
ENDBRANCH  16  18
ENDBRANCH  10  16
ENDBRANCH   1   8
BRANCH   7  21
HETATM   21  C14 UNL     1     -29.684 -18.140  59.301  1.00  0.00     0.123 C
BRANCH  21  22
HETATM   22  S2  UNL     1     -29.282 -19.733  60.006  1.00  0.00    -0.099 SA
BRANCH  22  23
HETATM   23  C15 UNL     1     -27.689 -20.375  60.021  1.00  0.00     0.130 A
HETATM   24  N2  UNL     1     -26.523 -20.076  60.528  1.00  0.00    -0.286 N
HETATM   25  N3  UNL     1     -25.479 -20.791  60.401  1.00  0.00    -0.279 N
ATOM     26  H2  UNL     1     -26.444 -19.210  61.063  1.00  0.00     0.188 HD
HETATM   27  C16 UNL     1     -25.614 -21.937  59.691  1.00  0.00     0.159 A
ATOM     28  H3  UNL     1     -24.586 -20.517  60.813  1.00  0.00     0.189 HD
HETATM   29  N4  UNL     1     -24.675 -22.805  59.489  1.00  0.00    -0.379 N
HETATM   30  S3  UNL     1     -27.251 -21.923  59.239  1.00  0.00    -0.027 SA
ATOM     31  H42 UNL     1     -23.692 -22.814  59.760  1.00  0.00     0.158 HD
ATOM     32  H41 UNL     1     -24.777 -23.667  58.954  1.00  0.00     0.158 HD
ENDBRANCH  22  23
ENDBRANCH  21  22
ENDBRANCH   7  21
TORSDOF 7
ENDMDL