MODEL 3
REMARK VINA RESULT: -7.730642738      1.742      2.104
REMARK  8 active torsions:
REMARK  status: ('A' for Active; 'I' for Inactive)
REMARK    1  A    between atoms: C2_2  and  C3_6
REMARK    2  A    between atoms: C3_6  and  C4_7
REMARK    3  A    between atoms: N3_10  and  C5_11
REMARK    4  A    between atoms: N8_24  and  C9_25
REMARK    5  A    between atoms: C11_27  and  N9_28
REMARK    6  A    between atoms: C14_35  and  O2_36
REMARK    7  A    between atoms: O2_36  and  C15_37
REMARK    8  A    between atoms: C15_37  and  C16_38
ROOT
HETATM    1  C5  UNL     1     -30.088 -20.306  59.881  1.00  0.00     0.164 A
HETATM    2  N4  UNL     1     -29.644 -19.279  60.626  1.00  0.00    -0.315 N
ATOM      3  H4  UNL     1     -30.318 -18.600  60.979  1.00  0.00     0.170 HD
HETATM    4  C6  UNL     1     -28.337 -19.113  60.924  1.00  0.00     0.182 A
HETATM    5 CL1  UNL     1     -27.822 -17.744  61.904  1.00  0.00    -0.045 Cl
HETATM    6  N5  UNL     1     -27.422 -19.978  60.481  1.00  0.00    -0.315 N
ATOM      7  H5  UNL     1     -26.438 -19.838  60.713  1.00  0.00     0.170 HD
HETATM    8  C7  UNL     1     -27.782 -21.015  59.741  1.00  0.00     0.160 A
HETATM    9  C8  UNL     1     -29.135 -21.194  59.429  1.00  0.00     0.141 A
HETATM   10  N6  UNL     1     -29.159 -22.317  58.680  1.00  0.00    -0.279 N
ATOM     11  H6  UNL     1     -29.997 -22.740  58.278  1.00  0.00     0.189 HD
HETATM   12  N7  UNL     1     -27.933 -22.784  58.547  1.00  0.00    -0.236 N
ATOM     13  H7  UNL     1     -27.683 -23.624  58.026  1.00  0.00     0.208 HD
HETATM   14  N8  UNL     1     -27.068 -22.003  59.188  1.00  0.00    -0.230 N
ENDROOT
BRANCH   1  15
HETATM   15  N3  UNL     1     -31.445 -20.527  59.543  1.00  0.00    -0.213 N
HETATM   16  N2  UNL     1     -32.331 -21.463  59.820  1.00  0.00    -0.290 N
HETATM   17  C4  UNL     1     -33.275 -20.840  59.096  1.00  0.00     0.084 A
ATOM     18  H2  UNL     1     -32.308 -22.323  60.369  1.00  0.00     0.187 HD
HETATM   19  C14 UNL     1     -32.364 -19.848  58.791  1.00  0.00     0.190 A
BRANCH  17  20
HETATM   20  C3  UNL     1     -34.677 -21.167  58.800  1.00  0.00     0.114 C
BRANCH  20  21
HETATM   21  C2  UNL     1     -35.527 -20.923  59.992  1.00  0.00    -0.018 C
HETATM   22  C1  UNL     1     -35.667 -19.519  60.535  1.00  0.00     0.063 C
HETATM   23  N1  UNL     1     -36.161 -21.834  60.617  1.00  0.00    -0.406 N
ATOM     24  H12 UNL     1     -36.746 -21.666  61.436  1.00  0.00     0.155 HD
ATOM     25  H11 UNL     1     -36.067 -22.781  60.250  1.00  0.00     0.155 HD
ENDBRANCH  20  21
ENDBRANCH  17  20
BRANCH  19  26
HETATM   26  O2  UNL     1     -32.358 -18.678  58.058  1.00  0.00    -0.333 OA
BRANCH  26  27
HETATM   27  C15 UNL     1     -32.115 -17.450  58.652  1.00  0.00     0.182 C
BRANCH  27  28
HETATM   28  C16 UNL     1     -33.048 -17.115  59.783  1.00  0.00     0.010 C
HETATM   29  C17 UNL     1     -33.949 -15.983  59.334  1.00  0.00     0.007 C
HETATM   30  C18 UNL     1     -35.078 -15.901  60.348  1.00  0.00     0.005 C
HETATM   31  C19 UNL     1     -34.560 -15.686  61.728  1.00  0.00    -0.019 C
HETATM   32  C20 UNL     1     -34.279 -14.210  61.934  1.00  0.00     0.010 C
HETATM   33  C21 UNL     1     -33.414 -16.556  62.116  1.00  0.00     0.005 C
HETATM   34  C22 UNL     1     -32.353 -16.668  61.030  1.00  0.00     0.007 C
ENDBRANCH  27  28
ENDBRANCH  26  27
ENDBRANCH  19  26
ENDBRANCH   1  15
BRANCH  14  35
HETATM   35  C9  UNL     1     -25.642 -22.193  59.270  1.00  0.00     0.250 C
HETATM   36  C10 UNL     1     -25.004 -22.646  58.000  1.00  0.00     0.091 C
HETATM   37  C11 UNL     1     -23.523 -22.328  58.250  1.00  0.00     0.216 C
HETATM   38  C12 UNL     1     -23.621 -21.437  59.464  1.00  0.00     0.150 C
HETATM   39  C13 UNL     1     -22.646 -20.311  59.487  1.00  0.00     0.042 C
HETATM   40  O1  UNL     1     -24.953 -20.994  59.524  1.00  0.00    -0.358 OA
BRANCH  37  41
HETATM   41  N9  UNL     1     -22.914 -21.641  57.156  1.00  0.00    -0.072 N
ATOM     42  H93 UNL     1     -22.054 -21.177  57.450  1.00  0.00     0.274 HD
ATOM     43  H92 UNL     1     -22.524 -22.299  56.481  1.00  0.00     0.274 HD
ATOM     44  H91 UNL     1     -23.547 -20.983  56.702  1.00  0.00     0.274 HD
ENDBRANCH  37  41
ENDBRANCH  14  35
TORSDOF 8
ENDMDL