MODEL 1
REMARK VINA RESULT: -6.985438362      0.000      0.000
REMARK  10 active torsions:
REMARK  status: ('A' for Active; 'I' for Inactive)
REMARK    1  A    between atoms: C4_4  and  S1_5
REMARK    2  A    between atoms: S1_5  and  C5_6
REMARK    3  A    between atoms: C5_6  and  C6_7
REMARK    4  A    between atoms: N1_10  and  C9_11
REMARK    5  A    between atoms: C9_11  and  N2_12
REMARK    6  A    between atoms: N2_12  and  C10_14
REMARK    7  A    between atoms: C10_14  and  N3_16
REMARK    8  A    between atoms: N3_16  and  N4_18
REMARK    9  A    between atoms: N5_23  and  N6_24
REMARK   10  A    between atoms: C12_27  and  N7_28
ROOT
HETATM    1  C6  UNL     1     -34.221 -19.486  58.583  1.00  0.00     0.068 A
HETATM    2  C7  UNL     1     -34.681 -19.306  59.905  1.00  0.00     0.037 A
HETATM    3  C8  UNL     1     -33.846 -19.895  61.023  1.00  0.00     0.070 C
HETATM    4  N1  UNL     1     -35.821 -18.670  59.916  1.00  0.00    -0.308 N
HETATM    5  C11 UNL     1     -36.160 -18.410  58.665  1.00  0.00     0.201 A
HETATM    6  S3  UNL     1     -37.496 -17.609  58.180  1.00  0.00    -0.038 SA
HETATM    7  N5  UNL     1     -35.159 -18.916  57.851  1.00  0.00    -0.238 N
ENDROOT
BRANCH   1   8
HETATM    8  C5  UNL     1     -32.899 -20.088  58.287  1.00  0.00     0.141 C
BRANCH   8   9
HETATM    9  S1  UNL     1     -31.517 -19.173  58.188  1.00  0.00    -0.121 SA
BRANCH   9  10
HETATM   10  C4  UNL     1     -30.553 -18.405  59.335  1.00  0.00     0.034 A
HETATM   11  C3  UNL     1     -30.839 -17.109  59.774  1.00  0.00     0.029 A
HETATM   12  C2  UNL     1     -30.192 -16.515  60.825  1.00  0.00    -0.039 A
HETATM   13  C1  UNL     1     -30.602 -15.143  61.214  1.00  0.00     0.050 C
HETATM   14  C14 UNL     1     -29.196 -17.231  61.494  1.00  0.00     0.042 A
HETATM   15  C13 UNL     1     -28.903 -18.478  61.093  1.00  0.00     0.061 A
HETATM   16 CL1  UNL     1     -28.420 -16.428  62.862  1.00  0.00    -0.084 Cl
HETATM   17  C12 UNL     1     -29.546 -19.107  60.022  1.00  0.00     0.121 A
BRANCH  17  18
HETATM   18  N7  UNL     1     -29.156 -20.421  59.745  1.00  0.00    -0.114 N
HETATM   19  O3  UNL     1     -28.183 -20.824  59.193  1.00  0.00    -0.532 OA
HETATM   20  O4  UNL     1     -29.984 -21.423  60.253  1.00  0.00    -0.532 OA
ENDBRANCH  17  18
ENDBRANCH   9  10
ENDBRANCH   8   9
ENDBRANCH   1   8
BRANCH   7  21
HETATM   21  N6  UNL     1     -35.138 -18.735  56.464  1.00  0.00    -0.336 N
ATOM     22  H62 UNL     1     -34.401 -18.221  55.980  1.00  0.00     0.177 HD
ATOM     23  H61 UNL     1     -35.786 -19.142  55.788  1.00  0.00     0.177 HD
ENDBRANCH   7  21
BRANCH   4  24
HETATM   24  C9  UNL     1     -36.526 -18.298  61.207  1.00  0.00     0.256 C
BRANCH  24  25
HETATM   25  N2  UNL     1     -36.014 -17.035  61.549  1.00  0.00    -0.349 N
ATOM     26  H2  UNL     1     -36.452 -16.261  61.050  1.00  0.00     0.163 HD
BRANCH  25  27
HETATM   27  C10 UNL     1     -35.038 -16.648  62.425  1.00  0.00     0.192 C
HETATM   28  S2  UNL     1     -34.653 -17.721  63.705  1.00  0.00    -0.039 SA
BRANCH  27  29
HETATM   29  N3  UNL     1     -34.327 -15.444  62.447  1.00  0.00    -0.216 N
ATOM     30  H3  UNL     1     -33.555 -15.384  63.111  1.00  0.00     0.195 HD
BRANCH  29  31
HETATM   31  N4  UNL     1     -34.555 -14.332  61.672  1.00  0.00    -0.037 N
HETATM   32  O1  UNL     1     -34.548 -14.393  60.426  1.00  0.00    -0.516 OA
HETATM   33  O2  UNL     1     -34.910 -13.138  62.317  1.00  0.00    -0.516 OA
ENDBRANCH  29  31
ENDBRANCH  27  29
ENDBRANCH  25  27
ENDBRANCH  24  25
ENDBRANCH   4  24
TORSDOF 10
ENDMDL