MODEL 3
REMARK VINA RESULT: -6.831164469      1.767      2.927
REMARK  13 active torsions:
REMARK  status: ('A' for Active; 'I' for Inactive)
REMARK    1  A    between atoms: C2_2  and  O1_3
REMARK    2  A    between atoms: O1_3  and  C3_4
REMARK    3  A    between atoms: C3_4  and  C4_6
REMARK    4  A    between atoms: C5_7  and  N1_8
REMARK    5  A    between atoms: C6_10  and  C7_11
REMARK    6  A    between atoms: C8_12  and  O3_13
REMARK    7  A    between atoms: C10_16  and  O4_17
REMARK    8  A    between atoms: C13_21  and  O5_22
REMARK    9  A    between atoms: C16_27  and  C17_28
REMARK   10  A    between atoms: C17_28  and  O8_30
REMARK   11  A    between atoms: C19_32  and  C20_33
REMARK   12  A    between atoms: C20_33  and  O10_35
REMARK   13  A    between atoms: O10_35  and  C21_36
ROOT
HETATM    1  C4  UNL     1     -32.994 -16.705  60.154  1.00  0.00     0.110 A
HETATM    2  C5  UNL     1     -32.292 -17.250  59.113  1.00  0.00     0.166 A
HETATM    3  O6  UNL     1     -33.042 -17.323  58.060  1.00  0.00    -0.285 OA
HETATM    4  C16 UNL     1     -34.277 -16.842  58.313  1.00  0.00     0.170 A
HETATM    5  C19 UNL     1     -34.270 -16.448  59.625  1.00  0.00     0.100 A
ENDROOT
BRANCH   2   6
HETATM    6  N1  UNL     1     -30.939 -17.663  59.208  1.00  0.00    -0.345 N
HETATM    7  C6  UNL     1     -30.563 -18.754  59.764  1.00  0.00     0.105 C
ATOM      8  H1  UNL     1     -30.223 -17.056  58.809  1.00  0.00     0.167 HD
BRANCH   7   9
HETATM    9  C7  UNL     1     -29.202 -19.226  59.889  1.00  0.00     0.022 A
HETATM   10  C8  UNL     1     -28.344 -18.507  60.707  1.00  0.00     0.080 A
HETATM   11  C9  UNL     1     -27.040 -18.982  60.819  1.00  0.00     0.074 A
HETATM   12  C10 UNL     1     -26.620 -20.107  60.155  1.00  0.00     0.075 A
HETATM   13  C11 UNL     1     -27.471 -20.822  59.342  1.00  0.00    -0.015 A
HETATM   14  C12 UNL     1     -28.767 -20.377  59.211  1.00  0.00    -0.006 A
HETATM   15  C15 UNL     1     -27.259 -22.057  58.533  1.00  0.00     0.045 C
HETATM   16  C13 UNL     1     -29.529 -21.261  58.299  1.00  0.00     0.153 C
HETATM   17  C14 UNL     1     -28.443 -22.073  57.622  1.00  0.00     0.041 C
BRANCH  10  18
HETATM   18  O3  UNL     1     -28.697 -17.367  61.406  1.00  0.00    -0.360 OA
ATOM     19  H3  UNL     1     -29.408 -17.318  62.034  1.00  0.00     0.217 HD
ENDBRANCH  10  18
BRANCH  12  20
HETATM   20  O4  UNL     1     -25.301 -20.556  60.292  1.00  0.00    -0.360 OA
ATOM     21  H4  UNL     1     -25.091 -21.237  60.919  1.00  0.00     0.217 HD
ENDBRANCH  12  20
BRANCH  16  22
HETATM   22  O5  UNL     1     -30.358 -22.057  59.073  1.00  0.00    -0.391 OA
ATOM     23  H5  UNL     1     -29.925 -22.208  59.906  1.00  0.00     0.210 HD
ENDBRANCH  16  22
ENDBRANCH   7   9
ENDBRANCH   2   6
BRANCH   1  24
HETATM   24  C3  UNL     1     -32.585 -16.430  61.506  1.00  0.00     0.298 C
HETATM   25  O2  UNL     1     -31.492 -15.813  61.699  1.00  0.00    -0.259 OA
BRANCH  24  26
HETATM   26  O1  UNL     1     -33.298 -16.787  62.640  1.00  0.00    -0.318 OA
BRANCH  26  27
HETATM   27  C2  UNL     1     -33.885 -18.089  62.782  1.00  0.00     0.174 C
HETATM   28  C1  UNL     1     -34.915 -17.970  63.883  1.00  0.00     0.034 C
ENDBRANCH  26  27
ENDBRANCH  24  26
ENDBRANCH   1  24
BRANCH   5  29
HETATM   29  C20 UNL     1     -35.343 -15.866  60.387  1.00  0.00     0.297 C
HETATM   30  O9  UNL     1     -35.314 -14.590  60.582  1.00  0.00    -0.259 OA
BRANCH  29  31
HETATM   31  O10 UNL     1     -36.423 -16.480  60.955  1.00  0.00    -0.318 OA
BRANCH  31  32
HETATM   32  C21 UNL     1     -36.847 -17.785  60.604  1.00  0.00     0.174 C
HETATM   33  C22 UNL     1     -38.099 -17.626  59.764  1.00  0.00     0.034 C
ENDBRANCH  31  32
ENDBRANCH  29  31
ENDBRANCH   5  29
BRANCH   4  34
HETATM   34  C17 UNL     1     -35.331 -16.802  57.307  1.00  0.00     0.318 C
HETATM   35  O7  UNL     1     -35.802 -17.904  56.850  1.00  0.00    -0.257 OA
BRANCH  34  36
HETATM   36  O8  UNL     1     -35.904 -15.685  56.765  1.00  0.00    -0.321 OA
HETATM   37  C18 UNL     1     -36.969 -14.969  57.310  1.00  0.00     0.213 C
ENDBRANCH  34  36
ENDBRANCH   4  34
TORSDOF 13
ENDMDL