MODEL 1
REMARK VINA RESULT: -7.434871791      0.000      0.000
REMARK  8 active torsions:
REMARK  status: ('A' for Active; 'I' for Inactive)
REMARK    1  A    between atoms: C2_2  and  C3_3
REMARK    2  A    between atoms: C3_3  and  C4_4
REMARK    3  A    between atoms: C4_4  and  N1_5
REMARK    4  A    between atoms: C8_14  and  S1_15
REMARK    5  A    between atoms: S1_15  and  C9_16
REMARK    6  A    between atoms: C9_16  and  C10_17
REMARK    7  A    between atoms: C11_21  and  C12_22
REMARK    8  A    between atoms: C17_29  and  O2_30
ROOT
HETATM    1  N1  UNL     1     -35.488 -18.733  60.232  1.00  0.00    -0.301 N
HETATM    2  C5  UNL     1     -35.060 -18.175  59.079  1.00  0.00     0.129 A
HETATM    3  C6  UNL     1     -34.526 -19.151  58.265  1.00  0.00     0.070 A
HETATM    4  C7  UNL     1     -33.955 -19.178  57.011  1.00  0.00     0.116 A
HETATM    5  N2  UNL     1     -33.857 -18.060  56.376  1.00  0.00    -0.385 N
ATOM      6  H21 UNL     1     -33.433 -18.080  55.448  1.00  0.00     0.157 HD
ATOM      7  H22 UNL     1     -34.179 -17.168  56.751  1.00  0.00     0.157 HD
HETATM    8  N3  UNL     1     -33.528 -20.361  56.513  1.00  0.00    -0.322 N
ATOM      9  H3  UNL     1     -33.105 -20.377  55.584  1.00  0.00     0.169 HD
HETATM   10  C8  UNL     1     -33.637 -21.516  57.191  1.00  0.00     0.147 A
HETATM   11  N6  UNL     1     -34.197 -21.480  58.411  1.00  0.00    -0.321 N
ATOM     12  H6  UNL     1     -34.286 -22.350  58.936  1.00  0.00     0.169 HD
HETATM   13  C18 UNL     1     -34.647 -20.326  58.975  1.00  0.00     0.137 A
HETATM   14  N7  UNL     1     -35.230 -20.026  60.149  1.00  0.00    -0.283 N
ATOM     15  H7  UNL     1     -35.445 -20.706  60.878  1.00  0.00     0.189 HD
ENDROOT
BRANCH  10  16
HETATM   16  S1  UNL     1     -33.053 -23.074  56.483  1.00  0.00    -0.086 SA
BRANCH  16  17
HETATM   17  C9  UNL     1     -31.233 -23.035  56.621  1.00  0.00     0.160 C
BRANCH  17  18
HETATM   18  C10 UNL     1     -30.909 -22.505  57.958  1.00  0.00     0.113 A
HETATM   19  N4  UNL     1     -30.986 -23.110  59.162  1.00  0.00    -0.246 N
HETATM   20  O1  UNL     1     -30.596 -22.251  60.054  1.00  0.00    -0.222 OA
ATOM     21  H4  UNL     1     -31.294 -24.067  59.338  1.00  0.00     0.196 HD
HETATM   22  C11 UNL     1     -30.265 -21.103  59.489  1.00  0.00     0.155 A
HETATM   23  N5  UNL     1     -30.459 -21.263  58.189  1.00  0.00    -0.326 N
ATOM     24  H5  UNL     1     -30.293 -20.553  57.476  1.00  0.00     0.169 HD
BRANCH  22  25
HETATM   25  C12 UNL     1     -29.773 -19.870  60.152  1.00  0.00     0.094 C
HETATM   26  C13 UNL     1     -29.916 -18.740  59.171  1.00  0.00     0.036 C
HETATM   27  C14 UNL     1     -30.226 -17.423  59.781  1.00  0.00     0.092 C
HETATM   28 CL1  UNL     1     -31.881 -16.881  59.363  1.00  0.00    -0.124 Cl
HETATM   29  C15 UNL     1     -30.100 -17.365  61.267  1.00  0.00     0.094 C
HETATM   30  S2  UNL     1     -28.476 -17.822  61.881  1.00  0.00    -0.165 SA
HETATM   31  C16 UNL     1     -27.558 -18.843  60.704  1.00  0.00     0.106 C
HETATM   32  C17 UNL     1     -28.317 -20.123  60.510  1.00  0.00     0.139 C
BRANCH  32  33
HETATM   33  O2  UNL     1     -27.671 -20.870  59.532  1.00  0.00    -0.394 OA
ATOM     34  H2  UNL     1     -28.162 -21.653  59.310  1.00  0.00     0.210 HD
ENDBRANCH  32  33
ENDBRANCH  22  25
ENDBRANCH  17  18
ENDBRANCH  16  17
ENDBRANCH  10  16
BRANCH   1  35
HETATM   35  C4  UNL     1     -36.114 -18.009  61.340  1.00  0.00     0.148 C
BRANCH  35  36
HETATM   36  C3  UNL     1     -35.248 -16.874  61.779  1.00  0.00     0.021 C
BRANCH  36  37
HETATM   37  C2  UNL     1     -34.159 -17.356  62.682  1.00  0.00    -0.003 C
HETATM   38  C1  UNL     1     -34.684 -18.066  63.890  1.00  0.00     0.005 C
ENDBRANCH  36  37
ENDBRANCH  35  36
ENDBRANCH   1  35
TORSDOF 8
ENDMDL