MODEL 3
REMARK VINA RESULT: -5.701588634      3.104      5.844
REMARK  10 active torsions:
REMARK  status: ('A' for Active; 'I' for Inactive)
REMARK    1  A    between atoms: C2_2  and  O1_3
REMARK    2  A    between atoms: O1_3  and  C3_4
REMARK    3  A    between atoms: C3_4  and  C4_6
REMARK    4  A    between atoms: C4_6  and  S1_7
REMARK    5  A    between atoms: S1_7  and  C5_8
REMARK    6  A    between atoms: C6_9  and  N1_10
REMARK    7  A    between atoms: N1_10  and  C7_12
REMARK    8  A    between atoms: N5_28  and  C14_29
REMARK    9  A    between atoms: C14_29  and  C15_30
REMARK   10  A    between atoms: C15_30  and  N6_31
ROOT
HETATM    1  C5  UNL     1     -31.782 -18.548  60.149  1.00  0.00     0.101 A
HETATM    2  C6  UNL     1     -30.862 -17.907  60.933  1.00  0.00     0.085 A
HETATM    3  C10 UNL     1     -29.600 -18.455  60.711  1.00  0.00     0.066 A
HETATM    4  C11 UNL     1     -28.362 -18.171  61.249  1.00  0.00     0.117 A
HETATM    5  S2  UNL     1     -28.302 -16.941  62.370  1.00  0.00    -0.059 SA
HETATM    6  N4  UNL     1     -27.215 -18.761  60.973  1.00  0.00    -0.332 N
ATOM      7  H4  UNL     1     -26.398 -18.411  61.475  1.00  0.00     0.168 HD
HETATM    8  C12 UNL     1     -26.993 -19.762  60.116  1.00  0.00     0.145 A
HETATM    9  S3  UNL     1     -25.537 -20.421  59.845  1.00  0.00    -0.052 SA
HETATM   10  S4  UNL     1     -28.394 -20.291  59.317  1.00  0.00    -0.042 SA
HETATM   11  C13 UNL     1     -29.825 -19.451  59.755  1.00  0.00     0.095 A
HETATM   12  N5  UNL     1     -31.120 -19.509  59.418  1.00  0.00    -0.331 N
ENDROOT
BRANCH   2  13
HETATM   13  N1  UNL     1     -31.139 -16.835  61.843  1.00  0.00    -0.325 N
ATOM     14  H1  UNL     1     -30.726 -16.860  62.775  1.00  0.00     0.169 HD
BRANCH  13  15
HETATM   15  C7  UNL     1     -31.969 -15.736  61.489  1.00  0.00     0.175 C
HETATM   16  N2  UNL     1     -32.926 -15.301  62.213  1.00  0.00    -0.361 N
HETATM   17  C8  UNL     1     -33.628 -14.187  61.664  1.00  0.00     0.142 C
ATOM     18  H2  UNL     1     -33.171 -15.717  63.111  1.00  0.00     0.162 HD
HETATM   19  C9  UNL     1     -33.221 -14.261  60.189  1.00  0.00     0.142 C
HETATM   20  N3  UNL     1     -31.916 -14.928  60.322  1.00  0.00    -0.361 N
ATOM     21  H3  UNL     1     -31.119 -14.829  59.693  1.00  0.00     0.162 HD
ENDBRANCH  13  15
ENDBRANCH   2  13
BRANCH   1  22
HETATM   22  S1  UNL     1     -33.537 -18.270  60.021  1.00  0.00    -0.100 SA
BRANCH  22  23
HETATM   23  C4  UNL     1     -34.455 -19.165  61.288  1.00  0.00     0.191 C
BRANCH  23  24
HETATM   24  C3  UNL     1     -34.952 -18.171  62.281  1.00  0.00     0.268 C
HETATM   25  O2  UNL     1     -34.274 -17.833  63.292  1.00  0.00    -0.264 OA
BRANCH  24  26
HETATM   26  O1  UNL     1     -36.180 -17.577  62.131  1.00  0.00    -0.321 OA
BRANCH  26  27
HETATM   27  C2  UNL     1     -37.231 -18.026  61.327  1.00  0.00     0.174 C
HETATM   28  C1  UNL     1     -37.430 -17.222  60.075  1.00  0.00     0.034 C
ENDBRANCH  26  27
ENDBRANCH  24  26
ENDBRANCH  23  24
ENDBRANCH  22  23
ENDBRANCH   1  22
BRANCH  12  29
HETATM   29  C14 UNL     1     -31.743 -20.418  58.501  1.00  0.00     0.160 C
BRANCH  29  30
HETATM   30  C15 UNL     1     -31.762 -21.848  58.879  1.00  0.00     0.291 C
BRANCH  30  31
HETATM   31  N6  UNL     1     -30.987 -22.770  58.123  1.00  0.00     0.081 N
HETATM   32  C16 UNL     1     -30.149 -23.623  58.946  1.00  0.00     0.309 C
HETATM   33  C17 UNL     1     -31.908 -23.592  57.339  1.00  0.00     0.309 C
ENDBRANCH  30  31
ENDBRANCH  29  30
ENDBRANCH  12  29
TORSDOF 10
ENDMDL