MODEL 4
REMARK VINA RESULT: -6.598760299      2.506      4.148
REMARK  10 active torsions:
REMARK  status: ('A' for Active; 'I' for Inactive)
REMARK    1  A    between atoms: N1_2  and  C1_4
REMARK    2  A    between atoms: C6_9  and  C7_10
REMARK    3  A    between atoms: C7_10  and  C8_11
REMARK    4  A    between atoms: C8_11  and  N2_12
REMARK    5  A    between atoms: C8_11  and  C15_29
REMARK    6  A    between atoms: N2_12  and  N3_14
REMARK    7  A    between atoms: N3_14  and  C9_16
REMARK    8  A    between atoms: C10_17  and  N4_18
REMARK    9  A    between atoms: C14_25  and  N5_26
REMARK   10  A    between atoms: C18_35  and  O7_36
ROOT
HETATM    1  C8  UNL     1     -30.937 -19.162  59.337  1.00  0.00     0.059 C
ENDROOT
BRANCH   1   2
HETATM    2  C7  UNL     1     -30.314 -17.885  59.308  1.00  0.00     0.042 C
BRANCH   2   3
HETATM    3  C6  UNL     1     -29.904 -17.158  60.512  1.00  0.00    -0.001 A
HETATM    4  C1  UNL     1     -28.858 -17.570  61.289  1.00  0.00     0.113 A
HETATM    5  C2  UNL     1     -28.506 -16.788  62.414  1.00  0.00     0.037 A
HETATM    6  C3  UNL     1     -29.178 -15.645  62.740  1.00  0.00     0.002 A
HETATM    7  C4  UNL     1     -30.238 -15.232  61.951  1.00  0.00     0.001 A
HETATM    8  C5  UNL     1     -30.571 -15.981  60.873  1.00  0.00     0.014 A
BRANCH   4   9
HETATM    9  N1  UNL     1     -28.119 -18.749  61.067  1.00  0.00    -0.115 N
HETATM   10  O1  UNL     1     -27.093 -18.879  60.410  1.00  0.00    -0.532 OA
HETATM   11  O2  UNL     1     -28.606 -19.899  61.671  1.00  0.00    -0.532 OA
ENDBRANCH   4   9
ENDBRANCH   2   3
ENDBRANCH   1   2
BRANCH   1  12
HETATM   12  N2  UNL     1     -31.947 -19.301  60.207  1.00  0.00    -0.302 N
ATOM     13  H2  UNL     1     -31.729 -19.449  61.192  1.00  0.00     0.186 HD
BRANCH  12  14
HETATM   14  N3  UNL     1     -33.249 -19.252  59.827  1.00  0.00    -0.296 N
ATOM     15  H3  UNL     1     -33.705 -20.162  59.758  1.00  0.00     0.187 HD
BRANCH  14  16
HETATM   16  C9  UNL     1     -34.074 -18.158  59.512  1.00  0.00     0.114 A
HETATM   17  C10 UNL     1     -34.811 -17.447  60.418  1.00  0.00     0.135 A
HETATM   18  C11 UNL     1     -35.704 -16.447  59.993  1.00  0.00     0.062 A
HETATM   19  C12 UNL     1     -35.876 -16.133  58.669  1.00  0.00     0.038 A
HETATM   20 CL1  UNL     1     -36.996 -14.872  58.200  1.00  0.00    -0.084 Cl
HETATM   21  C13 UNL     1     -35.131 -16.843  57.769  1.00  0.00     0.062 A
HETATM   22  C14 UNL     1     -34.235 -17.846  58.133  1.00  0.00     0.135 A
BRANCH  17  23
HETATM   23  N4  UNL     1     -34.721 -17.612  61.809  1.00  0.00    -0.113 N
HETATM   24  O3  UNL     1     -33.558 -17.603  62.328  1.00  0.00    -0.532 OA
HETATM   25  O4  UNL     1     -35.783 -17.772  62.618  1.00  0.00    -0.532 OA
ENDBRANCH  17  23
BRANCH  22  26
HETATM   26  N5  UNL     1     -33.518 -18.475  57.106  1.00  0.00    -0.113 N
HETATM   27  O5  UNL     1     -32.748 -18.005  56.278  1.00  0.00    -0.532 OA
HETATM   28  O6  UNL     1     -33.666 -19.883  57.030  1.00  0.00    -0.532 OA
ENDBRANCH  22  26
ENDBRANCH  14  16
ENDBRANCH  12  14
ENDBRANCH   1  12
BRANCH   1  29
HETATM   29  C15 UNL     1     -30.610 -20.419  58.690  1.00  0.00     0.265 C
HETATM   30  N6  UNL     1     -29.134 -20.582  58.634  1.00  0.00    -0.063 N
HETATM   31  C16 UNL     1     -28.823 -21.961  58.536  1.00  0.00     0.236 C
ATOM     32  H62 UNL     1     -28.712 -20.034  57.885  1.00  0.00     0.278 HD
ATOM     33  H61 UNL     1     -28.665 -20.134  59.421  1.00  0.00     0.278 HD
HETATM   34  C17 UNL     1     -30.127 -22.694  58.387  1.00  0.00     0.061 C
HETATM   35  C18 UNL     1     -31.055 -21.721  59.198  1.00  0.00     0.156 C
BRANCH  35  36
HETATM   36  O7  UNL     1     -32.356 -22.120  58.872  1.00  0.00    -0.393 OA
ATOM     37  H7  UNL     1     -32.732 -21.757  58.078  1.00  0.00     0.210 HD
ENDBRANCH  35  36
ENDBRANCH   1  29
TORSDOF 10
ENDMDL