MODEL 3
REMARK VINA RESULT: -7.166011192      3.184      6.670
REMARK  10 active torsions:
REMARK  status: ('A' for Active; 'I' for Inactive)
REMARK    1  A    between atoms: C2_2  and  O1_3
REMARK    2  A    between atoms: O1_3  and  C3_4
REMARK    3  A    between atoms: C3_4  and  C4_6
REMARK    4  A    between atoms: C6_12  and  N2_13
REMARK    5  A    between atoms: N3_15  and  C7_17
REMARK    6  A    between atoms: C9_19  and  O5_20
REMARK    7  A    between atoms: O5_20  and  C10_21
REMARK    8  A    between atoms: C11_22  and  C12_23
REMARK    9  A    between atoms: C17_30  and  O7_31
REMARK   10  A    between atoms: C20_35  and  O8_36
ROOT
HETATM    1  C7  UNL     1     -32.200 -17.162  60.622  1.00  0.00     0.083 A
HETATM    2  C8  UNL     1     -32.888 -18.292  60.233  1.00  0.00     0.070 A
HETATM    3  C9  UNL     1     -33.869 -18.870  61.003  1.00  0.00     0.071 A
HETATM    4  C18 UNL     1     -34.162 -18.270  62.221  1.00  0.00     0.039 A
HETATM    5  C19 UNL     1     -33.488 -17.150  62.615  1.00  0.00     0.041 A
HETATM    6  C20 UNL     1     -32.506 -16.581  61.831  1.00  0.00     0.093 A
ENDROOT
BRANCH   1   7
HETATM    7  N3  UNL     1     -31.190 -16.593  59.802  1.00  0.00    -0.297 N
HETATM    8  N2  UNL     1     -29.961 -16.729  59.911  1.00  0.00    -0.292 N
ATOM      9  H2  UNL     1     -29.406 -16.234  59.215  1.00  0.00     0.187 HD
ATOM     10  H3  UNL     1     -31.511 -16.003  59.035  1.00  0.00     0.187 HD
BRANCH   8  11
HETATM   11  C6  UNL     1     -29.227 -17.462  60.847  1.00  0.00     0.160 A
HETATM   12  C4  UNL     1     -28.797 -18.768  60.684  1.00  0.00     0.164 A
HETATM   13  N1  UNL     1     -28.145 -19.081  61.803  1.00  0.00    -0.249 N
HETATM   14  O3  UNL     1     -28.152 -18.072  62.617  1.00  0.00    -0.193 OA
ATOM     15  H1  UNL     1     -27.704 -19.981  61.992  1.00  0.00     0.195 HD
HETATM   16  C5  UNL     1     -28.792 -17.060  62.097  1.00  0.00     0.335 A
HETATM   17  O4  UNL     1     -28.965 -15.935  62.656  1.00  0.00    -0.255 OA
BRANCH  12  18
HETATM   18  C3  UNL     1     -29.018 -19.637  59.512  1.00  0.00     0.314 C
HETATM   19  O2  UNL     1     -28.129 -20.395  59.093  1.00  0.00    -0.257 OA
BRANCH  18  20
HETATM   20  O1  UNL     1     -30.215 -19.635  58.845  1.00  0.00    -0.317 OA
BRANCH  20  21
HETATM   21  C2  UNL     1     -30.978 -20.737  58.518  1.00  0.00     0.175 C
HETATM   22  C1  UNL     1     -31.397 -21.608  59.650  1.00  0.00     0.034 C
ENDBRANCH  20  21
ENDBRANCH  18  20
ENDBRANCH  12  18
ENDBRANCH   8  11
ENDBRANCH   1   7
BRANCH   6  23
HETATM   23  O8  UNL     1     -31.821 -15.425  62.256  1.00  0.00    -0.358 OA
ATOM     24  H8  UNL     1     -30.931 -15.263  61.967  1.00  0.00     0.217 HD
ENDBRANCH   6  23
BRANCH   3  25
HETATM   25  O5  UNL     1     -34.582 -19.997  60.656  1.00  0.00    -0.342 OA
BRANCH  25  26
HETATM   26  C10 UNL     1     -35.037 -20.394  59.407  1.00  0.00     0.170 C
HETATM   27  C11 UNL     1     -36.149 -19.518  58.917  1.00  0.00     0.087 C
HETATM   28  C14 UNL     1     -37.485 -20.170  58.788  1.00  0.00     0.016 C
HETATM   29  C15 UNL     1     -37.793 -21.205  59.819  1.00  0.00     0.024 C
HETATM   30  C16 UNL     1     -36.639 -22.024  60.263  1.00  0.00     0.113 C
HETATM   31 CL1  UNL     1     -37.088 -23.745  60.209  1.00  0.00    -0.122 Cl
HETATM   32  C17 UNL     1     -35.415 -21.867  59.404  1.00  0.00     0.166 C
BRANCH  27  33
HETATM   33  C12 UNL     1     -35.715 -18.828  57.676  1.00  0.00     0.129 C
HETATM   34  C13 UNL     1     -35.472 -17.364  57.608  1.00  0.00     0.091 C
HETATM   35  O6  UNL     1     -35.533 -19.453  56.624  1.00  0.00    -0.298 OA
ENDBRANCH  27  33
BRANCH  32  36
HETATM   36  O7  UNL     1     -35.555 -22.365  58.136  1.00  0.00    -0.391 OA
ATOM     37  H7  UNL     1     -35.878 -23.259  58.133  1.00  0.00     0.210 HD
ENDBRANCH  32  36
ENDBRANCH  25  26
ENDBRANCH   3  25
TORSDOF 10
ENDMDL