MODEL 1
REMARK VINA RESULT: -7.414758064      0.000      0.000
REMARK  8 active torsions:
REMARK  status: ('A' for Active; 'I' for Inactive)
REMARK    1  A    between atoms: C3_3  and  C4_4
REMARK    2  A    between atoms: C6_9  and  O4_10
REMARK    3  A    between atoms: C7_12  and  N1_13
REMARK    4  A    between atoms: N1_13  and  C8_15
REMARK    5  A    between atoms: C8_15  and  C9_16
REMARK    6  A    between atoms: C12_22  and  N2_23
REMARK    7  A    between atoms: C13_26  and  O9_27
REMARK    8  A    between atoms: O9_27  and  C14_28
ROOT
HETATM    1  C1  UNL     1     -33.786 -16.820  58.774  1.00  0.00     0.052 C
HETATM    2  C2  UNL     1     -32.520 -16.706  59.495  1.00  0.00    -0.005 A
HETATM    3  C3  UNL     1     -32.010 -15.579  60.121  1.00  0.00     0.159 A
HETATM    4  O3  UNL     1     -30.841 -15.891  60.629  1.00  0.00    -0.299 OA
HETATM    5  C5  UNL     1     -30.545 -17.144  60.380  1.00  0.00     0.125 A
HETATM    6  C6  UNL     1     -29.439 -17.889  60.713  1.00  0.00     0.130 A
HETATM    7  C7  UNL     1     -29.333 -19.226  60.340  1.00  0.00     0.101 A
HETATM    8  C12 UNL     1     -30.374 -19.756  59.631  1.00  0.00     0.166 A
HETATM    9  C13 UNL     1     -31.531 -19.044  59.259  1.00  0.00     0.121 A
HETATM   10  C19 UNL     1     -31.594 -17.726  59.649  1.00  0.00     0.046 A
ENDROOT
BRANCH   7  11
HETATM   11  N1  UNL     1     -28.157 -19.931  60.773  1.00  0.00    -0.383 N
ATOM     12  H1  UNL     1     -28.203 -20.389  61.683  1.00  0.00     0.159 HD
BRANCH  11  13
HETATM   13  C8  UNL     1     -26.943 -20.047  60.056  1.00  0.00     0.154 C
BRANCH  13  14
HETATM   14  C9  UNL     1     -26.546 -21.349  59.484  1.00  0.00     0.177 C
HETATM   15  O5  UNL     1     -25.987 -22.303  60.332  1.00  0.00    -0.311 OA
HETATM   16  C10 UNL     1     -25.164 -22.687  59.262  1.00  0.00     0.280 C
HETATM   17  O6  UNL     1     -24.724 -23.798  58.915  1.00  0.00    -0.263 OA
HETATM   18  C11 UNL     1     -25.139 -21.252  58.870  1.00  0.00     0.212 C
HETATM   19 CL1  UNL     1     -23.995 -20.337  59.871  1.00  0.00    -0.112 Cl
ENDBRANCH  13  14
ENDBRANCH  11  13
ENDBRANCH   7  11
BRANCH   6  20
HETATM   20  O4  UNL     1     -28.411 -17.304  61.435  1.00  0.00    -0.356 OA
ATOM     21  H4  UNL     1     -27.591 -17.771  61.547  1.00  0.00     0.218 HD
ENDBRANCH   6  20
BRANCH   8  22
HETATM   22  N2  UNL     1     -30.291 -21.153  59.352  1.00  0.00    -0.110 N
HETATM   23  O7  UNL     1     -30.680 -22.062  60.080  1.00  0.00    -0.532 OA
HETATM   24  O8  UNL     1     -29.671 -21.502  58.153  1.00  0.00    -0.532 OA
ENDBRANCH   8  22
BRANCH   9  25
HETATM   25  O9  UNL     1     -32.505 -19.643  58.556  1.00  0.00    -0.317 OA
BRANCH  25  26
HETATM   26  C14 UNL     1     -33.759 -20.137  58.780  1.00  0.00     0.266 C
HETATM   27  C15 UNL     1     -33.853 -21.622  58.514  1.00  0.00     0.061 C
HETATM   28  C16 UNL     1     -35.254 -22.152  58.756  1.00  0.00     0.007 C
HETATM   29  C17 UNL     1     -35.706 -21.764  60.153  1.00  0.00     0.026 C
HETATM   30  C18 UNL     1     -35.479 -20.250  60.237  1.00  0.00     0.171 C
HETATM   31  O10 UNL     1     -34.102 -20.076  60.178  1.00  0.00    -0.361 OA
ENDBRANCH  25  26
ENDBRANCH   9  25
BRANCH   3  32
HETATM   32  C4  UNL     1     -32.591 -14.249  60.248  1.00  0.00     0.234 C
HETATM   33  O1  UNL     1     -33.656 -13.987  60.842  1.00  0.00    -0.642 OA
HETATM   34  O2  UNL     1     -31.940 -13.158  59.677  1.00  0.00    -0.642 OA
ENDBRANCH   3  32
TORSDOF 8
ENDMDL