MODEL 3
REMARK VINA RESULT: -6.993527506      5.375      8.447
REMARK  10 active torsions:
REMARK  status: ('A' for Active; 'I' for Inactive)
REMARK    1  A    between atoms: C2_2  and  O1_3
REMARK    2  A    between atoms: O1_3  and  C3_4
REMARK    3  A    between atoms: C3_4  and  C4_6
REMARK    4  A    between atoms: C4_6  and  O3_7
REMARK    5  A    between atoms: O3_7  and  C5_8
REMARK    6  A    between atoms: C6_11  and  N2_12
REMARK    7  A    between atoms: N3_14  and  C7_16
REMARK    8  A    between atoms: C8_17  and  O4_18
REMARK    9  A    between atoms: C9_22  and  O5_23
REMARK   10  A    between atoms: C10_25  and  N5_26
ROOT
HETATM    1  N2  UNL     1     -32.864 -21.317  60.275  1.00  0.00    -0.264 N
ATOM      2  H2  UNL     1     -33.069 -21.888  61.096  1.00  0.00     0.190 HD
HETATM    3  N3  UNL     1     -33.831 -20.911  59.610  1.00  0.00    -0.291 N
ATOM      4  H3  UNL     1     -34.755 -21.186  59.943  1.00  0.00     0.187 HD
ENDROOT
BRANCH   3   5
HETATM    5  C7  UNL     1     -33.799 -20.108  58.436  1.00  0.00     0.130 A
HETATM    6  C8  UNL     1     -33.255 -20.650  57.265  1.00  0.00     0.173 A
HETATM    7  N4  UNL     1     -33.340 -19.699  56.339  1.00  0.00    -0.314 N
HETATM    8  C9  UNL     1     -33.906 -18.589  56.855  1.00  0.00     0.171 A
ATOM      9  H4  UNL     1     -33.023 -19.796  55.374  1.00  0.00     0.170 HD
HETATM   10  C10 UNL     1     -34.213 -18.821  58.208  1.00  0.00     0.114 A
BRANCH   6  11
HETATM   11  O4  UNL     1     -32.733 -21.921  57.100  1.00  0.00    -0.344 OA
ATOM     12  H4  UNL     1     -32.777 -22.459  56.319  1.00  0.00     0.219 HD
ENDBRANCH   6  11
BRANCH   8  13
HETATM   13  O5  UNL     1     -34.144 -17.417  56.165  1.00  0.00    -0.344 OA
ATOM     14  H5  UNL     1     -34.301 -16.567  56.560  1.00  0.00     0.219 HD
ENDBRANCH   8  13
BRANCH  10  15
HETATM   15  N5  UNL     1     -34.846 -17.948  59.097  1.00  0.00    -0.375 N
HETATM   16  C11 UNL     1     -34.042 -16.975  59.797  1.00  0.00     0.123 C
HETATM   17  C12 UNL     1     -33.511 -17.684  61.029  1.00  0.00     0.020 C
HETATM   18  C13 UNL     1     -34.516 -17.775  62.118  1.00  0.00     0.002 C
HETATM   19  C14 UNL     1     -35.942 -17.590  61.751  1.00  0.00     0.002 C
HETATM   20  C15 UNL     1     -36.456 -18.584  60.709  1.00  0.00     0.020 C
HETATM   21  C16 UNL     1     -36.278 -17.998  59.325  1.00  0.00     0.123 C
ENDBRANCH  10  15
ENDBRANCH   3   5
BRANCH   1  22
HETATM   22  C6  UNL     1     -31.490 -21.054  59.989  1.00  0.00     0.246 A
HETATM   23  N1  UNL     1     -30.799 -19.951  60.379  1.00  0.00    -0.298 N
HETATM   24  C5  UNL     1     -29.536 -20.044  59.935  1.00  0.00     0.188 A
ATOM     25  H1  UNL     1     -31.180 -19.176  60.923  1.00  0.00     0.171 HD
HETATM   26  C17 UNL     1     -29.478 -21.249  59.255  1.00  0.00     0.176 A
HETATM   27  O6  UNL     1     -30.648 -21.787  59.323  1.00  0.00    -0.266 OA
HETATM   28 BR1  UNL     1     -27.901 -21.950  58.378  1.00  0.00    -0.018 Br
BRANCH  24  29
HETATM   29  O3  UNL     1     -28.488 -19.172  60.090  1.00  0.00    -0.323 OA
BRANCH  29  30
HETATM   30  C4  UNL     1     -27.890 -18.733  61.256  1.00  0.00     0.288 C
BRANCH  30  31
HETATM   31  C3  UNL     1     -28.456 -17.511  61.849  1.00  0.00     0.283 C
HETATM   32  O2  UNL     1     -27.788 -16.788  62.614  1.00  0.00    -0.263 OA
BRANCH  31  33
HETATM   33  O1  UNL     1     -29.753 -17.169  61.545  1.00  0.00    -0.320 OA
BRANCH  33  34
HETATM   34  C2  UNL     1     -30.143 -16.227  60.587  1.00  0.00     0.174 C
HETATM   35  C1  UNL     1     -30.862 -15.030  61.142  1.00  0.00     0.034 C
ENDBRANCH  33  34
ENDBRANCH  31  33
ENDBRANCH  30  31
ENDBRANCH  29  30
ENDBRANCH  24  29
ENDBRANCH   1  22
TORSDOF 10
ENDMDL