MODEL 2
REMARK VINA RESULT: -7.570190553      1.481      5.749
REMARK  4 active torsions:
REMARK  status: ('A' for Active; 'I' for Inactive)
REMARK    1  A    between atoms: C2_3  and  C3_4
REMARK       I    between atoms: C3_4  and  N2_6
REMARK    2  A    between atoms: N2_6  and  N3_8
REMARK       I    between atoms: N3_8  and  C4_10
REMARK    3  A    between atoms: C5_15  and  C6_16
REMARK    4  A    between atoms: N6_17  and  N7_19
ROOT
HETATM    1  C1  UNL     1       9.236  12.764   7.465  1.00  0.00     0.161 C
HETATM    2  N1  UNL     1       9.028  13.444   8.720  1.00  0.00    -0.298 N
HETATM    3  C2  UNL     1       9.519  14.699   8.900  1.00  0.00     0.125 A
HETATM    4  C5  UNL     1       9.249  15.320  10.090  1.00  0.00     0.082 A
HETATM    5  C8  UNL     1       8.494  14.649  11.049  1.00  0.00     0.263 A
HETATM    6  O2  UNL     1       8.249  15.222  12.134  1.00  0.00    -0.267 OA
HETATM    7  N10 UNL     1       8.019  13.417  10.858  1.00  0.00    -0.275 N
ATOM      8  H10 UNL     1       7.469  12.944  11.575  1.00  0.00     0.173 HD
HETATM    9  C9  UNL     1       8.291  12.828   9.697  1.00  0.00     0.329 A
HETATM   10  O3  UNL     1       7.876  11.654   9.436  1.00  0.00    -0.246 OA
ENDROOT
BRANCH   3  11
HETATM   11  C3  UNL     1      10.353  15.362   7.914  1.00  0.00     0.288 C
HETATM   12  O1  UNL     1      11.629  15.359   8.014  1.00  0.00    -0.264 OA
HETATM   13  N2  UNL     1       9.765  16.023   6.812  1.00  0.00    -0.262 N
ATOM     14  H2  UNL     1       8.751  16.036   6.705  1.00  0.00     0.190 HD
BRANCH  13  15
HETATM   15  N3  UNL     1      10.575  16.659   5.869  1.00  0.00    -0.271 N
HETATM   16  C4  UNL     1      10.955  15.977   4.699  1.00  0.00     0.200 C
HETATM   17  N4  UNL     1      11.491  14.811   4.775  1.00  0.00    -0.372 N
HETATM   18  N5  UNL     1      10.754  16.561   3.413  1.00  0.00    -0.062 NA
ATOM     19  H42 UNL     1      11.634  14.394   5.695  1.00  0.00     0.158 HD
ATOM     20  H41 UNL     1      11.766  14.316   3.928  1.00  0.00     0.158 HD
ATOM     21  H3  UNL     1      10.890  17.616   6.028  1.00  0.00     0.189 HD
ENDBRANCH  13  15
ENDBRANCH   3  11
BRANCH   4  22
HETATM   22  C6  UNL     1       9.763  16.651  10.412  1.00  0.00     0.126 C
HETATM   23  N6  UNL     1       8.968  17.579  10.759  1.00  0.00    -0.309 N
ATOM     24  H6  UNL     1       7.982  17.321  10.790  1.00  0.00     0.186 HD
BRANCH  23  25
HETATM   25  N7  UNL     1       9.234  18.824  11.082  1.00  0.00    -0.276 N
HETATM   26  C7  UNL     1       9.387  19.516  12.093  1.00  0.00     0.215 C
HETATM   27  N8  UNL     1       9.683  20.919  11.921  1.00  0.00    -0.065 NA
HETATM   28  N9  UNL     1       9.287  19.001  13.406  1.00  0.00    -0.065 NA
ATOM     29  H7  UNL     1       9.350  19.392  10.242  1.00  0.00     0.189 HD
ENDBRANCH  23  25
ENDBRANCH   4  22
TORSDOF 4
ENDMDL