MODEL 2
REMARK VINA RESULT: -7.536864941      1.342      1.725
REMARK  6 active torsions:
REMARK  status: ('A' for Active; 'I' for Inactive)
REMARK    1  A    between atoms: C1_2  and  C2_4
REMARK    2  A    between atoms: C2_4  and  N2_5
REMARK    3  A    between atoms: C2_4  and  C6_17
REMARK    4  A    between atoms: N2_5  and  C3_7
REMARK       I    between atoms: C6_17  and  N6_19
REMARK    5  A    between atoms: N6_19  and  C7_21
REMARK    6  A    between atoms: C8_25  and  N8_26
ROOT
HETATM    1  C6  UNL     1      10.816  19.837  13.849  1.00  0.00     0.251 C
HETATM    2  O3  UNL     1       9.650  20.145  14.185  1.00  0.00    -0.271 OA
HETATM    3  N6  UNL     1      11.868  20.040  14.746  1.00  0.00    -0.324 N
ATOM      4  H6  UNL     1      12.806  19.777  14.442  1.00  0.00     0.165 HD
ENDROOT
BRANCH   1   5
HETATM    5  C2  UNL     1      11.027  19.264  12.502  1.00  0.00     0.265 C
BRANCH   5   6
HETATM    6  C1  UNL     1      11.727  20.200  11.595  1.00  0.00     0.263 C
HETATM    7  N1  UNL     1      12.255  19.838  10.323  1.00  0.00    -0.060 NA
HETATM    8  O1  UNL     1      11.885  21.400  11.931  1.00  0.00    -0.274 OA
ENDBRANCH   5   6
BRANCH   5   9
HETATM    9  N2  UNL     1       9.748  18.952  11.929  1.00  0.00    -0.354 N
ATOM     10  H2  UNL     1       9.025  19.670  11.983  1.00  0.00     0.162 HD
BRANCH   9  11
HETATM   11  C3  UNL     1       9.440  17.861  11.360  1.00  0.00     0.123 A
HETATM   12  C4  UNL     1       8.981  16.789  12.083  1.00  0.00     0.155 A
HETATM   13  N3  UNL     1       8.662  15.635  11.426  1.00  0.00    -0.304 N
HETATM   14  N4  UNL     1       8.787  15.527  10.108  1.00  0.00    -0.252 N
ATOM     15  H3  UNL     1       8.320  14.837  11.960  1.00  0.00     0.186 HD
HETATM   16  C5  UNL     1       9.233  16.575   9.430  1.00  0.00     0.340 A
ATOM     17  H4  UNL     1       8.545  14.659   9.630  1.00  0.00     0.191 HD
HETATM   18  O2  UNL     1       9.359  16.498   8.183  1.00  0.00    -0.245 OA
HETATM   19  N5  UNL     1       9.562  17.742  10.032  1.00  0.00    -0.292 N
ATOM     20  H5  UNL     1       9.903  18.527   9.475  1.00  0.00     0.172 HD
ENDBRANCH   9  11
ENDBRANCH   5   9
ENDBRANCH   1   5
BRANCH   3  21
HETATM   21  C7  UNL     1      11.728  20.594  16.074  1.00  0.00     0.384 C
HETATM   22  N7  UNL     1      11.010  21.854  16.004  1.00  0.00     0.001 N
HETATM   23  C8  UNL     1      11.306  22.423  17.313  1.00  0.00     0.488 C
ATOM     24  H72 UNL     1      11.245  22.446  15.207  1.00  0.00     0.284 HD
ATOM     25  H71 UNL     1      10.019  21.780  15.773  1.00  0.00     0.284 HD
HETATM   26  N9  UNL     1      12.681  22.077  17.576  1.00  0.00    -0.308 N
HETATM   27  C9  UNL     1      13.018  21.015  16.659  1.00  0.00     0.271 C
ATOM     28  H9  UNL     1      13.295  22.499  18.272  1.00  0.00     0.166 HD
HETATM   29  O4  UNL     1      14.179  20.624  16.484  1.00  0.00    -0.269 OA
BRANCH  23  30
HETATM   30  N8  UNL     1      11.147  23.864  17.179  1.00  0.00    -0.033 N
ATOM     31  H83 UNL     1      10.341  24.231  17.685  1.00  0.00     0.278 HD
ATOM     32  H82 UNL     1      11.861  24.399  17.674  1.00  0.00     0.278 HD
ATOM     33  H81 UNL     1      11.118  24.057  16.178  1.00  0.00     0.278 HD
ENDBRANCH  23  30
ENDBRANCH   3  21
TORSDOF 6
ENDMDL