MODEL 2
REMARK VINA RESULT: -7.026864809      2.539      6.570
REMARK  8 active torsions:
REMARK  status: ('A' for Active; 'I' for Inactive)
REMARK    1  A    between atoms: C5_10  and  C6_11
REMARK    2  A    between atoms: C6_11  and  C7_12
REMARK    3  A    between atoms: C7_12  and  O3_13
REMARK    4  A    between atoms: C7_12  and  N3_15
REMARK    5  A    between atoms: C7_12  and  C8_20
REMARK    6  A    between atoms: N3_15  and  N4_17
REMARK    7  A    between atoms: C8_20  and  N5_21
REMARK    8  A    between atoms: C8_20  and  C9_25
ROOT
HETATM    1  C7  UNL     1      10.700  14.502   7.788  1.00  0.00     0.185 C
ENDROOT
BRANCH   1   2
HETATM    2  C6  UNL     1      11.713  15.419   7.273  1.00  0.00     0.106 C
BRANCH   2   3
HETATM    3  C5  UNL     1      12.426  16.324   8.152  1.00  0.00    -0.018 A
HETATM    4  C4  UNL     1      11.920  17.407   8.844  1.00  0.00     0.084 A
HETATM    5  C3  UNL     1      10.695  18.050   8.910  1.00  0.00     0.264 A
HETATM    6  C11 UNL     1      12.913  17.977   9.632  1.00  0.00     0.127 A
HETATM    7  N2  UNL     1      10.516  19.130   9.684  1.00  0.00    -0.274 N
HETATM    8  O2  UNL     1       9.740  17.622   8.240  1.00  0.00    -0.267 OA
HETATM    9  C2  UNL     1      11.527  19.641  10.433  1.00  0.00     0.330 A
ATOM     10  H2  UNL     1       9.600  19.577   9.710  1.00  0.00     0.173 HD
HETATM   11  N1  UNL     1      12.737  19.061  10.408  1.00  0.00    -0.289 N
HETATM   12  O1  UNL     1      11.361  20.653  11.158  1.00  0.00    -0.246 OA
HETATM   13  C1  UNL     1      13.844  19.587  11.206  1.00  0.00     0.163 C
HETATM   14  N7  UNL     1      14.023  17.251   9.423  1.00  0.00    -0.351 N
HETATM   15  C10 UNL     1      13.751  16.277   8.555  1.00  0.00     0.098 A
ATOM     16  H7  UNL     1      14.930  17.418   9.859  1.00  0.00     0.166 HD
ENDBRANCH   2   3
ENDBRANCH   1   2
BRANCH   1  17
HETATM   17  O3  UNL     1      10.923  13.220   7.195  1.00  0.00    -0.367 OA
ATOM     18  H3  UNL     1      10.299  12.611   7.571  1.00  0.00     0.212 HD
ENDBRANCH   1  17
BRANCH   1  19
HETATM   19  N3  UNL     1       9.312  14.755   7.532  1.00  0.00    -0.306 N
ATOM     20  H3  UNL     1       8.600  14.511   8.220  1.00  0.00     0.183 HD
BRANCH  19  21
HETATM   21  N4  UNL     1       8.973  15.327   6.350  1.00  0.00    -0.347 N
ATOM     22  H42 UNL     1       9.674  15.833   5.808  1.00  0.00     0.176 HD
ATOM     23  H41 UNL     1       8.009  15.235   6.029  1.00  0.00     0.176 HD
ENDBRANCH  19  21
ENDBRANCH   1  19
BRANCH   1  24
HETATM   24  C8  UNL     1      10.855  14.160   9.289  1.00  0.00     0.328 C
BRANCH  24  25
HETATM   25  N5  UNL     1       9.650  14.770   9.916  1.00  0.00    -0.062 N
ATOM     26  H53 UNL     1       9.158  15.436   9.321  1.00  0.00     0.275 HD
ATOM     27  H52 UNL     1       8.865  14.129  10.033  1.00  0.00     0.275 HD
ATOM     28  H51 UNL     1      10.005  15.165  10.787  1.00  0.00     0.275 HD
ENDBRANCH  24  25
BRANCH  24  29
HETATM   29  C9  UNL     1      10.735  12.721   9.565  1.00  0.00     0.266 C
HETATM   30  N6  UNL     1      11.767  11.801   9.816  1.00  0.00    -0.060 NA
HETATM   31  O4  UNL     1       9.555  12.219   9.586  1.00  0.00    -0.274 OA
ENDBRANCH  24  29
ENDBRANCH   1  24
TORSDOF 8
ENDMDL