MODEL 1
REMARK VINA RESULT: -7.007038228      0.000      0.000
REMARK  7 active torsions:
REMARK  status: ('A' for Active; 'I' for Inactive)
REMARK       I    between atoms: N1_2  and  C2_4
REMARK    1  A    between atoms: C2_4  and  C3_6
REMARK    2  A    between atoms: C3_6  and  O2_7
REMARK    3  A    between atoms: C3_6  and  C4_9
REMARK    4  A    between atoms: C4_9  and  N2_10
REMARK    5  A    between atoms: C4_9  and  C9_23
REMARK    6  A    between atoms: N2_10  and  C5_12
REMARK       I    between atoms: C9_23  and  N6_25
REMARK    7  A    between atoms: N6_25  and  N7_27
ROOT
HETATM    1  C4  UNL     1      10.766  18.499  10.307  1.00  0.00     0.231 C
ENDROOT
BRANCH   1   2
HETATM    2  C3  UNL     1      12.181  18.703   9.842  1.00  0.00     0.242 C
BRANCH   2   3
HETATM    3  C2  UNL     1      13.008  17.482   9.858  1.00  0.00     0.248 C
HETATM    4  N1  UNL     1      14.385  17.547   9.543  1.00  0.00    -0.363 N
HETATM    5  C1  UNL     1      15.246  16.376   9.543  1.00  0.00     0.149 C
ATOM      6  H1  UNL     1      14.791  18.452   9.306  1.00  0.00     0.162 HD
HETATM    7  O1  UNL     1      12.526  16.351  10.148  1.00  0.00    -0.271 OA
ENDBRANCH   2   3
BRANCH   2   8
HETATM    8  O2  UNL     1      12.840  19.714  10.487  1.00  0.00    -0.384 OA
ATOM      9  H2  UNL     1      13.631  19.935  10.009  1.00  0.00     0.210 HD
ENDBRANCH   2   8
ENDBRANCH   1   2
BRANCH   1  10
HETATM   10  N2  UNL     1       9.996  18.153   9.127  1.00  0.00    -0.209 N
ATOM     11  H2  UNL     1       9.664  18.930   8.556  1.00  0.00     0.178 HD
BRANCH  10  12
HETATM   12  C5  UNL     1       9.694  16.990   8.732  1.00  0.00     0.687 A
HETATM   13  N3  UNL     1       9.217  16.094   9.642  1.00  0.00    -0.141 N
HETATM   14  C6  UNL     1       8.896  14.857   9.224  1.00  0.00     0.344 A
ATOM     15  H3  UNL     1       9.106  16.357  10.621  1.00  0.00     0.189 HD
HETATM   16  O3  UNL     1       8.448  13.994  10.045  1.00  0.00    -0.246 OA
HETATM   17  N4  UNL     1       9.025  14.470   7.943  1.00  0.00    -0.255 N
HETATM   18  C7  UNL     1       8.670  13.126   7.514  1.00  0.00     0.166 C
HETATM   19  C8  UNL     1       9.502  15.395   7.081  1.00  0.00     0.344 A
HETATM   20  O4  UNL     1       9.634  15.068   5.889  1.00  0.00    -0.246 OA
HETATM   21  N5  UNL     1       9.838  16.643   7.445  1.00  0.00    -0.141 N
ATOM     22  H5  UNL     1      10.193  17.310   6.760  1.00  0.00     0.189 HD
ENDBRANCH  10  12
ENDBRANCH   1  10
BRANCH   1  23
HETATM   23  C9  UNL     1      10.157  19.698  10.907  1.00  0.00     0.262 C
HETATM   24  O5  UNL     1       9.445  19.508  11.954  1.00  0.00    -0.269 OA
HETATM   25  N6  UNL     1      10.271  21.012  10.459  1.00  0.00    -0.275 N
ATOM     26  H6  UNL     1      10.828  21.214   9.628  1.00  0.00     0.189 HD
BRANCH  25  27
HETATM   27  N7  UNL     1       9.637  22.053  11.130  1.00  0.00    -0.343 N
ATOM     28  H72 UNL     1       9.413  21.932  12.118  1.00  0.00     0.176 HD
ATOM     29  H71 UNL     1       9.399  22.918  10.647  1.00  0.00     0.176 HD
ENDBRANCH  25  27
ENDBRANCH   1  23
TORSDOF 7
ENDMDL