MODEL 3
REMARK VINA RESULT: -7.657973916      1.904      3.494
REMARK  7 active torsions:
REMARK  status: ('A' for Active; 'I' for Inactive)
REMARK    1  A    between atoms: N1_1  and  C1_4
REMARK    2  A    between atoms: C2_7  and  N3_8
REMARK    3  A    between atoms: N3_8  and  C3_10
REMARK    4  A    between atoms: C3_10  and  C4_11
REMARK    5  A    between atoms: N6_18  and  C7_19
REMARK    6  A    between atoms: C7_19  and  C8_20
REMARK       I    between atoms: C8_20  and  N7_22
REMARK    7  A    between atoms: N7_22  and  N8_24
ROOT
HETATM    1  C1  UNL     1      10.678  19.918  10.403  1.00  0.00     0.678 A
HETATM    2  N2  UNL     1      11.963  19.839  10.768  1.00  0.00    -0.174 N
ATOM      3  H2  UNL     1      12.359  20.589  11.333  1.00  0.00     0.186 HD
HETATM    4  C2  UNL     1      12.766  18.785  10.409  1.00  0.00     0.150 A
HETATM    5  C5  UNL     1      12.235  17.781   9.654  1.00  0.00     0.111 A
HETATM    6  N5  UNL     1      12.914  16.700   9.240  1.00  0.00    -0.347 N
ATOM      7  H5  UNL     1      13.895  16.622   9.510  1.00  0.00     0.167 HD
HETATM    8  C6  UNL     1      12.387  15.715   8.497  1.00  0.00     0.187 A
HETATM    9  N6  UNL     1      11.087  15.759   8.106  1.00  0.00    -0.300 N
HETATM   10  C9  UNL     1      10.397  16.838   8.514  1.00  0.00     0.278 A
HETATM   11  O3  UNL     1       9.189  16.900   8.164  1.00  0.00    -0.265 OA
HETATM   12  C10 UNL     1      10.895  17.859   9.270  1.00  0.00     0.147 A
HETATM   13  N9  UNL     1      10.172  18.926   9.662  1.00  0.00    -0.184 N
ATOM     14  H9  UNL     1       9.193  18.979   9.380  1.00  0.00     0.184 HD
ENDROOT
BRANCH   9  15
HETATM   15  C7  UNL     1      10.511  14.699   7.303  1.00  0.00     0.237 C
BRANCH  15  16
HETATM   16  C8  UNL     1      10.714  14.934   5.851  1.00  0.00     0.254 C
HETATM   17  O2  UNL     1      11.141  13.977   5.165  1.00  0.00    -0.270 OA
HETATM   18  N7  UNL     1      10.451  16.159   5.223  1.00  0.00    -0.275 N
ATOM     19  H7  UNL     1      10.102  16.944   5.773  1.00  0.00     0.189 HD
BRANCH  18  20
HETATM   20  N8  UNL     1      10.661  16.312   3.864  1.00  0.00    -0.343 N
ATOM     21  H82 UNL     1      10.755  15.477   3.285  1.00  0.00     0.176 HD
ATOM     22  H81 UNL     1      10.721  17.243   3.450  1.00  0.00     0.176 HD
ENDBRANCH  18  20
ENDBRANCH  15  16
ENDBRANCH   9  15
BRANCH   4  23
HETATM   23  N3  UNL     1      13.973  18.769  10.787  1.00  0.00    -0.345 N
ATOM     24  H3  UNL     1      14.640  18.991  10.048  1.00  0.00     0.167 HD
BRANCH  23  25
HETATM   25  C3  UNL     1      14.568  18.502  12.034  1.00  0.00     0.160 C
BRANCH  25  26
HETATM   26  C4  UNL     1      15.291  17.191  12.065  1.00  0.00     0.270 C
HETATM   27  N4  UNL     1      15.443  16.388  10.928  1.00  0.00    -0.057 NA
HETATM   28  O1  UNL     1      15.762  16.832  13.166  1.00  0.00    -0.270 OA
ENDBRANCH  25  26
ENDBRANCH  23  25
ENDBRANCH   4  23
BRANCH   1  29
HETATM   29  N1  UNL     1       9.975  20.944  10.777  1.00  0.00    -0.234 N
ATOM     30  H12 UNL     1      10.392  21.776  11.196  1.00  0.00     0.174 HD
ATOM     31  H11 UNL     1       8.964  20.926  10.649  1.00  0.00     0.174 HD
ENDBRANCH   1  29
TORSDOF 7
ENDMDL