MODEL 4
REMARK VINA RESULT: -6.793884009      3.579      5.492
REMARK  10 active torsions:
REMARK  status: ('A' for Active; 'I' for Inactive)
REMARK    1  A    between atoms: N1_1  and  C1_4
REMARK    2  A    between atoms: N4_15  and  C6_16
REMARK    3  A    between atoms: C6_16  and  C7_17
REMARK    4  A    between atoms: C7_17  and  O3_18
REMARK    5  A    between atoms: C7_17  and  N5_20
REMARK    6  A    between atoms: N5_20  and  N6_21
REMARK       I    between atoms: N6_21  and  C8_23
REMARK    7  A    between atoms: C8_23  and  C9_25
REMARK    8  A    between atoms: C9_25  and  N7_26
REMARK    9  A    between atoms: C9_25  and  C10_30
REMARK   10  A    between atoms: C10_30  and  N8_31
ROOT
HETATM    1  C7  UNL     1       9.830  16.194  13.325  1.00  0.00     0.233 C
ENDROOT
BRANCH   1   2
HETATM    2  C6  UNL     1       8.513  15.470  13.062  1.00  0.00     0.236 C
BRANCH   2   3
HETATM    3  N4  UNL     1       8.543  15.337  11.570  1.00  0.00    -0.289 N
HETATM    4  C2  UNL     1       8.919  16.046  10.443  1.00  0.00     0.148 A
HETATM    5  N2  UNL     1       9.345  17.218   9.858  1.00  0.00    -0.175 N
HETATM    6  C3  UNL     1       8.778  14.918   9.651  1.00  0.00     0.145 A
HETATM    7  C1  UNL     1       9.618  17.237   8.532  1.00  0.00     0.680 A
ATOM      8  H2  UNL     1       9.454  18.064  10.418  1.00  0.00     0.186 HD
HETATM    9  N3  UNL     1       9.483  16.152   7.769  1.00  0.00    -0.155 N
HETATM   10  C4  UNL     1       9.062  14.969   8.292  1.00  0.00     0.279 A
ATOM     11  H3  UNL     1       9.699  16.210   6.774  1.00  0.00     0.187 HD
HETATM   12  O1  UNL     1       8.951  13.970   7.614  1.00  0.00    -0.266 OA
HETATM   13  C5  UNL     1       8.385  14.169  10.802  1.00  0.00     0.269 A
HETATM   14  O2  UNL     1       8.047  12.956  10.957  1.00  0.00    -0.267 OA
BRANCH   7  15
HETATM   15  N1  UNL     1      10.052  18.360   7.992  1.00  0.00    -0.234 N
ATOM     16  H12 UNL     1       9.925  19.240   8.493  1.00  0.00     0.174 HD
ATOM     17  H11 UNL     1      10.490  18.322   7.072  1.00  0.00     0.174 HD
ENDBRANCH   7  15
ENDBRANCH   2   3
ENDBRANCH   1   2
BRANCH   1  18
HETATM   18  O3  UNL     1      10.748  15.300  13.726  1.00  0.00    -0.336 OA
ATOM     19  H3  UNL     1      10.419  14.840  14.490  1.00  0.00     0.220 HD
ENDBRANCH   1  18
BRANCH   1  20
HETATM   20  N5  UNL     1      10.247  17.453  13.261  1.00  0.00    -0.300 NA
BRANCH  20  21
HETATM   21  N6  UNL     1      10.661  18.724  13.204  1.00  0.00    -0.199 N
HETATM   22  C8  UNL     1      11.257  19.335  12.052  1.00  0.00     0.278 C
HETATM   23  O4  UNL     1      11.486  18.564  11.107  1.00  0.00    -0.269 OA
ATOM     24  H6  UNL     1      10.545  19.299  14.039  1.00  0.00     0.205 HD
BRANCH  22  25
HETATM   25  C9  UNL     1      11.548  20.756  11.971  1.00  0.00     0.302 C
BRANCH  25  26
HETATM   26  N7  UNL     1      12.469  21.018  10.820  1.00  0.00    -0.065 N
ATOM     27  H73 UNL     1      13.449  20.909  11.080  1.00  0.00     0.275 HD
ATOM     28  H72 UNL     1      12.421  20.283  10.114  1.00  0.00     0.275 HD
ATOM     29  H71 UNL     1      12.276  21.940  10.428  1.00  0.00     0.275 HD
ENDBRANCH  25  26
BRANCH  25  30
HETATM   30  C10 UNL     1      10.478  21.765  11.951  1.00  0.00     0.272 C
BRANCH  30  31
HETATM   31  N8  UNL     1       9.545  21.335  10.840  1.00  0.00    -0.077 N
ATOM     32  H83 UNL     1       9.005  20.497  11.057  1.00  0.00     0.274 HD
ATOM     33  H82 UNL     1       8.748  21.958  10.708  1.00  0.00     0.274 HD
ATOM     34  H81 UNL     1      10.136  21.243  10.014  1.00  0.00     0.274 HD
ENDBRANCH  30  31
ENDBRANCH  25  30
ENDBRANCH  22  25
ENDBRANCH  20  21
ENDBRANCH   1  20
TORSDOF 10
ENDMDL