MODEL 5
REMARK VINA RESULT: -6.599801498      2.766      4.508
REMARK  8 active torsions:
REMARK  status: ('A' for Active; 'I' for Inactive)
REMARK    1  A    between atoms: O1_2  and  C2_3
REMARK    2  A    between atoms: C2_3  and  N1_4
REMARK    3  A    between atoms: C2_3  and  C3_8
REMARK       I    between atoms: C3_8  and  N2_10
REMARK    4  A    between atoms: N2_10  and  C4_12
REMARK    5  A    between atoms: C5_15  and  N4_16
REMARK       I    between atoms: N6_21  and  C6_22
REMARK    6  A    between atoms: C6_22  and  C7_24
REMARK    7  A    between atoms: C7_24  and  N7_25
REMARK    8  A    between atoms: C7_24  and  C8_29
ROOT
HETATM    1  C4  UNL     1      11.167  18.440   9.532  1.00  0.00     0.194 A
HETATM    2  N3  UNL     1      12.491  18.383   9.692  1.00  0.00    -0.170 N
ATOM      3  H3  UNL     1      12.981  19.174  10.112  1.00  0.00     0.186 HD
HETATM    4  C5  UNL     1      13.186  17.298   9.309  1.00  0.00     0.692 A
HETATM    5  N5  UNL     1      12.538  16.273   8.765  1.00  0.00    -0.120 N
ATOM      6  H5  UNL     1      13.082  15.459   8.482  1.00  0.00     0.206 HD
HETATM    7  N6  UNL     1      11.207  16.244   8.564  1.00  0.00    -0.167 N
HETATM    8  C6  UNL     1      10.638  15.107   7.953  1.00  0.00     0.285 C
HETATM    9  O3  UNL     1      11.450  14.169   7.596  1.00  0.00    -0.268 OA
HETATM   10  C9  UNL     1      10.535  17.338   8.954  1.00  0.00     0.314 A
HETATM   11  O5  UNL     1       9.308  17.439   8.822  1.00  0.00    -0.262 OA
ENDROOT
BRANCH   1  12
HETATM   12  N2  UNL     1      10.524  19.478   9.901  1.00  0.00    -0.304 N
HETATM   13  C3  UNL     1      10.284  19.854  11.226  1.00  0.00     0.280 C
HETATM   14  O2  UNL     1       9.193  19.560  11.769  1.00  0.00    -0.268 OA
ATOM     15  H2  UNL     1      10.154  20.084   9.169  1.00  0.00     0.170 HD
BRANCH  13  16
HETATM   16  C2  UNL     1      11.299  20.595  12.002  1.00  0.00     0.411 C
BRANCH  16  17
HETATM   17  O1  UNL     1      10.743  21.287  13.048  1.00  0.00    -0.357 OA
HETATM   18  C1  UNL     1      11.268  20.919  14.284  1.00  0.00     0.204 C
ENDBRANCH  16  17
BRANCH  16  19
HETATM   19  N1  UNL     1      12.022  21.445  11.078  1.00  0.00    -0.044 N
ATOM     20  H13 UNL     1      13.019  21.448  11.293  1.00  0.00     0.278 HD
ATOM     21  H12 UNL     1      12.052  21.028  10.148  1.00  0.00     0.278 HD
ATOM     22  H11 UNL     1      11.655  22.395  11.039  1.00  0.00     0.278 HD
ENDBRANCH  16  19
ENDBRANCH  13  16
ENDBRANCH   1  12
BRANCH   4  23
HETATM   23  N4  UNL     1      14.462  17.312   9.494  1.00  0.00    -0.233 N
ATOM     24  H42 UNL     1      14.929  17.957  10.132  1.00  0.00     0.174 HD
ATOM     25  H41 UNL     1      15.022  16.640   8.970  1.00  0.00     0.174 HD
ENDBRANCH   4  23
BRANCH   8  26
HETATM   26  C7  UNL     1       9.233  14.824   7.654  1.00  0.00     0.365 C
BRANCH  26  27
HETATM   27  N7  UNL     1       8.907  15.276   6.275  1.00  0.00    -0.058 N
ATOM     28  H73 UNL     1       8.606  16.250   6.252  1.00  0.00     0.275 HD
ATOM     29  H72 UNL     1       9.741  15.363   5.695  1.00  0.00     0.275 HD
ATOM     30  H71 UNL     1       8.215  14.652   5.859  1.00  0.00     0.275 HD
ENDBRANCH  26  27
BRANCH  26  31
HETATM   31  C8  UNL     1       8.991  13.339   7.587  1.00  0.00     0.271 C
HETATM   32  N8  UNL     1       8.801  12.720   6.320  1.00  0.00    -0.060 NA
HETATM   33  O4  UNL     1       8.951  12.629   8.617  1.00  0.00    -0.274 OA
ENDBRANCH  26  31
ENDBRANCH   8  26
TORSDOF 8
ENDMDL