MODEL 3
REMARK VINA RESULT: -6.471885744      5.430      7.207
REMARK  8 active torsions:
REMARK  status: ('A' for Active; 'I' for Inactive)
REMARK       I    between atoms: C1_4  and  N3_6
REMARK    1  A    between atoms: N3_6  and  C2_7
REMARK    2  A    between atoms: N5_11  and  N6_13
REMARK    3  A    between atoms: C4_16  and  S1_17
REMARK    4  A    between atoms: S1_17  and  N7_18
REMARK    5  A    between atoms: N8_24  and  C6_25
REMARK    6  A    between atoms: C6_25  and  C7_26
REMARK    7  A    between atoms: C7_26  and  N9_27
REMARK    8  A    between atoms: C7_26  and  C8_31
ROOT
HETATM    1  C2  UNL     1      10.644  17.215   9.126  1.00  0.00     0.266 A
HETATM    2  N4  UNL     1      10.669  17.107   7.739  1.00  0.00    -0.300 N
ATOM      3  H4  UNL     1      10.909  17.923   7.175  1.00  0.00     0.171 HD
HETATM    4  C3  UNL     1      10.382  15.937   7.130  1.00  0.00     0.148 A
HETATM    5  N5  UNL     1      10.379  15.836   5.868  1.00  0.00    -0.291 N
ATOM      6  H5  UNL     1      10.153  14.917   5.487  1.00  0.00     0.188 HD
HETATM    7  C4  UNL     1      10.064  14.853   7.944  1.00  0.00     0.140 A
HETATM    8  C5  UNL     1      10.039  14.952   9.305  1.00  0.00     0.124 A
HETATM    9  N8  UNL     1      10.327  16.123   9.861  1.00  0.00    -0.313 N
ENDROOT
BRANCH   9  10
HETATM   10  C6  UNL     1      10.329  16.300  11.321  1.00  0.00     0.176 C
BRANCH  10  11
HETATM   11  C7  UNL     1       8.952  16.554  11.833  1.00  0.00     0.301 C
BRANCH  11  12
HETATM   12  N9  UNL     1       8.627  17.974  11.883  1.00  0.00    -0.064 N
ATOM     13  H93 UNL     1       7.861  18.152  12.532  1.00  0.00     0.275 HD
ATOM     14  H92 UNL     1       9.364  18.502  12.349  1.00  0.00     0.275 HD
ATOM     15  H91 UNL     1       8.425  18.363  10.962  1.00  0.00     0.275 HD
ENDBRANCH  11  12
BRANCH  11  16
HETATM   16  C8  UNL     1       8.912  16.001  13.235  1.00  0.00     0.206 C
HETATM   17  O3  UNL     1       9.755  16.389  14.061  1.00  0.00    -0.646 OA
HETATM   18  O4  UNL     1       7.944  15.084  13.542  1.00  0.00    -0.646 OA
ENDBRANCH  11  16
ENDBRANCH  10  11
ENDBRANCH   9  10
BRANCH   1  19
HETATM   19  N3  UNL     1      10.890  18.290   9.591  1.00  0.00    -0.338 NA
HETATM   20  C1  UNL     1      11.206  19.506  10.031  1.00  0.00     0.264 C
HETATM   21  N1  UNL     1      10.366  20.510  10.128  1.00  0.00    -0.362 N
HETATM   22  N2  UNL     1      12.561  19.852  10.454  1.00  0.00    -0.049 NA
ATOM     23  H12 UNL     1      10.609  21.441  10.465  1.00  0.00     0.159 HD
ATOM     24  H11 UNL     1       9.420  20.268   9.832  1.00  0.00     0.159 HD
ENDBRANCH   1  19
BRANCH   7  25
HETATM   25  S1  UNL     1       9.705  13.330   7.195  1.00  0.00     0.261 S
HETATM   26  O1  UNL     1       8.396  13.413   6.429  1.00  0.00    -0.201 OA
HETATM   27  O2  UNL     1      10.759  13.038   6.161  1.00  0.00    -0.201 OA
BRANCH  25  28
HETATM   28  N7  UNL     1       9.692  12.009   8.285  1.00  0.00    -0.324 N
ATOM     29  H72 UNL     1       8.999  11.264   8.227  1.00  0.00     0.169 HD
ATOM     30  H71 UNL     1      10.434  12.045   8.984  1.00  0.00     0.169 HD
ENDBRANCH  25  28
ENDBRANCH   7  25
BRANCH   5  31
HETATM   31  N6  UNL     1      10.645  16.815   4.962  1.00  0.00    -0.344 N
ATOM     32  H62 UNL     1      11.352  17.493   5.249  1.00  0.00     0.176 HD
ATOM     33  H61 UNL     1      10.219  16.940   4.044  1.00  0.00     0.176 HD
ENDBRANCH   5  31
TORSDOF 8
ENDMDL