MODEL 4
REMARK VINA RESULT: -7.880621686      2.053      6.490
REMARK  9 active torsions:
REMARK  status: ('A' for Active; 'I' for Inactive)
REMARK    1  A    between atoms: N1_1  and  C1_4
REMARK    2  A    between atoms: C2_7  and  N3_8
REMARK    3  A    between atoms: N3_8  and  N4_10
REMARK    4  A    between atoms: C3_15  and  N6_16
REMARK    5  A    between atoms: N6_16  and  C4_18
REMARK    6  A    between atoms: C4_18  and  C5_19
REMARK    7  A    between atoms: C5_19  and  C6_20
REMARK    8  A    between atoms: C6_20  and  C7_21
REMARK       I    between atoms: C7_21  and  N7_23
REMARK    9  A    between atoms: N7_23  and  C8_25
ROOT
HETATM    1  C1  UNL     1      10.150  16.097   7.160  1.00  0.00     0.184 C
HETATM    2  N2  UNL     1       9.637  16.965   8.061  1.00  0.00    -0.170 N
ATOM      3  H2  UNL     1       8.662  17.214   7.893  1.00  0.00     0.186 HD
HETATM    4  C2  UNL     1      10.177  17.553   9.130  1.00  0.00     0.712 C
HETATM    5  N5  UNL     1      11.491  17.469   9.480  1.00  0.00    -0.021 N
ATOM      6  H5  UNL     1      11.719  17.864  10.392  1.00  0.00     0.203 HD
HETATM    7  C3  UNL     1      12.527  16.950   8.819  1.00  0.00     0.695 C
HETATM    8  N12 UNL     1      12.500  16.112   7.777  1.00  0.00    -0.153 N
ATOM      9  H12 UNL     1      13.409  15.748   7.494  1.00  0.00     0.187 HD
HETATM   10  C9  UNL     1      11.443  15.667   7.034  1.00  0.00     0.303 C
HETATM   11  O2  UNL     1      11.667  14.792   6.160  1.00  0.00    -0.263 OA
ENDROOT
BRANCH   7  12
HETATM   12  N6  UNL     1      13.681  17.286   9.213  1.00  0.00    -0.225 N
ATOM     13  H6  UNL     1      14.249  17.925   8.656  1.00  0.00     0.177 HD
BRANCH  12  14
HETATM   14  C4  UNL     1      14.188  16.756  10.457  1.00  0.00     0.138 C
BRANCH  14  15
HETATM   15  C5  UNL     1      14.628  17.876  11.382  1.00  0.00     0.029 C
BRANCH  15  16
HETATM   16  C6  UNL     1      14.295  19.178  10.692  1.00  0.00     0.105 C
BRANCH  16  17
HETATM   17  C7  UNL     1      13.416  19.966  11.577  1.00  0.00     0.235 C
HETATM   18  O1  UNL     1      13.605  19.927  12.811  1.00  0.00    -0.273 OA
HETATM   19  N7  UNL     1      12.391  20.737  11.019  1.00  0.00    -0.158 N
ATOM     20  H7  UNL     1      12.611  21.275  10.181  1.00  0.00     0.187 HD
BRANCH  19  21
HETATM   21  C8  UNL     1      11.191  20.819  11.483  1.00  0.00     0.710 A
HETATM   22  N8  UNL     1      10.156  21.322  10.785  1.00  0.00    -0.117 N
HETATM   23  N9  UNL     1       9.079  21.251  11.567  1.00  0.00     0.006 NA
ATOM     24  H8  UNL     1      10.189  21.690   9.835  1.00  0.00     0.202 HD
HETATM   25  N10 UNL     1       9.397  20.720  12.734  1.00  0.00     0.006 NA
HETATM   26  N11 UNL     1      10.690  20.460  12.670  1.00  0.00    -0.117 N
ATOM     27  H11 UNL     1      11.235  20.043  13.425  1.00  0.00     0.202 HD
ENDBRANCH  19  21
ENDBRANCH  16  17
ENDBRANCH  15  16
ENDBRANCH  14  15
ENDBRANCH  12  14
ENDBRANCH   7  12
BRANCH   4  28
HETATM   28  N3  UNL     1       9.377  18.231   9.844  1.00  0.00    -0.138 N
ATOM     29  H3  UNL     1       8.971  19.069   9.428  1.00  0.00     0.205 HD
BRANCH  28  30
HETATM   30  N4  UNL     1       9.011  17.922  11.148  1.00  0.00    -0.331 N
ATOM     31  H42 UNL     1       9.740  17.525  11.741  1.00  0.00     0.177 HD
ATOM     32  H41 UNL     1       8.082  18.061  11.546  1.00  0.00     0.177 HD
ENDBRANCH  28  30
ENDBRANCH   4  28
BRANCH   1  33
HETATM   33  N1  UNL     1       9.316  15.608   6.306  1.00  0.00    -0.381 N
ATOM     34  H12 UNL     1       8.338  15.605   6.599  1.00  0.00     0.157 HD
ATOM     35  H11 UNL     1       9.717  15.277   5.428  1.00  0.00     0.157 HD
ENDBRANCH   1  33
TORSDOF 9
ENDMDL