MODEL 1
REMARK VINA RESULT: -8.319164367      0.000      0.000
REMARK  4 active torsions:
REMARK  status: ('A' for Active; 'I' for Inactive)
REMARK    1  A    between atoms: C1_2  and  C2_4
REMARK    2  A    between atoms: N3_7  and  C3_8
REMARK    3  A    between atoms: C3_8  and  C4_9
REMARK       I    between atoms: C4_9  and  N4_11
REMARK    4  A    between atoms: N4_11  and  C5_13
ROOT
HETATM    1  C4  UNL     1       9.621  17.070  10.252  1.00  0.00     0.244 C
HETATM    2  O2  UNL     1      10.801  17.473  10.056  1.00  0.00    -0.271 OA
HETATM    3  N4  UNL     1       9.018  16.242   9.295  1.00  0.00    -0.310 N
ATOM      4  H4  UNL     1       8.064  15.921   9.460  1.00  0.00     0.170 HD
ENDROOT
BRANCH   1   5
HETATM    5  C3  UNL     1       8.957  17.512  11.497  1.00  0.00     0.272 C
BRANCH   5   6
HETATM    6  N3  UNL     1       9.543  18.698  12.051  1.00  0.00    -0.222 N
HETATM    7  N2  UNL     1      10.286  18.835  13.137  1.00  0.00    -0.274 N
HETATM    8  C2  UNL     1      10.637  20.120  13.308  1.00  0.00     0.184 A
ATOM      9  H2  UNL     1      10.556  18.071  13.758  1.00  0.00     0.189 HD
HETATM   10  C9  UNL     1      10.063  20.793  12.249  1.00  0.00     0.294 A
HETATM   11  N8  UNL     1       9.395  19.903  11.486  1.00  0.00    -0.247 N
HETATM   12  O5  UNL     1      10.194  22.038  12.097  1.00  0.00    -0.264 OA
ATOM     13  H8  UNL     1       8.871  20.111  10.636  1.00  0.00     0.192 HD
BRANCH   8  14
HETATM   14  C1  UNL     1      11.450  20.689  14.379  1.00  0.00     0.288 C
HETATM   15  N1  UNL     1      10.861  21.387  15.452  1.00  0.00    -0.056 NA
HETATM   16  O1  UNL     1      12.699  20.562  14.357  1.00  0.00    -0.269 OA
ENDBRANCH   8  14
ENDBRANCH   5   6
ENDBRANCH   1   5
BRANCH   3  17
HETATM   17  C5  UNL     1       9.677  15.831   8.107  1.00  0.00     0.127 C
HETATM   18  C6  UNL     1       9.814  14.508   7.928  1.00  0.00     0.124 C
HETATM   19  C7  UNL     1      10.441  13.826   6.814  1.00  0.00     0.252 C
HETATM   20  O3  UNL     1      10.656  12.603   7.031  1.00  0.00    -0.268 OA
HETATM   21  N5  UNL     1      10.834  14.334   5.544  1.00  0.00    -0.274 N
HETATM   22  C8  UNL     1      10.845  15.707   5.122  1.00  0.00     0.341 C
ATOM     23  H5  UNL     1      11.144  13.646   4.857  1.00  0.00     0.173 HD
HETATM   24  O4  UNL     1      11.134  15.858   3.903  1.00  0.00    -0.245 OA
HETATM   25  N6  UNL     1      10.573  16.848   5.914  1.00  0.00    -0.250 N
HETATM   26  N7  UNL     1      10.118  16.860   7.238  1.00  0.00    -0.281 N
ATOM     27  H6  UNL     1      10.725  17.756   5.475  1.00  0.00     0.192 HD
ATOM     28  H7  UNL     1      10.101  17.788   7.659  1.00  0.00     0.188 HD
ENDBRANCH   3  17
TORSDOF 4
ENDMDL