MODEL 2
REMARK VINA RESULT: -7.203676339      3.011      6.371
REMARK  9 active torsions:
REMARK  status: ('A' for Active; 'I' for Inactive)
REMARK    1  A    between atoms: C2_2  and  C3_3
REMARK    2  A    between atoms: C7_8  and  C8_9
REMARK    3  A    between atoms: C8_9  and  C9_11
REMARK    4  A    between atoms: C9_11  and  O3_12
REMARK    5  A    between atoms: C10_14  and  O4_15
REMARK    6  A    between atoms: C10_14  and  C11_17
REMARK    7  A    between atoms: C12_18  and  O5_19
REMARK    8  A    between atoms: N1_21  and  N2_22
REMARK    9  A    between atoms: N4_31  and  O8_32
ROOT
HETATM    1  C3  UNL     1     -11.707 -18.374  10.401  1.00  0.00     0.069 C
HETATM    2  C4  UNL     1     -12.674 -18.521  11.290  1.00  0.00     0.014 C
HETATM    3  C5  UNL     1     -14.067 -18.076  10.929  1.00  0.00     0.054 C
HETATM    4  C6  UNL     1     -12.362 -19.085  12.574  1.00  0.00     0.174 C
HETATM    5  O1  UNL     1     -13.290 -19.425  13.360  1.00  0.00    -0.292 OA
HETATM    6  C7  UNL     1     -10.962 -19.275  12.995  1.00  0.00     0.195 C
HETATM    7  C10 UNL     1      -9.973 -18.577  12.122  1.00  0.00     0.213 C
HETATM    8  N4  UNL     1     -10.378 -18.823  10.718  1.00  0.00    -0.218 N
ENDROOT
BRANCH   7   9
HETATM    9  O4  UNL     1      -8.711 -19.218  12.315  1.00  0.00    -0.364 OA
ATOM     10  H4  UNL     1      -8.042 -18.628  11.987  1.00  0.00     0.213 HD
ENDBRANCH   7   9
BRANCH   7  11
HETATM   11  C11 UNL     1      -9.724 -17.156  12.358  1.00  0.00     0.121 A
HETATM   12  C12 UNL     1      -8.886 -16.483  11.438  1.00  0.00     0.182 A
HETATM   13  N1  UNL     1      -8.594 -15.186  11.546  1.00  0.00    -0.188 N
HETATM   14  C13 UNL     1      -9.131 -14.516  12.578  1.00  0.00     0.350 A
HETATM   15  O6  UNL     1      -8.866 -13.287  12.695  1.00  0.00    -0.244 OA
HETATM   16  N3  UNL     1      -9.928 -15.115  13.470  1.00  0.00    -0.273 N
HETATM   17  C14 UNL     1     -10.256 -16.448  13.398  1.00  0.00     0.265 A
ATOM     18  H3  UNL     1     -10.309 -14.560  14.236  1.00  0.00     0.173 HD
HETATM   19  O7  UNL     1     -11.012 -16.902  14.293  1.00  0.00    -0.267 OA
BRANCH  12  20
HETATM   20  O5  UNL     1      -8.309 -17.133  10.362  1.00  0.00    -0.344 OA
ATOM     21  H5  UNL     1      -8.551 -16.931   9.465  1.00  0.00     0.219 HD
ENDBRANCH  12  20
BRANCH  13  22
HETATM   22  N2  UNL     1      -7.760 -14.526  10.626  1.00  0.00    -0.332 N
ATOM     23  H22 UNL     1      -7.860 -14.696   9.626  1.00  0.00     0.177 HD
ATOM     24  H21 UNL     1      -7.039 -13.868  10.921  1.00  0.00     0.177 HD
ENDBRANCH  13  22
ENDBRANCH   7  11
BRANCH   6  25
HETATM   25  C8  UNL     1     -10.716 -20.772  13.008  1.00  0.00     0.167 C
HETATM   26  O2  UNL     1     -10.392 -21.352  14.011  1.00  0.00    -0.295 OA
BRANCH  25  27
HETATM   27  C9  UNL     1     -10.874 -21.554  11.774  1.00  0.00     0.243 C
BRANCH  27  28
HETATM   28  O3  UNL     1      -9.649 -22.086  11.340  1.00  0.00    -0.394 OA
ATOM     29  H3  UNL     1      -9.636 -23.033  11.410  1.00  0.00     0.209 HD
ENDBRANCH  27  28
ENDBRANCH  25  27
ENDBRANCH   6  25
BRANCH   8  30
HETATM   30  O8  UNL     1      -9.615 -19.435   9.803  1.00  0.00    -0.284 OA
ATOM     31  H8  UNL     1      -9.896 -19.509   8.898  1.00  0.00     0.245 HD
ENDBRANCH   8  30
BRANCH   1  32
HETATM   32  C2  UNL     1     -11.948 -17.797   9.097  1.00  0.00     0.022 C
HETATM   33  C1  UNL     1     -11.490 -16.715   8.573  1.00  0.00     0.013 C
ENDBRANCH   1  32
TORSDOF 9
ENDMDL