MODEL 5
REMARK VINA RESULT: -6.957681217      4.977      6.873
REMARK  10 active torsions:
REMARK  status: ('A' for Active; 'I' for Inactive)
REMARK    1  A    between atoms: N1_3  and  N2_5
REMARK       I    between atoms: N2_5  and  C3_7
REMARK    2  A    between atoms: C3_7  and  C4_9
REMARK    3  A    between atoms: C5_10  and  S1_11
REMARK    4  A    between atoms: C7_14  and  O3_15
REMARK    5  A    between atoms: C8_18  and  O5_19
REMARK    6  A    between atoms: C8_18  and  C9_21
REMARK    7  A    between atoms: C9_21  and  O6_22
REMARK    8  A    between atoms: C9_21  and  C10_24
REMARK    9  A    between atoms: C10_24  and  O7_25
REMARK   10  A    between atoms: C11_30  and  N4_31
ROOT
HETATM    1  C4  UNL     1      -9.172 -15.659  10.689  1.00  0.00     0.121 A
HETATM    2  C5  UNL     1      -9.405 -16.505  11.758  1.00  0.00     0.157 A
HETATM    3  O8  UNL     1      -8.648 -16.096  12.734  1.00  0.00    -0.228 OA
HETATM    4  N3  UNL     1      -7.952 -15.067  12.394  1.00  0.00    -0.243 N
ATOM      5  H3  UNL     1      -7.288 -14.570  12.988  1.00  0.00     0.196 HD
HETATM    6  C11 UNL     1      -8.251 -14.760  11.118  1.00  0.00     0.138 A
ENDROOT
BRANCH   2   7
HETATM    7  S1  UNL     1     -10.485 -17.860  11.829  1.00  0.00    -0.020 SA
HETATM    8  C6  UNL     1     -11.033 -18.196  13.461  1.00  0.00     0.242 C
HETATM    9  O2  UNL     1     -11.561 -17.533  14.299  1.00  0.00    -0.280 OA
HETATM   10  C7  UNL     1     -10.673 -19.627  13.616  1.00  0.00     0.344 C
HETATM   11  O4  UNL     1      -9.579 -19.950  12.912  1.00  0.00    -0.306 OA
HETATM   12  C8  UNL     1      -9.561 -19.398  11.664  1.00  0.00     0.250 C
BRANCH  10  13
HETATM   13  O3  UNL     1     -11.790 -20.425  13.384  1.00  0.00    -0.364 OA
ATOM     14  H3  UNL     1     -11.785 -21.169  13.977  1.00  0.00     0.213 HD
ENDBRANCH  10  13
BRANCH  12  15
HETATM   15  O5  UNL     1      -8.236 -19.097  11.361  1.00  0.00    -0.355 OA
ATOM     16  H5  UNL     1      -7.717 -19.888  11.437  1.00  0.00     0.214 HD
ENDBRANCH  12  15
BRANCH  12  17
HETATM   17  C9  UNL     1     -10.210 -20.290  10.655  1.00  0.00     0.215 C
BRANCH  17  18
HETATM   18  O6  UNL     1      -9.299 -21.202  10.184  1.00  0.00    -0.387 OA
ATOM     19  H6  UNL     1      -9.657 -21.659   9.432  1.00  0.00     0.210 HD
ENDBRANCH  17  18
BRANCH  17  20
HETATM   20  C10 UNL     1     -10.827 -19.524   9.512  1.00  0.00     0.202 C
BRANCH  20  21
HETATM   21  O7  UNL     1      -9.814 -19.102   8.657  1.00  0.00    -0.398 OA
ATOM     22  H7  UNL     1      -9.031 -19.609   8.837  1.00  0.00     0.209 HD
ENDBRANCH  20  21
ENDBRANCH  17  20
ENDBRANCH  12  17
ENDBRANCH   2   7
BRANCH   1  23
HETATM   23  C3  UNL     1      -9.825 -15.786   9.417  1.00  0.00     0.277 C
HETATM   24  N2  UNL     1      -9.160 -16.269   8.278  1.00  0.00    -0.266 N
ATOM     25  H2  UNL     1      -8.179 -16.546   8.329  1.00  0.00     0.190 HD
HETATM   26  O1  UNL     1     -11.034 -15.456   9.304  1.00  0.00    -0.266 OA
BRANCH  24  27
HETATM   27  N1  UNL     1      -9.879 -16.366   7.048  1.00  0.00    -0.313 N
HETATM   28  C2  UNL     1      -9.769 -15.436   6.171  1.00  0.00     0.076 C
HETATM   29  C1  UNL     1     -10.481 -15.472   4.885  1.00  0.00     0.056 C
ATOM     30  H1  UNL     1     -10.477 -17.172   6.866  1.00  0.00     0.185 HD
ENDBRANCH  24  27
ENDBRANCH   1  23
BRANCH   6  31
HETATM   31  N4  UNL     1      -7.721 -13.785  10.491  1.00  0.00    -0.383 N
ATOM     32  H42 UNL     1      -7.631 -12.849  10.886  1.00  0.00     0.157 HD
ATOM     33  H41 UNL     1      -7.321 -13.762   9.553  1.00  0.00     0.157 HD
ENDBRANCH   6  31
TORSDOF 10
ENDMDL