MODEL 5
REMARK VINA RESULT: -7.142867654      2.436      3.830
REMARK  8 active torsions:
REMARK  status: ('A' for Active; 'I' for Inactive)
REMARK    1  A    between atoms: C1_2  and  C2_4
REMARK    2  A    between atoms: C2_4  and  S1_5
REMARK    3  A    between atoms: S1_5  and  C3_6
REMARK    4  A    between atoms: C5_14  and  C6_15
REMARK    5  A    between atoms: C7_18  and  O2_19
REMARK    6  A    between atoms: C8_21  and  N6_22
REMARK    7  A    between atoms: C10_27  and  N7_28
REMARK    8  A    between atoms: C11_32  and  N8_33
ROOT
HETATM    1  C6  UNL     1     -10.726 -16.765   9.904  1.00  0.00     0.181 C
HETATM    2  N5  UNL     1     -11.007 -18.117  10.192  1.00  0.00    -0.382 N
ATOM      3  H5  UNL     1     -11.956 -18.439  10.384  1.00  0.00     0.156 HD
HETATM    4  C7  UNL     1      -9.895 -19.009  10.202  1.00  0.00     0.244 C
HETATM    5  C8  UNL     1      -9.238 -19.180  11.534  1.00  0.00     0.233 C
HETATM    6  C9  UNL     1      -8.457 -17.987  11.984  1.00  0.00     0.072 C
HETATM    7  C10 UNL     1      -9.196 -16.696  11.917  1.00  0.00     0.218 C
HETATM    8  C11 UNL     1      -9.502 -16.179  10.571  1.00  0.00     0.243 C
ENDROOT
BRANCH   1   9
HETATM    9  C5  UNL     1     -10.609 -16.419   8.463  1.00  0.00     0.137 A
HETATM   10  N4  UNL     1     -10.613 -17.154   7.369  1.00  0.00    -0.174 N
HETATM   11  C4  UNL     1     -10.401 -16.395   6.279  1.00  0.00     0.722 A
ATOM     12  H4  UNL     1     -10.758 -18.163   7.352  1.00  0.00     0.185 HD
HETATM   13  N3  UNL     1     -10.252 -16.332   4.943  1.00  0.00    -0.128 N
HETATM   14  N10 UNL     1     -10.263 -15.141   6.722  1.00  0.00    -0.059 N
HETATM   15  N2  UNL     1     -10.032 -15.074   4.585  1.00  0.00    -0.263 N
ATOM     16  H3  UNL     1     -10.302 -17.127   4.306  1.00  0.00     0.205 HD
HETATM   17  C3  UNL     1     -10.033 -14.303   5.682  1.00  0.00     0.199 A
ATOM     18  H2  UNL     1      -9.886 -14.746   3.630  1.00  0.00     0.189 HD
HETATM   19  N9  UNL     1     -10.388 -15.144   8.027  1.00  0.00    -0.263 N
ATOM     20  H9  UNL     1     -10.329 -14.319   8.625  1.00  0.00     0.189 HD
BRANCH  17  21
HETATM   21  S1  UNL     1      -9.736 -12.550   5.812  1.00  0.00    -0.081 SA
BRANCH  21  22
HETATM   22  C2  UNL     1      -8.751 -12.165   7.246  1.00  0.00     0.181 C
BRANCH  22  23
HETATM   23  C1  UNL     1      -7.419 -11.648   6.908  1.00  0.00     0.240 C
HETATM   24  N1  UNL     1      -6.962 -11.616   5.548  1.00  0.00    -0.061 NA
HETATM   25  O1  UNL     1      -6.656 -11.232   7.797  1.00  0.00    -0.276 OA
ENDBRANCH  22  23
ENDBRANCH  21  22
ENDBRANCH  17  21
ENDBRANCH   1   9
BRANCH   8  26
HETATM   26  N8  UNL     1      -8.428 -16.173   9.620  1.00  0.00    -0.071 N
ATOM     27  H83 UNL     1      -8.108 -17.112   9.383  1.00  0.00     0.274 HD
ATOM     28  H82 UNL     1      -8.731 -15.890   8.687  1.00  0.00     0.274 HD
ATOM     29  H81 UNL     1      -7.679 -15.585   9.984  1.00  0.00     0.274 HD
ENDBRANCH   8  26
BRANCH   4  30
HETATM   30  O2  UNL     1     -10.357 -20.273   9.801  1.00  0.00    -0.375 OA
ATOM     31  H2  UNL     1      -9.622 -20.743   9.423  1.00  0.00     0.212 HD
ENDBRANCH   4  30
BRANCH   7  32
HETATM   32  N7  UNL     1     -10.370 -16.786  12.721  1.00  0.00    -0.073 N
ATOM     33  H73 UNL     1     -11.168 -16.313  12.296  1.00  0.00     0.274 HD
ATOM     34  H72 UNL     1     -10.755 -17.731  12.740  1.00  0.00     0.274 HD
ATOM     35  H71 UNL     1     -10.164 -16.432  13.656  1.00  0.00     0.274 HD
ENDBRANCH   7  32
BRANCH   5  36
HETATM   36  N6  UNL     1     -10.148 -19.722  12.486  1.00  0.00    -0.071 N
ATOM     37  H63 UNL     1      -9.814 -19.595  13.442  1.00  0.00     0.274 HD
ATOM     38  H62 UNL     1     -11.004 -19.169  12.547  1.00  0.00     0.274 HD
ATOM     39  H61 UNL     1     -10.347 -20.702  12.284  1.00  0.00     0.274 HD
ENDBRANCH   5  36
TORSDOF 8
ENDMDL