MODEL 1
REMARK VINA RESULT: -7.885358432      0.000      0.000
REMARK  9 active torsions:
REMARK  status: ('A' for Active; 'I' for Inactive)
REMARK    1  A    between atoms: O1_2  and  C2_3
REMARK    2  A    between atoms: C2_3  and  C3_4
REMARK       I    between atoms: C3_4  and  N1_6
REMARK    3  A    between atoms: N1_6  and  C4_8
REMARK    4  A    between atoms: C5_11  and  N3_12
REMARK    5  A    between atoms: N3_12  and  C6_14
REMARK    6  A    between atoms: N5_18  and  C9_19
REMARK    7  A    between atoms: C9_19  and  O3_20
REMARK    8  A    between atoms: C9_19  and  N6_22
REMARK    9  A    between atoms: N6_22  and  N7_23
ROOT
HETATM    1  C4  UNL     1     -12.900 -18.038   9.707  1.00  0.00     0.688 A
HETATM    2  N2  UNL     1     -11.768 -17.637   9.140  1.00  0.00    -0.174 N
ATOM      3  H2  UNL     1     -11.775 -16.776   8.594  1.00  0.00     0.186 HD
HETATM    4  C5  UNL     1     -10.596 -18.327   9.259  1.00  0.00     0.150 A
HETATM    5  C10 UNL     1     -10.609 -19.487  10.001  1.00  0.00     0.137 A
HETATM    6  N8  UNL     1      -9.517 -20.233  10.177  1.00  0.00    -0.293 N
ATOM      7  H8  UNL     1      -8.632 -19.951   9.754  1.00  0.00     0.187 HD
HETATM    8  N9  UNL     1      -9.580 -21.331  10.894  1.00  0.00    -0.295 N
ATOM      9  H9  UNL     1      -8.731 -21.884  11.012  1.00  0.00     0.187 HD
HETATM   10  C11 UNL     1     -10.711 -21.761  11.479  1.00  0.00     0.199 A
HETATM   11  N10 UNL     1     -11.840 -21.052  11.337  1.00  0.00    -0.335 N
ATOM     12  H10 UNL     1     -12.711 -21.358  11.772  1.00  0.00     0.168 HD
HETATM   13  C12 UNL     1     -11.787 -19.917  10.598  1.00  0.00     0.154 A
HETATM   14  N11 UNL     1     -12.896 -19.169  10.426  1.00  0.00    -0.174 N
ATOM     15  H11 UNL     1     -13.766 -19.476  10.861  1.00  0.00     0.186 HD
ENDROOT
BRANCH   4  16
HETATM   16  N3  UNL     1      -9.567 -17.900   8.705  1.00  0.00    -0.356 N
ATOM     17  H3  UNL     1      -9.137 -18.624   8.129  1.00  0.00     0.162 HD
BRANCH  16  18
HETATM   18  C6  UNL     1      -8.832 -16.716   8.646  1.00  0.00     0.180 C
HETATM   19  C7  UNL     1      -8.492 -16.136  10.023  1.00  0.00     0.059 C
HETATM   20  C8  UNL     1      -8.184 -14.688   9.617  1.00  0.00     0.132 C
HETATM   21  N4  UNL     1      -9.018 -14.439   8.470  1.00  0.00    -0.160 NA
HETATM   22  N5  UNL     1      -9.657 -15.605   8.137  1.00  0.00    -0.167 NA
BRANCH  22  23
HETATM   23  C9  UNL     1      -9.894 -15.796   6.734  1.00  0.00     0.327 C
BRANCH  23  24
HETATM   24  O3  UNL     1     -11.273 -15.663   6.480  1.00  0.00    -0.364 OA
ATOM     25  H3  UNL     1     -11.422 -15.729   5.544  1.00  0.00     0.213 HD
ENDBRANCH  23  24
BRANCH  23  26
HETATM   26  N6  UNL     1      -9.182 -14.890   5.873  1.00  0.00    -0.099 NA
BRANCH  26  27
HETATM   27  N7  UNL     1      -9.909 -13.786   5.482  1.00  0.00    -0.345 N
ATOM     28  H72 UNL     1     -10.139 -13.033   6.131  1.00  0.00     0.172 HD
ATOM     29  H71 UNL     1     -10.191 -13.793   4.502  1.00  0.00     0.172 HD
ENDBRANCH  26  27
ENDBRANCH  23  26
ENDBRANCH  22  23
ENDBRANCH  16  18
ENDBRANCH   4  16
BRANCH   1  30
HETATM   30  N1  UNL     1     -14.016 -17.390   9.600  1.00  0.00    -0.158 N
HETATM   31  C3  UNL     1     -14.057 -16.065   9.092  1.00  0.00     0.259 C
HETATM   32  O2  UNL     1     -14.028 -15.829   7.858  1.00  0.00    -0.270 OA
ATOM     33  H1  UNL     1     -14.885 -17.841   9.887  1.00  0.00     0.187 HD
BRANCH  31  34
HETATM   34  C2  UNL     1     -14.134 -14.909  10.017  1.00  0.00     0.270 C
BRANCH  34  35
HETATM   35  O1  UNL     1     -13.229 -13.915   9.655  1.00  0.00    -0.387 OA
HETATM   36  C1  UNL     1     -12.050 -14.177  10.370  1.00  0.00     0.202 C
ENDBRANCH  34  35
ENDBRANCH  31  34
ENDBRANCH   1  30
TORSDOF 9
ENDMDL