MODEL 5
REMARK VINA RESULT: -6.753333705      1.958      5.473
REMARK  7 active torsions:
REMARK  status: ('A' for Active; 'I' for Inactive)
REMARK    1  A    between atoms: C2_7  and  S1_8
REMARK    2  A    between atoms: S1_8  and  N3_9
REMARK    3  A    between atoms: C5_20  and  C6_21
REMARK    4  A    between atoms: N6_22  and  N7_24
REMARK    5  A    between atoms: N8_27  and  C7_28
REMARK    6  A    between atoms: C9_33  and  C10_34
REMARK    7  A    between atoms: C10_34  and  O3_35
ROOT
HETATM    1  N1  UNL     1     -14.911 -17.337  11.766  1.00  0.00    -0.383 N
ATOM      2  H11 UNL     1     -14.213 -17.662  12.436  1.00  0.00     0.157 HD
ATOM      3  H12 UNL     1     -15.904 -17.405  11.990  1.00  0.00     0.157 HD
HETATM    4  C1  UNL     1     -14.542 -16.840  10.635  1.00  0.00     0.132 A
HETATM    5  N2  UNL     1     -15.460 -16.414   9.755  1.00  0.00    -0.316 N
ATOM      6  H2  UNL     1     -16.454 -16.480   9.976  1.00  0.00     0.169 HD
HETATM    7  C2  UNL     1     -15.060 -15.899   8.581  1.00  0.00     0.227 A
HETATM    8  N4  UNL     1     -13.758 -15.808   8.284  1.00  0.00    -0.315 N
ATOM      9  H4  UNL     1     -13.490 -15.412   7.383  1.00  0.00     0.169 HD
HETATM   10  C3  UNL     1     -12.784 -16.219   9.126  1.00  0.00     0.144 A
HETATM   11  C4  UNL     1     -13.203 -16.748  10.333  1.00  0.00     0.123 A
HETATM   12  N5  UNL     1     -12.089 -17.081  10.991  1.00  0.00    -0.335 N
ATOM     13  H5  UNL     1     -12.054 -17.500  11.920  1.00  0.00     0.168 HD
HETATM   14  C5  UNL     1     -11.036 -16.780  10.243  1.00  0.00     0.129 A
HETATM   15  N8  UNL     1     -11.436 -16.236   9.063  1.00  0.00    -0.286 N
ENDROOT
BRANCH  15  16
HETATM   16  C7  UNL     1     -10.670 -15.770   7.973  1.00  0.00     0.260 C
HETATM   17  C8  UNL     1     -10.307 -16.809   6.942  1.00  0.00     0.289 C
HETATM   18  N9  UNL     1      -9.720 -15.933   5.936  1.00  0.00    -0.043 N
HETATM   19  C9  UNL     1     -10.653 -14.822   5.959  1.00  0.00     0.346 C
ATOM     20  H92 UNL     1      -8.742 -15.688   6.086  1.00  0.00     0.280 HD
ATOM     21  H91 UNL     1      -9.566 -16.358   5.022  1.00  0.00     0.280 HD
HETATM   22  O4  UNL     1     -11.278 -14.803   7.181  1.00  0.00    -0.330 OA
BRANCH  19  23
HETATM   23  C10 UNL     1      -9.864 -13.561   5.677  1.00  0.00     0.225 C
BRANCH  23  24
HETATM   24  O3  UNL     1      -8.542 -13.647   6.055  1.00  0.00    -0.397 OA
ATOM     25  H3  UNL     1      -7.960 -13.130   5.511  1.00  0.00     0.209 HD
ENDBRANCH  23  24
ENDBRANCH  19  23
ENDBRANCH  15  16
BRANCH  14  26
HETATM   26  C6  UNL     1      -9.654 -16.975  10.576  1.00  0.00     0.155 C
HETATM   27  N6  UNL     1      -9.077 -18.086  10.287  1.00  0.00    -0.315 N
ATOM     28  H6  UNL     1      -8.094 -18.210  10.530  1.00  0.00     0.185 HD
BRANCH  27  29
HETATM   29  N7  UNL     1      -9.749 -19.127   9.654  1.00  0.00    -0.345 N
ATOM     30  H72 UNL     1     -10.574 -19.512  10.114  1.00  0.00     0.176 HD
ATOM     31  H71 UNL     1      -9.442 -19.506   8.759  1.00  0.00     0.176 HD
ENDBRANCH  27  29
ENDBRANCH  14  26
BRANCH   7  32
HETATM   32  S1  UNL     1     -16.219 -15.326   7.394  1.00  0.00     0.289 S
HETATM   33  O1  UNL     1     -15.643 -15.381   6.026  1.00  0.00    -0.198 OA
HETATM   34  O2  UNL     1     -17.412 -16.252   7.468  1.00  0.00    -0.198 OA
BRANCH  32  35
HETATM   35  N3  UNL     1     -16.778 -13.739   7.783  1.00  0.00    -0.322 N
ATOM     36  H32 UNL     1     -17.440 -13.217   7.210  1.00  0.00     0.169 HD
ATOM     37  H31 UNL     1     -16.359 -13.403   8.651  1.00  0.00     0.169 HD
ENDBRANCH  32  35
ENDBRANCH   7  32
TORSDOF 7
ENDMDL