MODEL 2
REMARK VINA RESULT: -8.941789330      1.000      1.204
REMARK  7 active torsions:
REMARK  status: ('A' for Active; 'I' for Inactive)
REMARK    1  A    between atoms: N1_1  and  N2_4
REMARK    2  A    between atoms: C2_9  and  N4_10
REMARK    3  A    between atoms: N4_10  and  C3_12
REMARK    4  A    between atoms: N8_23  and  C8_24
REMARK    5  A    between atoms: C8_24  and  C9_25
REMARK    6  A    between atoms: C9_25  and  N9_26
REMARK       I    between atoms: N9_26  and  C10_28
REMARK    7  A    between atoms: N11_30  and  O1_32
REMARK       I    between atoms: N12_34  and  C11_35
ROOT
HETATM    1  C3  UNL     1     -10.462 -18.047   9.639  1.00  0.00     0.152 A
HETATM    2  N5  UNL     1     -11.682 -17.831   9.193  1.00  0.00    -0.336 N
ATOM      3  H5  UNL     1     -11.795 -17.361   8.294  1.00  0.00     0.168 HD
HETATM    4  C4  UNL     1     -12.781 -18.199   9.864  1.00  0.00     0.183 A
HETATM    5  N6  UNL     1     -12.649 -18.818  11.048  1.00  0.00    -0.336 N
ATOM      6  H6  UNL     1     -13.480 -19.102  11.566  1.00  0.00     0.168 HD
HETATM    7  C5  UNL     1     -11.434 -19.065  11.554  1.00  0.00     0.140 A
HETATM    8  C6  UNL     1     -10.303 -18.684  10.859  1.00  0.00     0.123 A
HETATM    9  N7  UNL     1      -9.261 -19.062  11.610  1.00  0.00    -0.346 N
ATOM     10  H7  UNL     1      -8.281 -18.920  11.367  1.00  0.00     0.167 HD
HETATM   11  C7  UNL     1      -9.702 -19.657  12.732  1.00  0.00     0.185 A
HETATM   12  N8  UNL     1     -11.043 -19.667  12.712  1.00  0.00    -0.326 N
ENDROOT
BRANCH   1  13
HETATM   13  N4  UNL     1      -9.273 -17.672   8.957  1.00  0.00    -0.172 N
ATOM     14  H4  UNL     1      -8.420 -18.209   9.114  1.00  0.00     0.186 HD
BRANCH  13  15
HETATM   15  C2  UNL     1      -9.241 -16.661   8.137  1.00  0.00     0.724 A
HETATM   16  N3  UNL     1      -9.682 -16.690   6.864  1.00  0.00    -0.018 N
HETATM   17  C1  UNL     1      -9.481 -15.465   6.354  1.00  0.00     0.726 A
ATOM     18  H3  UNL     1     -10.090 -17.490   6.380  1.00  0.00     0.203 HD
HETATM   19  N2  UNL     1      -9.760 -15.059   5.164  1.00  0.00    -0.137 N
HETATM   20  N14 UNL     1      -8.920 -14.721   7.338  1.00  0.00    -0.105 N
ATOM     21  H2  UNL     1      -9.559 -14.098   4.889  1.00  0.00     0.205 HD
HETATM   22  N12 UNL     1      -8.775 -15.450   8.423  1.00  0.00    -0.019 N
ATOM     23  H14 UNL     1      -8.650 -13.741   7.251  1.00  0.00     0.207 HD
HETATM   24  C11 UNL     1      -8.220 -15.012   9.666  1.00  0.00     0.369 C
HETATM   25  N13 UNL     1      -8.115 -15.890  10.763  1.00  0.00    -0.037 NA
HETATM   26  O2  UNL     1      -7.815 -13.828   9.795  1.00  0.00    -0.248 OA
BRANCH  19  27
HETATM   27  N1  UNL     1     -10.333 -15.936   4.263  1.00  0.00    -0.331 N
ATOM     28  H12 UNL     1     -10.812 -16.766   4.611  1.00  0.00     0.177 HD
ATOM     29  H11 UNL     1     -10.271 -15.741   3.263  1.00  0.00     0.177 HD
ENDBRANCH  19  27
ENDBRANCH  13  15
ENDBRANCH   1  13
BRANCH  12  30
HETATM   30  C8  UNL     1     -11.921 -20.218  13.738  1.00  0.00     0.151 C
BRANCH  30  31
HETATM   31  C9  UNL     1     -11.069 -20.934  14.785  1.00  0.00     0.142 C
BRANCH  31  32
HETATM   32  N9  UNL     1     -11.914 -21.431  15.836  1.00  0.00    -0.361 N
HETATM   33  C10 UNL     1     -11.357 -22.210  16.864  1.00  0.00     0.208 C
HETATM   34  N10 UNL     1     -10.226 -22.988  16.589  1.00  0.00    -0.062 NA
HETATM   35  N11 UNL     1     -11.903 -22.185  18.022  1.00  0.00    -0.241 N
ATOM     36  H11 UNL     1     -11.503 -22.748  18.772  1.00  0.00     0.197 HD
ATOM     37  H9  UNL     1     -12.912 -21.220  15.835  1.00  0.00     0.162 HD
BRANCH  35  38
HETATM   38  O1  UNL     1     -13.012 -21.417  18.281  1.00  0.00    -0.287 OA
ATOM     39  H1  UNL     1     -13.892 -21.767  18.201  1.00  0.00     0.244 HD
ENDBRANCH  35  38
ENDBRANCH  31  32
ENDBRANCH  30  31
ENDBRANCH  12  30
TORSDOF 7
ENDMDL