MODEL 3
REMARK VINA RESULT: -9.178759419      1.228      2.434
REMARK  9 active torsions:
REMARK  status: ('A' for Active; 'I' for Inactive)
REMARK    1  A    between atoms: N1_2  and  C2_4
REMARK    2  A    between atoms: C5_10  and  N4_11
REMARK    3  A    between atoms: N4_11  and  C6_13
REMARK    4  A    between atoms: C6_13  and  C7_14
REMARK    5  A    between atoms: C7_14  and  N5_15
REMARK    6  A    between atoms: N5_15  and  C8_17
REMARK    7  A    between atoms: C9_18  and  C10_19
REMARK       I    between atoms: C10_19  and  N6_21
REMARK    8  A    between atoms: N6_21  and  N7_23
REMARK    9  A    between atoms: C11_26  and  O2_27
ROOT
HETATM    1  C8  UNL     1     -16.783 -14.460   7.166  1.00  0.00     0.101 A
HETATM    2  C9  UNL     1     -17.512 -13.558   7.996  1.00  0.00     0.116 A
HETATM    3  C11 UNL     1     -18.730 -13.109   7.603  1.00  0.00     0.175 A
HETATM    4  N8  UNL     1     -19.279 -13.496   6.432  1.00  0.00    -0.255 N
ATOM      5  H8  UNL     1     -20.197 -13.149   6.152  1.00  0.00     0.191 HD
HETATM    6  N9  UNL     1     -18.609 -14.336   5.649  1.00  0.00    -0.158 N
HETATM    7  N10 UNL     1     -18.939 -14.855   4.463  1.00  0.00    -0.205 N
ATOM      8  H10 UNL     1     -19.803 -14.674   3.952  1.00  0.00     0.212 HD
HETATM    9  N11 UNL     1     -17.964 -15.637   4.067  1.00  0.00    -0.225 N
ATOM     10  H11 UNL     1     -17.945 -16.165   3.195  1.00  0.00     0.210 HD
HETATM   11  N12 UNL     1     -17.022 -15.630   4.970  1.00  0.00    -0.265 N
ATOM     12  H12 UNL     1     -16.145 -16.149   4.925  1.00  0.00     0.190 HD
HETATM   13  C12 UNL     1     -17.409 -14.815   5.976  1.00  0.00     0.190 A
ENDROOT
BRANCH   1  14
HETATM   14  N5  UNL     1     -15.661 -14.877   7.522  1.00  0.00    -0.364 N
ATOM     15  H5  UNL     1     -14.891 -14.238   7.321  1.00  0.00     0.165 HD
BRANCH  14  16
HETATM   16  C7  UNL     1     -15.277 -16.061   8.144  1.00  0.00     0.081 C
BRANCH  16  17
HETATM   17  C6  UNL     1     -14.028 -15.945   9.003  1.00  0.00     0.165 C
BRANCH  17  18
HETATM   18  N4  UNL     1     -13.467 -17.223   9.309  1.00  0.00    -0.371 N
ATOM     19  H4  UNL     1     -14.102 -17.925   9.690  1.00  0.00     0.161 HD
BRANCH  18  20
HETATM   20  C5  UNL     1     -12.244 -17.573   9.152  1.00  0.00     0.120 A
HETATM   21  C4  UNL     1     -11.434 -16.688   8.449  1.00  0.00     0.094 A
HETATM   22  C3  UNL     1     -10.109 -16.987   8.237  1.00  0.00     0.135 A
HETATM   23  N2  UNL     1      -9.652 -18.145   8.730  1.00  0.00    -0.179 N
HETATM   24  N3  UNL     1      -9.264 -16.095   7.520  1.00  0.00    -0.082 NA
HETATM   25  C2  UNL     1     -10.393 -19.015   9.405  1.00  0.00     0.680 A
ATOM     26  H2  UNL     1      -8.669 -18.373   8.576  1.00  0.00     0.185 HD
HETATM   27  N13 UNL     1     -11.704 -18.708   9.610  1.00  0.00    -0.177 N
ATOM     28  H13 UNL     1     -12.290 -19.362  10.128  1.00  0.00     0.185 HD
BRANCH  25  29
HETATM   29  N1  UNL     1      -9.981 -20.134   9.890  1.00  0.00    -0.230 N
HETATM   30  C1  UNL     1      -9.410 -20.068  11.244  1.00  0.00     0.165 C
ATOM     31  H1  UNL     1     -10.048 -21.009   9.370  1.00  0.00     0.177 HD
ENDBRANCH  25  29
ENDBRANCH  18  20
ENDBRANCH  17  18
ENDBRANCH  16  17
ENDBRANCH  14  16
ENDBRANCH   1  14
BRANCH   2  32
HETATM   32  C10 UNL     1     -16.860 -13.194   9.225  1.00  0.00     0.276 C
HETATM   33  O1  UNL     1     -17.033 -13.929  10.271  1.00  0.00    -0.266 OA
HETATM   34  N6  UNL     1     -16.022 -12.093   9.434  1.00  0.00    -0.272 N
ATOM     35  H6  UNL     1     -15.815 -11.445   8.673  1.00  0.00     0.189 HD
BRANCH  34  36
HETATM   36  N7  UNL     1     -15.460 -11.894  10.737  1.00  0.00    -0.342 N
ATOM     37  H72 UNL     1     -15.377 -12.684  11.378  1.00  0.00     0.176 HD
ATOM     38  H71 UNL     1     -15.150 -10.958  10.999  1.00  0.00     0.176 HD
ENDBRANCH  34  36
ENDBRANCH   2  32
BRANCH   3  39
HETATM   39  O2  UNL     1     -19.458 -12.232   8.391  1.00  0.00    -0.344 OA
ATOM     40  H2  UNL     1     -20.259 -11.835   8.071  1.00  0.00     0.219 HD
ENDBRANCH   3  39
TORSDOF 9
ENDMDL