MODEL 5
REMARK VINA RESULT: -7.592488888      1.649      4.010
REMARK  8 active torsions:
REMARK  status: ('A' for Active; 'I' for Inactive)
REMARK    1  A    between atoms: C4_6  and  C5_7
REMARK    2  A    between atoms: C5_7  and  O2_8
REMARK    3  A    between atoms: C5_7  and  O3_10
REMARK    4  A    between atoms: N2_12  and  C6_13
REMARK    5  A    between atoms: C6_13  and  N3_14
REMARK    6  A    between atoms: N3_14  and  O4_15
REMARK    7  A    between atoms: N3_14  and  C7_17
REMARK    8  A    between atoms: C9_19  and  N4_20
REMARK       I    between atoms: N6_26  and  C11_28
ROOT
HETATM    1  N3  UNL     1      -8.584 -16.870  11.024  1.00  0.00    -0.196 N
ENDROOT
BRANCH   1   2
HETATM    2  C6  UNL     1      -8.437 -18.057  11.786  1.00  0.00     0.228 C
BRANCH   2   3
HETATM    3  N2  UNL     1      -9.635 -18.641  12.325  1.00  0.00    -0.256 N
HETATM    4  C4  UNL     1     -10.081 -19.824  11.974  1.00  0.00     0.082 A
HETATM    5  C3  UNL     1     -11.268 -20.311  12.565  1.00  0.00     0.105 A
HETATM    6  C2  UNL     1     -11.928 -19.542  13.487  1.00  0.00     0.253 A
HETATM    7  N1  UNL     1     -11.462 -18.342  13.832  1.00  0.00    -0.270 N
HETATM    8  O1  UNL     1     -12.995 -19.940  14.040  1.00  0.00    -0.268 OA
HETATM    9  C1  UNL     1     -12.147 -17.493  14.814  1.00  0.00     0.164 C
HETATM   10  C12 UNL     1     -10.342 -17.909  13.260  1.00  0.00     0.336 A
HETATM   11  O6  UNL     1      -9.895 -16.764  13.588  1.00  0.00    -0.246 OA
BRANCH   4  12
HETATM   12  C5  UNL     1      -9.465 -20.676  10.970  1.00  0.00     0.306 C
BRANCH  12  13
HETATM   13  O2  UNL     1      -9.904 -20.491   9.667  1.00  0.00    -0.366 OA
ATOM     14  H2  UNL     1      -9.378 -19.909   9.131  1.00  0.00     0.213 HD
ENDBRANCH  12  13
BRANCH  12  15
HETATM   15  O3  UNL     1      -9.478 -22.034  11.302  1.00  0.00    -0.366 OA
ATOM     16  H3  UNL     1     -10.323 -22.450  11.175  1.00  0.00     0.213 HD
ENDBRANCH  12  15
ENDBRANCH   4  12
ENDBRANCH   2   3
ENDBRANCH   1   2
BRANCH   1  17
HETATM   17  O4  UNL     1      -7.976 -15.745  11.463  1.00  0.00    -0.280 OA
ATOM     18  H4  UNL     1      -7.663 -15.721  12.359  1.00  0.00     0.245 HD
ENDBRANCH   1  17
BRANCH   1  19
HETATM   19  C7  UNL     1      -9.389 -16.778   9.871  1.00  0.00     0.182 A
HETATM   20  C8  UNL     1      -8.942 -16.358   8.635  1.00  0.00     0.107 A
HETATM   21  C9  UNL     1      -9.780 -16.289   7.548  1.00  0.00     0.105 A
HETATM   22  N5  UNL     1     -11.054 -16.642   7.710  1.00  0.00    -0.308 N
HETATM   23  C10 UNL     1     -11.493 -17.054   8.924  1.00  0.00     0.234 A
ATOM     24  H5  UNL     1     -11.699 -16.602   6.921  1.00  0.00     0.171 HD
HETATM   25  N6  UNL     1     -12.743 -17.378   8.994  1.00  0.00    -0.296 N
HETATM   26  O5  UNL     1     -10.682 -17.104   9.911  1.00  0.00    -0.259 OA
HETATM   27  C11 UNL     1     -13.314 -17.822  10.208  1.00  0.00     0.189 C
ATOM     28  H6  UNL     1     -13.325 -17.312   8.159  1.00  0.00     0.172 HD
HETATM   29  N7  UNL     1     -13.501 -16.958  11.143  1.00  0.00    -0.373 N
HETATM   30  N8  UNL     1     -13.671 -19.186  10.383  1.00  0.00    -0.064 NA
ATOM     31  H72 UNL     1     -13.245 -15.979  11.017  1.00  0.00     0.158 HD
ATOM     32  H71 UNL     1     -13.913 -17.279  12.019  1.00  0.00     0.158 HD
BRANCH  21  33
HETATM   33  N4  UNL     1      -9.287 -15.888   6.430  1.00  0.00    -0.385 N
ATOM     34  H42 UNL     1      -9.357 -14.928   6.092  1.00  0.00     0.157 HD
ATOM     35  H41 UNL     1      -8.798 -16.570   5.850  1.00  0.00     0.157 HD
ENDBRANCH  21  33
ENDBRANCH   1  19
TORSDOF 8
ENDMDL