MODEL 4
REMARK VINA RESULT: -8.100859203      4.570      5.874
REMARK  9 active torsions:
REMARK  status: ('A' for Active; 'I' for Inactive)
REMARK    1  A    between atoms: N1_1  and  C1_4
REMARK    2  A    between atoms: C2_7  and  N3_8
REMARK    3  A    between atoms: N3_8  and  O1_10
REMARK    4  A    between atoms: O1_10  and  C3_11
REMARK    5  A    between atoms: C3_11  and  C4_12
REMARK    6  A    between atoms: C3_11  and  C5_15
REMARK    7  A    between atoms: C4_12  and  O2_13
REMARK    8  A    between atoms: C5_15  and  O3_16
REMARK    9  A    between atoms: N7_27  and  C8_28
ROOT
HETATM    1  C1  UNL     1     -13.927 -17.350   9.948  1.00  0.00     0.146 A
HETATM    2  N2  UNL     1     -15.086 -16.772   9.635  1.00  0.00    -0.173 N
ATOM      3  H2  UNL     1     -15.908 -16.995  10.197  1.00  0.00     0.186 HD
HETATM    4  C2  UNL     1     -15.226 -15.911   8.619  1.00  0.00     0.705 A
HETATM    5  N4  UNL     1     -14.136 -15.629   7.893  1.00  0.00    -0.172 N
ATOM      6  H4  UNL     1     -14.218 -14.976   7.113  1.00  0.00     0.186 HD
HETATM    7  C6  UNL     1     -12.937 -16.179   8.155  1.00  0.00     0.168 A
HETATM    8  N5  UNL     1     -11.714 -16.088   7.617  1.00  0.00    -0.174 N
ATOM      9  H5  UNL     1     -11.472 -15.507   6.815  1.00  0.00     0.186 HD
HETATM   10  C7  UNL     1     -10.862 -16.862   8.278  1.00  0.00     0.682 A
HETATM   11  N6  UNL     1      -9.613 -17.001   8.015  1.00  0.00    -0.234 N
ATOM     12  H61 UNL     1      -8.958 -17.596   8.523  1.00  0.00     0.174 HD
ATOM     13  H62 UNL     1      -9.109 -16.533   7.262  1.00  0.00     0.174 HD
HETATM   14  N7  UNL     1     -11.538 -17.488   9.288  1.00  0.00    -0.147 N
HETATM   15  C12 UNL     1     -12.801 -17.064   9.204  1.00  0.00     0.143 A
ENDROOT
BRANCH   4  16
HETATM   16  N3  UNL     1     -16.377 -15.375   8.356  1.00  0.00    -0.096 N
ATOM     17  H3  UNL     1     -16.624 -14.493   8.805  1.00  0.00     0.213 HD
BRANCH  16  18
HETATM   18  O1  UNL     1     -17.264 -15.949   7.507  1.00  0.00    -0.257 OA
BRANCH  18  19
HETATM   19  C3  UNL     1     -17.839 -15.322   6.400  1.00  0.00     0.199 C
BRANCH  19  20
HETATM   20  C4  UNL     1     -18.302 -13.926   6.708  1.00  0.00     0.200 C
BRANCH  20  21
HETATM   21  O2  UNL     1     -19.663 -13.928   6.888  1.00  0.00    -0.398 OA
ATOM     22  H2  UNL     1     -20.079 -13.511   6.143  1.00  0.00     0.209 HD
ENDBRANCH  20  21
ENDBRANCH  19  20
BRANCH  19  23
HETATM   23  C5  UNL     1     -16.863 -15.228   5.241  1.00  0.00     0.200 C
BRANCH  23  24
HETATM   24  O3  UNL     1     -17.527 -15.517   4.028  1.00  0.00    -0.398 OA
ATOM     25  H3  UNL     1     -16.953 -15.333   3.293  1.00  0.00     0.209 HD
ENDBRANCH  23  24
ENDBRANCH  19  23
ENDBRANCH  18  19
ENDBRANCH  16  18
ENDBRANCH   4  16
BRANCH   1  26
HETATM   26  N1  UNL     1     -13.845 -18.159  10.919  1.00  0.00    -0.383 N
ATOM     27  H12 UNL     1     -14.369 -19.033  10.891  1.00  0.00     0.157 HD
ATOM     28  H11 UNL     1     -13.261 -17.948  11.729  1.00  0.00     0.157 HD
ENDBRANCH   1  26
BRANCH  14  29
HETATM   29  C8  UNL     1     -10.916 -18.398  10.196  1.00  0.00     0.274 C
HETATM   30  C9  UNL     1     -10.521 -19.691   9.496  1.00  0.00     0.178 C
HETATM   31  N8  UNL     1      -9.724 -20.509  10.363  1.00  0.00    -0.348 N
HETATM   32  C10 UNL     1      -8.873 -19.962  11.379  1.00  0.00     0.317 C
ATOM     33  H8  UNL     1      -9.763 -21.521  10.252  1.00  0.00     0.163 HD
HETATM   34  O4  UNL     1      -8.170 -20.724  12.083  1.00  0.00    -0.262 OA
HETATM   35  C11 UNL     1      -8.895 -18.512  11.517  1.00  0.00     0.353 C
HETATM   36  O5  UNL     1      -8.160 -17.965  12.402  1.00  0.00    -0.254 OA
HETATM   37  O6  UNL     1      -9.723 -17.800  10.668  1.00  0.00    -0.285 OA
ENDBRANCH  14  29
TORSDOF 9
ENDMDL