MODEL 3
REMARK VINA RESULT: -8.094533116      3.002      5.558
REMARK  6 active torsions:
REMARK  status: ('A' for Active; 'I' for Inactive)
REMARK    1  A    between atoms: N1_1  and  C1_4
REMARK    2  A    between atoms: C4_12  and  C5_13
REMARK    3  A    between atoms: N5_15  and  N6_17
REMARK       I    between atoms: N6_17  and  C6_19
REMARK    4  A    between atoms: C8_24  and  C9_25
REMARK    5  A    between atoms: C10_28  and  C11_29
REMARK    6  A    between atoms: C11_29  and  O5_30
ROOT
HETATM    1  C1  UNL     1      -9.703 -19.702  10.855  1.00  0.00     0.677 A
HETATM    2  N2  UNL     1      -9.808 -19.018   9.689  1.00  0.00    -0.184 N
ATOM      3  H2  UNL     1      -9.162 -19.222   8.927  1.00  0.00     0.184 HD
HETATM    4  C2  UNL     1     -10.737 -18.092   9.525  1.00  0.00     0.153 A
HETATM    5  C3  UNL     1     -10.843 -17.399   8.339  1.00  0.00     0.277 A
HETATM    6  O1  UNL     1     -10.091 -17.584   7.353  1.00  0.00    -0.266 OA
HETATM    7  N3  UNL     1     -11.813 -16.480   8.265  1.00  0.00    -0.299 N
ATOM      8  H3  UNL     1     -11.922 -15.946   7.403  1.00  0.00     0.171 HD
HETATM    9  C4  UNL     1     -12.645 -16.239   9.287  1.00  0.00     0.194 A
HETATM   10  O3  UNL     1     -12.532 -16.908  10.410  1.00  0.00    -0.286 OA
HETATM   11  C7  UNL     1     -11.618 -17.814  10.561  1.00  0.00     0.138 A
HETATM   12  C8  UNL     1     -11.532 -18.502  11.771  1.00  0.00     0.109 A
HETATM   13  N9  UNL     1     -10.560 -19.427  11.853  1.00  0.00    -0.189 N
ATOM     14  H9  UNL     1     -10.467 -19.950  12.723  1.00  0.00     0.184 HD
ENDROOT
BRANCH   9  15
HETATM   15  C5  UNL     1     -13.681 -15.221   9.134  1.00  0.00     0.182 C
HETATM   16  N4  UNL     1     -13.557 -13.909   9.628  1.00  0.00    -0.077 NA
HETATM   17  N5  UNL     1     -14.764 -15.536   8.517  1.00  0.00    -0.281 N
ATOM     18  H5  UNL     1     -14.857 -16.486   8.158  1.00  0.00     0.188 HD
BRANCH  17  19
HETATM   19  N6  UNL     1     -15.817 -14.647   8.314  1.00  0.00    -0.253 N
HETATM   20  C6  UNL     1     -16.988 -15.073   7.637  1.00  0.00     0.347 C
HETATM   21  N7  UNL     1     -18.081 -14.208   7.406  1.00  0.00    -0.038 NA
HETATM   22  O2  UNL     1     -17.081 -16.256   7.218  1.00  0.00    -0.249 OA
ATOM     23  H6  UNL     1     -15.745 -13.688   8.653  1.00  0.00     0.191 HD
ENDBRANCH  17  19
ENDBRANCH   9  15
BRANCH  12  24
HETATM   24  C9  UNL     1     -12.469 -18.210  12.883  1.00  0.00     0.298 C
HETATM   25  N8  UNL     1     -13.594 -19.107  12.927  1.00  0.00    -0.059 NA
HETATM   26  O4  UNL     1     -13.119 -20.134  13.666  1.00  0.00    -0.249 OA
HETATM   27  C10 UNL     1     -12.540 -19.435  14.740  1.00  0.00     0.309 C
HETATM   28  O6  UNL     1     -11.895 -18.362  14.121  1.00  0.00    -0.328 OA
BRANCH  27  29
HETATM   29  C11 UNL     1     -11.499 -20.351  15.367  1.00  0.00     0.226 C
BRANCH  29  30
HETATM   30  O5  UNL     1     -10.745 -21.003  14.409  1.00  0.00    -0.396 OA
ATOM     31  H5  UNL     1     -10.328 -21.780  14.758  1.00  0.00     0.209 HD
ENDBRANCH  29  30
ENDBRANCH  27  29
ENDBRANCH  12  24
BRANCH   1  32
HETATM   32  N1  UNL     1      -8.767 -20.587  10.927  1.00  0.00    -0.234 N
ATOM     33  H12 UNL     1      -7.974 -20.636  10.287  1.00  0.00     0.174 HD
ATOM     34  H11 UNL     1      -8.841 -21.275  11.677  1.00  0.00     0.174 HD
ENDBRANCH   1  32
TORSDOF 6
ENDMDL