MODEL 3
REMARK VINA RESULT: -7.208050012      2.555      4.069
REMARK  14 active torsions:
REMARK  status: ('A' for Active; 'I' for Inactive)
REMARK    1  A    between atoms: S1_2  and  C2_3
REMARK    2  A    between atoms: C2_3  and  C4_5
REMARK    3  A    between atoms: C4_5  and  N1_6
REMARK    4  A    between atoms: C4_5  and  C11_20
REMARK       I    between atoms: N1_6  and  C5_8
REMARK    5  A    between atoms: C5_8  and  C6_10
REMARK    6  A    between atoms: C6_10  and  N2_11
REMARK    7  A    between atoms: C6_10  and  C8_17
REMARK    8  A    between atoms: N2_11  and  S2_13
REMARK       I    between atoms: C11_20  and  N3_22
REMARK    9  A    between atoms: N3_22  and  C12_24
REMARK   10  A    between atoms: C12_24  and  C13_25
REMARK   11  A    between atoms: C12_24  and  C21_33
REMARK   12  A    between atoms: C13_25  and  C14_26
REMARK   13  A    between atoms: C14_26  and  C15_27
REMARK       I    between atoms: C21_33  and  N4_35
REMARK   14  A    between atoms: N4_35  and  C22_37
ROOT
HETATM    1  C11 UNL     1      11.478  28.616   2.694  1.00  0.00     0.242 C
HETATM    2  O4  UNL     1      10.471  27.894   2.345  1.00  0.00    -0.271 OA
HETATM    3  N3  UNL     1      11.603  29.919   2.172  1.00  0.00    -0.346 N
ATOM      4  H3  UNL     1      12.407  30.482   2.449  1.00  0.00     0.163 HD
ENDROOT
BRANCH   1   5
HETATM    5  C4  UNL     1      12.494  28.090   3.621  1.00  0.00     0.190 C
BRANCH   5   6
HETATM    6  C2  UNL     1      11.829  27.765   4.948  1.00  0.00     0.074 C
HETATM    7  C3  UNL     1      11.381  29.091   5.569  1.00  0.00     0.024 C
BRANCH   6   8
HETATM    8  S1  UNL     1      12.794  26.787   6.066  1.00  0.00    -0.167 SA
HETATM    9  C1  UNL     1      14.353  27.525   6.557  1.00  0.00     0.090 C
ENDBRANCH   6   8
ENDBRANCH   5   6
BRANCH   5  10
HETATM   10  N1  UNL     1      13.298  27.030   3.125  1.00  0.00    -0.345 N
HETATM   11  C5  UNL     1      14.687  27.209   2.905  1.00  0.00     0.242 C
HETATM   12  O1  UNL     1      15.219  28.344   3.166  1.00  0.00    -0.271 OA
ATOM     13  H1  UNL     1      12.870  26.126   2.924  1.00  0.00     0.163 HD
BRANCH  11  14
HETATM   14  C6  UNL     1      15.590  26.131   2.375  1.00  0.00     0.188 C
BRANCH  14  15
HETATM   15  N2  UNL     1      14.806  24.940   2.216  1.00  0.00    -0.306 N
ATOM     16  H2  UNL     1      14.111  24.621   2.891  1.00  0.00     0.173 HD
BRANCH  15  17
HETATM   17  S2  UNL     1      15.177  24.107   0.748  1.00  0.00     0.223 S
HETATM   18  C7  UNL     1      15.723  22.467   1.148  1.00  0.00     0.185 C
HETATM   19  O2  UNL     1      16.337  24.777   0.043  1.00  0.00    -0.206 OA
HETATM   20  O3  UNL     1      14.036  24.060  -0.210  1.00  0.00    -0.206 OA
ENDBRANCH  15  17
ENDBRANCH  14  15
BRANCH  14  21
HETATM   21  C8  UNL     1      16.554  25.846   3.545  1.00  0.00     0.010 C
HETATM   22  C9  UNL     1      17.922  25.470   3.095  1.00  0.00     0.012 C
HETATM   23  C10 UNL     1      15.945  24.725   4.404  1.00  0.00     0.012 C
ENDBRANCH  14  21
ENDBRANCH  11  14
ENDBRANCH   5  10
ENDBRANCH   1   5
BRANCH   3  24
HETATM   24  C12 UNL     1      10.619  30.502   1.245  1.00  0.00     0.176 C
BRANCH  24  25
HETATM   25  C13 UNL     1       9.764  31.482   2.013  1.00  0.00     0.035 C
BRANCH  25  26
HETATM   26  C14 UNL     1       8.524  30.924   2.633  1.00  0.00     0.007 C
BRANCH  26  27
HETATM   27  C15 UNL     1       7.472  32.026   2.653  1.00  0.00    -0.014 C
HETATM   28  C16 UNL     1       6.152  31.460   2.259  1.00  0.00     0.004 C
HETATM   29  C17 UNL     1       5.123  32.535   1.903  1.00  0.00     0.000 C
HETATM   30  C18 UNL     1       5.577  33.482   0.851  1.00  0.00     0.000 C
HETATM   31  C19 UNL     1       7.012  33.220   0.488  1.00  0.00     0.000 C
HETATM   32  C20 UNL     1       7.856  33.166   1.757  1.00  0.00     0.004 C
ENDBRANCH  26  27
ENDBRANCH  25  26
ENDBRANCH  24  25
BRANCH  24  33
HETATM   33  C21 UNL     1      11.425  31.209   0.225  1.00  0.00     0.240 C
HETATM   34  O5  UNL     1      11.597  30.678  -0.938  1.00  0.00    -0.271 OA
HETATM   35  N4  UNL     1      12.035  32.466   0.425  1.00  0.00    -0.355 N
ATOM     36  H4  UNL     1      11.936  32.934   1.326  1.00  0.00     0.162 HD
BRANCH  35  37
HETATM   37  C22 UNL     1      12.791  33.099  -0.618  1.00  0.00     0.084 C
HETATM   38  C23 UNL     1      13.890  34.004  -0.138  1.00  0.00     0.025 C
HETATM   39  C24 UNL     1      14.638  34.437  -1.405  1.00  0.00     0.002 C
HETATM   40  C25 UNL     1      13.714  35.333  -2.177  1.00  0.00     0.000 C
HETATM   41  C26 UNL     1      12.445  34.633  -2.588  1.00  0.00     0.002 C
HETATM   42  C27 UNL     1      11.805  33.872  -1.480  1.00  0.00     0.025 C
ENDBRANCH  35  37
ENDBRANCH  24  33
ENDBRANCH   3  24
TORSDOF 14
ENDMDL