MODEL 3
REMARK VINA RESULT: -6.550619671      2.067      6.289
REMARK  16 active torsions:
REMARK  status: ('A' for Active; 'I' for Inactive)
REMARK    1  A    between atoms: C2_2  and  N1_3
REMARK       I    between atoms: N1_3  and  C3_5
REMARK    2  A    between atoms: C3_5  and  C4_7
REMARK    3  A    between atoms: C4_7  and  O2_8
REMARK    4  A    between atoms: C5_10  and  N2_11
REMARK    5  A    between atoms: C5_10  and  C28_43
REMARK       I    between atoms: N2_11  and  C6_12
REMARK    6  A    between atoms: C6_12  and  C7_14
REMARK       I    between atoms: C7_14  and  N3_16
REMARK    7  A    between atoms: N3_16  and  C8_18
REMARK    8  A    between atoms: C8_18  and  C9_19
REMARK    9  A    between atoms: C8_18  and  C12_22
REMARK   10  A    between atoms: N4_27  and  C17_28
REMARK   11  A    between atoms: C17_28  and  C19_30
REMARK   12  A    between atoms: C19_30  and  O5_31
REMARK   13  A    between atoms: C19_30  and  N5_33
REMARK   14  A    between atoms: N5_33  and  C20_35
REMARK   15  A    between atoms: C20_35  and  C21_36
REMARK   16  A    between atoms: C28_43  and  C30_45
ROOT
HETATM    1  C8  UNL     1       8.160  33.491   1.247  1.00  0.00     0.134 C
ENDROOT
BRANCH   1   2
HETATM    2  N3  UNL     1       6.981  34.108   0.608  1.00  0.00    -0.342 N
HETATM    3  C7  UNL     1       6.648  35.386   0.665  1.00  0.00     0.324 C
HETATM    4  O4  UNL     1       6.989  36.469   1.089  1.00  0.00    -0.261 OA
ATOM      5  H3  UNL     1       6.367  33.493   0.074  1.00  0.00     0.163 HD
BRANCH   3   6
HETATM    6  C6  UNL     1       5.312  35.786  -0.205  1.00  0.00     0.384 C
HETATM    7  N2  UNL     1       5.858  36.620  -1.174  1.00  0.00    -0.359 NA
HETATM    8  O3  UNL     1       4.391  35.314   0.150  1.00  0.00    -0.246 OA
BRANCH   7   9
HETATM    9  C5  UNL     1       6.375  37.452  -2.155  1.00  0.00     0.152 C
HETATM   10  C4  UNL     1       6.442  36.959  -3.468  1.00  0.00     0.175 C
BRANCH  10  11
HETATM   11  C3  UNL     1       6.735  37.105  -4.911  1.00  0.00     0.278 C
HETATM   12  N1  UNL     1       8.119  36.988  -5.000  1.00  0.00    -0.355 N
ATOM     13  H1  UNL     1       8.384  36.688  -4.062  1.00  0.00     0.162 HD
HETATM   14  O1  UNL     1       5.839  37.261  -5.641  1.00  0.00    -0.265 OA
BRANCH  12  15
HETATM   15  C2  UNL     1       9.343  37.055  -5.663  1.00  0.00     0.118 C
HETATM   16  C1  UNL     1       9.683  38.521  -6.029  1.00  0.00     0.026 C
ENDBRANCH  12  15
ENDBRANCH  10  11
BRANCH  10  17
HETATM   17  O2  UNL     1       5.901  35.651  -3.458  1.00  0.00    -0.353 OA
ATOM     18  H2  UNL     1       5.464  35.660  -2.615  1.00  0.00     0.218 HD
ENDBRANCH  10  17
BRANCH   9  19
HETATM   19  C28 UNL     1       6.350  38.905  -1.851  1.00  0.00    -0.040 C
HETATM   20  C29 UNL     1       5.042  39.509  -2.192  1.00  0.00     0.047 C
BRANCH  19  21
HETATM   21  C30 UNL     1       7.630  39.618  -1.910  1.00  0.00     0.033 C
HETATM   22  C31 UNL     1       8.653  38.834  -1.070  1.00  0.00     0.010 C
ENDBRANCH  19  21
ENDBRANCH   9  19
ENDBRANCH   7   9
ENDBRANCH   3   6
ENDBRANCH   1   2
BRANCH   1  23
HETATM   23  C9  UNL     1       7.554  32.093   1.617  1.00  0.00     0.006 C
HETATM   24  C10 UNL     1       8.398  31.333   2.645  1.00  0.00     0.012 C
HETATM   25  C11 UNL     1       6.239  32.316   2.338  1.00  0.00     0.012 C
ENDBRANCH   1  23
BRANCH   1  26
HETATM   26  C12 UNL     1       9.219  33.426   0.286  1.00  0.00     0.012 C
HETATM   27  C13 UNL     1       9.503  32.338  -0.635  1.00  0.00     0.055 C
HETATM   28  C14 UNL     1      10.977  31.912  -0.604  1.00  0.00     0.011 C
HETATM   29  C15 UNL     1      11.793  32.458   0.511  1.00  0.00     0.045 C
HETATM   30  C16 UNL     1      11.425  33.798   1.087  1.00  0.00     0.065 C
HETATM   31  N4  UNL     1      10.320  34.317   0.419  1.00  0.00    -0.353 N
BRANCH  31  32
HETATM   32  C17 UNL     1      10.270  35.496  -0.276  1.00  0.00     0.159 C
HETATM   33  C18 UNL     1      11.201  36.546   0.285  1.00  0.00     0.041 C
BRANCH  32  34
HETATM   34  C19 UNL     1      10.550  35.309  -1.707  1.00  0.00     0.135 C
BRANCH  34  35
HETATM   35  O5  UNL     1       9.499  35.558  -2.451  1.00  0.00    -0.348 OA
ATOM     36  H5  UNL     1       9.673  35.413  -3.373  1.00  0.00     0.219 HD
ENDBRANCH  34  35
BRANCH  34  37
HETATM   37  N5  UNL     1      11.691  34.853  -2.371  1.00  0.00    -0.363 N
ATOM     38  H5  UNL     1      11.883  33.852  -2.409  1.00  0.00     0.162 HD
BRANCH  37  39
HETATM   39  C20 UNL     1      12.628  35.800  -3.024  1.00  0.00     0.035 C
HETATM   40  C24 UNL     1      12.288  37.156  -3.308  1.00  0.00     0.031 C
HETATM   41  C25 UNL     1      12.921  37.554  -4.664  1.00  0.00     0.002 C
HETATM   42  C26 UNL     1      13.395  36.206  -5.301  1.00  0.00     0.002 C
HETATM   43  C27 UNL     1      12.746  35.123  -4.501  1.00  0.00     0.031 C
BRANCH  39  44
HETATM   44  C21 UNL     1      13.970  35.604  -2.410  1.00  0.00     0.005 C
HETATM   45  C22 UNL     1      14.056  34.265  -1.683  1.00  0.00     0.012 C
HETATM   46  C23 UNL     1      14.378  36.738  -1.525  1.00  0.00     0.012 C
ENDBRANCH  39  44
ENDBRANCH  37  39
ENDBRANCH  34  37
ENDBRANCH  32  34
ENDBRANCH  31  32
ENDBRANCH   1  26
TORSDOF 16
ENDMDL