MODEL 5
REMARK VINA RESULT: -7.465482357      0.870      1.163
REMARK  16 active torsions:
REMARK  status: ('A' for Active; 'I' for Inactive)
REMARK    1  A    between atoms: C2_2  and  C3_3
REMARK    2  A    between atoms: C3_3  and  C4_4
REMARK    3  A    between atoms: C4_4  and  C5_5
REMARK    4  A    between atoms: C5_5  and  C6_6
REMARK    5  A    between atoms: C6_6  and  C7_7
REMARK    6  A    between atoms: C7_7  and  C8_8
REMARK    7  A    between atoms: C8_8  and  C9_9
REMARK    8  A    between atoms: C9_9  and  C10_10
REMARK    9  A    between atoms: C11_11  and  N1_12
REMARK   10  A    between atoms: C14_15  and  C15_16
REMARK   11  A    between atoms: C15_16  and  O1_17
REMARK   12  A    between atoms: C15_16  and  C16_19
REMARK   13  A    between atoms: C16_19  and  O2_20
REMARK   14  A    between atoms: C16_19  and  C17_22
REMARK   15  A    between atoms: C17_22  and  N2_23
REMARK       I    between atoms: N2_23  and  C18_25
REMARK       I    between atoms: C18_25  and  N3_27
REMARK   16  A    between atoms: C26_37  and  O6_38
ROOT
HETATM    1  N1  UNL     1       8.520  33.067   1.508  1.00  0.00    -0.039 N
HETATM    2  C12 UNL     1       8.620  33.681   2.832  1.00  0.00     0.279 C
HETATM    3  C13 UNL     1       9.971  33.034   1.135  1.00  0.00     0.253 C
HETATM    4  C14 UNL     1      10.076  33.016  -0.322  1.00  0.00     0.075 C
HETATM    5  C26 UNL     1       8.871  33.874  -0.713  1.00  0.00     0.163 C
HETATM    6  C27 UNL     1       7.970  33.887   0.508  1.00  0.00     0.160 C
HETATM    7  C28 UNL     1       7.805  35.350   0.922  1.00  0.00     0.042 C
HETATM    8  C29 UNL     1       6.385  35.703   1.270  1.00  0.00     0.003 C
HETATM    9  C30 UNL     1       5.497  35.728   0.019  1.00  0.00     0.000 C
HETATM   10  C31 UNL     1       6.142  34.702  -0.908  1.00  0.00     0.003 C
HETATM   11  C32 UNL     1       6.607  33.533  -0.037  1.00  0.00     0.042 C
ENDROOT
BRANCH   4  12
HETATM   12  C15 UNL     1      11.350  33.608  -0.851  1.00  0.00     0.156 C
BRANCH  12  13
HETATM   13  O1  UNL     1      11.364  33.695  -2.238  1.00  0.00    -0.392 OA
ATOM     14  H1  UNL     1      11.826  32.971  -2.645  1.00  0.00     0.210 HD
ENDBRANCH  12  13
BRANCH  12  15
HETATM   15  C16 UNL     1      11.596  34.994  -0.307  1.00  0.00     0.165 C
BRANCH  15  16
HETATM   16  O2  UNL     1      12.770  34.901   0.476  1.00  0.00    -0.391 OA
ATOM     17  H2  UNL     1      12.621  35.451   1.235  1.00  0.00     0.210 HD
ENDBRANCH  15  16
BRANCH  15  18
HETATM   18  C17 UNL     1      11.897  36.009  -1.372  1.00  0.00     0.158 C
BRANCH  18  19
HETATM   19  N2  UNL     1      10.769  36.816  -1.756  1.00  0.00    -0.340 N
HETATM   20  C18 UNL     1      10.246  36.782  -3.057  1.00  0.00     0.318 C
HETATM   21  O3  UNL     1      10.792  36.007  -3.917  1.00  0.00    -0.247 OA
HETATM   22  N3  UNL     1       9.150  37.540  -3.516  1.00  0.00    -0.334 N
HETATM   23  C19 UNL     1       8.427  38.433  -2.670  1.00  0.00     0.133 C
HETATM   24  C23 UNL     1       8.693  37.452  -4.915  1.00  0.00     0.133 C
HETATM   25  C20 UNL     1       6.949  38.010  -2.696  1.00  0.00     0.088 C
HETATM   26  C21 UNL     1       6.454  38.196  -4.110  1.00  0.00     0.167 C
HETATM   27  C22 UNL     1       7.576  38.455  -5.078  1.00  0.00     0.088 C
HETATM   28  O4  UNL     1       5.705  37.101  -4.542  1.00  0.00    -0.353 OA
HETATM   29  O5  UNL     1       5.586  39.294  -4.133  1.00  0.00    -0.353 OA
HETATM   30  C24 UNL     1       4.718  37.610  -5.351  1.00  0.00     0.197 C
HETATM   31  C25 UNL     1       4.892  39.122  -5.327  1.00  0.00     0.197 C
ATOM     32  H2  UNL     1      10.338  37.429  -1.064  1.00  0.00     0.164 HD
ENDBRANCH  18  19
ENDBRANCH  15  18
ENDBRANCH  12  15
ENDBRANCH   4  12
BRANCH   5  33
HETATM   33  O6  UNL     1       8.308  33.226  -1.815  1.00  0.00    -0.392 OA
ATOM     34  H6  UNL     1       7.735  33.871  -2.215  1.00  0.00     0.210 HD
ENDBRANCH   5  33
BRANCH   1  35
HETATM   35  C11 UNL     1       8.212  31.706   1.585  1.00  0.00     0.199 C
HETATM   36  C10 UNL     1       8.501  30.781   2.645  1.00  0.00    -0.002 C
BRANCH  36  37
HETATM   37  C9  UNL     1       9.834  30.418   3.117  1.00  0.00     0.028 C
BRANCH  37  38
HETATM   38  C8  UNL     1      10.795  29.889   2.075  1.00  0.00     0.004 C
BRANCH  38  39
HETATM   39  C7  UNL     1      11.632  28.774   2.608  1.00  0.00     0.000 C
BRANCH  39  40
HETATM   40  C6  UNL     1      10.737  27.701   3.245  1.00  0.00     0.000 C
BRANCH  40  41
HETATM   41  C5  UNL     1      11.266  27.310   4.555  1.00  0.00     0.000 C
BRANCH  41  42
HETATM   42  C4  UNL     1      10.811  28.026   5.756  1.00  0.00     0.000 C
BRANCH  42  43
HETATM   43  C3  UNL     1      11.496  29.203   6.288  1.00  0.00    -0.000 C
BRANCH  43  44
HETATM   44  C2  UNL     1      12.964  29.259   6.051  1.00  0.00    -0.005 C
HETATM   45  C1  UNL     1      13.593  30.131   7.185  1.00  0.00     0.005 C
ENDBRANCH  43  44
ENDBRANCH  42  43
ENDBRANCH  41  42
ENDBRANCH  40  41
ENDBRANCH  39  40
ENDBRANCH  38  39
ENDBRANCH  37  38
ENDBRANCH  36  37
ENDBRANCH   1  35
TORSDOF 16
ENDMDL