MODEL 3
REMARK VINA RESULT: -7.317993813      1.509      1.864
REMARK  16 active torsions:
REMARK  status: ('A' for Active; 'I' for Inactive)
REMARK    1  A    between atoms: C2_2  and  C4_4
REMARK    2  A    between atoms: C4_4  and  C5_5
REMARK    3  A    between atoms: C5_5  and  C6_7
REMARK       I    between atoms: C6_7  and  N1_9
REMARK    4  A    between atoms: N1_9  and  C7_11
REMARK    5  A    between atoms: C7_11  and  C8_12
REMARK       I    between atoms: C8_12  and  N2_14
REMARK    6  A    between atoms: N2_14  and  C9_16
REMARK    7  A    between atoms: C9_16  and  C10_17
REMARK    8  A    between atoms: C9_16  and  C14_21
REMARK    9  A    between atoms: C10_17  and  C11_18
REMARK       I    between atoms: C14_21  and  N3_23
REMARK   10  A    between atoms: C18_27  and  C19_28
REMARK   11  A    between atoms: C19_28  and  O4_29
REMARK   12  A    between atoms: C19_28  and  N4_31
REMARK   13  A    between atoms: N4_31  and  C20_33
REMARK   14  A    between atoms: C20_33  and  C21_34
REMARK   15  A    between atoms: C20_33  and  C28_42
REMARK   16  A    between atoms: C21_34  and  C22_36
ROOT
HETATM    1  C14 UNL     1      10.560  34.958  -0.279  1.00  0.00     0.243 C
HETATM    2  O3  UNL     1       9.825  35.511   0.580  1.00  0.00    -0.271 OA
HETATM    3  N3  UNL     1      10.497  35.358  -1.612  1.00  0.00    -0.338 N
HETATM    4  C15 UNL     1      11.334  34.676  -2.661  1.00  0.00     0.127 C
HETATM    5  C16 UNL     1      12.021  35.908  -3.223  1.00  0.00     0.022 C
HETATM    6  C17 UNL     1      11.098  37.097  -2.917  1.00  0.00     0.035 C
HETATM    7  C18 UNL     1       9.862  36.337  -2.405  1.00  0.00     0.161 C
ENDROOT
BRANCH   1   8
HETATM    8  C9  UNL     1      11.438  33.893   0.295  1.00  0.00     0.177 C
BRANCH   8   9
HETATM    9  N2  UNL     1      10.635  33.210   1.323  1.00  0.00    -0.346 N
HETATM   10  C8  UNL     1      10.147  31.901   1.110  1.00  0.00     0.236 C
HETATM   11  O2  UNL     1      10.436  31.343   0.012  1.00  0.00    -0.272 OA
ATOM     12  H2  UNL     1      10.429  33.687   2.201  1.00  0.00     0.163 HD
BRANCH  10  13
HETATM   13  C7  UNL     1       9.331  31.151   2.082  1.00  0.00     0.225 C
BRANCH  13  14
HETATM   14  N1  UNL     1       9.789  29.772   2.158  1.00  0.00    -0.351 N
HETATM   15  C6  UNL     1      10.407  29.214   3.292  1.00  0.00     0.232 C
HETATM   16  O1  UNL     1      10.575  29.920   4.309  1.00  0.00    -0.272 OA
ATOM     17  H1  UNL     1       9.655  29.175   1.342  1.00  0.00     0.163 HD
BRANCH  15  18
HETATM   18  C5  UNL     1      10.852  27.816   3.285  1.00  0.00     0.151 C
HETATM   19  S1  UNL     1      11.042  27.305   5.042  1.00  0.00    -0.082 SA
BRANCH  18  20
HETATM   20  C4  UNL     1      12.160  27.559   2.622  1.00  0.00     0.029 C
BRANCH  20  21
HETATM   21  C2  UNL     1      13.329  27.390   3.549  1.00  0.00    -0.021 C
HETATM   22  C1  UNL     1      14.177  28.634   3.618  1.00  0.00     0.009 C
HETATM   23  C3  UNL     1      14.239  26.310   2.942  1.00  0.00     0.009 C
ENDBRANCH  20  21
ENDBRANCH  18  20
ENDBRANCH  15  18
ENDBRANCH  13  14
ENDBRANCH  10  13
ENDBRANCH   8   9
BRANCH   8  24
HETATM   24  C10 UNL     1      12.547  34.558   1.126  1.00  0.00     0.038 C
BRANCH  24  25
HETATM   25  C11 UNL     1      13.922  34.327   0.601  1.00  0.00    -0.020 C
HETATM   26  C12 UNL     1      13.822  33.054  -0.278  1.00  0.00     0.009 C
HETATM   27  C13 UNL     1      14.348  35.403  -0.390  1.00  0.00     0.009 C
ENDBRANCH  24  25
ENDBRANCH   8  24
ENDBRANCH   1   8
BRANCH   7  28
HETATM   28  C19 UNL     1       8.795  37.187  -1.997  1.00  0.00     0.135 C
BRANCH  28  29
HETATM   29  O4  UNL     1       9.180  38.071  -1.073  1.00  0.00    -0.348 OA
ATOM     30  H4  UNL     1       8.729  38.902  -1.163  1.00  0.00     0.219 HD
ENDBRANCH  28  29
BRANCH  28  31
HETATM   31  N4  UNL     1       7.457  37.334  -2.318  1.00  0.00    -0.361 N
ATOM     32  H4  UNL     1       7.134  38.245  -2.643  1.00  0.00     0.162 HD
BRANCH  31  33
HETATM   33  C20 UNL     1       6.469  36.230  -2.213  1.00  0.00     0.157 C
BRANCH  33  34
HETATM   34  C21 UNL     1       6.393  35.721  -0.824  1.00  0.00     0.153 C
HETATM   35  O5  UNL     1       6.732  36.571   0.039  1.00  0.00    -0.295 OA
BRANCH  34  36
HETATM   36  C22 UNL     1       5.985  34.385  -0.391  1.00  0.00     0.057 C
HETATM   37  C23 UNL     1       6.823  33.646   0.568  1.00  0.00     0.012 C
HETATM   38  C24 UNL     1       6.128  33.403   1.916  1.00  0.00     0.001 C
HETATM   39  C25 UNL     1       4.991  32.457   1.687  1.00  0.00     0.000 C
HETATM   40  C26 UNL     1       4.230  32.932   0.460  1.00  0.00     0.001 C
HETATM   41  C27 UNL     1       4.556  34.392   0.168  1.00  0.00     0.012 C
ENDBRANCH  34  36
ENDBRANCH  33  34
BRANCH  33  42
HETATM   42  C28 UNL     1       5.165  36.884  -2.666  1.00  0.00     0.007 C
HETATM   43  C29 UNL     1       5.104  38.346  -2.324  1.00  0.00     0.012 C
HETATM   44  C30 UNL     1       5.055  36.774  -4.201  1.00  0.00     0.012 C
ENDBRANCH  33  42
ENDBRANCH  31  33
ENDBRANCH  28  31
ENDBRANCH   7  28
TORSDOF 16
ENDMDL