MODEL 2
REMARK VINA RESULT: -6.161590968      1.724      2.659
REMARK  18 active torsions:
REMARK  status: ('A' for Active; 'I' for Inactive)
REMARK    1  A    between atoms: C2_2  and  O1_3
REMARK    2  A    between atoms: O1_3  and  C3_4
REMARK       I    between atoms: C3_4  and  N1_6
REMARK    3  A    between atoms: N1_6  and  C4_7
REMARK    4  A    between atoms: N1_6  and  C9_12
REMARK    5  A    between atoms: C4_7  and  C5_8
REMARK    6  A    between atoms: C5_8  and  C6_9
REMARK    7  A    between atoms: C9_12  and  C10_13
REMARK    8  A    between atoms: C9_12  and  C28_42
REMARK       I    between atoms: C10_13  and  N2_15
REMARK       I    between atoms: N2_15  and  C11_17
REMARK    9  A    between atoms: C11_17  and  C12_19
REMARK   10  A    between atoms: C12_19  and  C13_20
REMARK   11  A    between atoms: C12_19  and  C24_38
REMARK   12  A    between atoms: C13_20  and  C14_21
REMARK   13  A    between atoms: C14_21  and  O5_22
REMARK   14  A    between atoms: C14_21  and  C15_24
REMARK   15  A    between atoms: C15_24  and  N3_27
REMARK   16  A    between atoms: N3_27  and  C18_29
REMARK   17  A    between atoms: C18_29  and  C19_30
REMARK   18  A    between atoms: C18_29  and  C21_35
REMARK       I    between atoms: C19_30  and  N4_32
ROOT
HETATM    1  C12 UNL     1       6.726  34.164  -0.629  1.00  0.00     0.088 C
ENDROOT
BRANCH   1   2
HETATM    2  C11 UNL     1       6.803  35.241  -1.705  1.00  0.00     0.229 C
HETATM    3  N2  UNL     1       7.628  36.360  -1.703  1.00  0.00    -0.295 N
HETATM    4  C10 UNL     1       7.679  37.258  -2.802  1.00  0.00     0.248 C
ATOM      5  H2  UNL     1       8.215  36.541  -0.888  1.00  0.00     0.171 HD
HETATM    6  O3  UNL     1       6.857  36.995  -3.753  1.00  0.00    -0.271 OA
HETATM    7  O4  UNL     1       6.030  35.071  -2.683  1.00  0.00    -0.273 OA
BRANCH   4   8
HETATM    8  C9  UNL     1       8.574  38.410  -2.925  1.00  0.00     0.189 C
BRANCH   8   9
HETATM    9  N1  UNL     1       8.345  39.397  -1.919  1.00  0.00    -0.314 N
HETATM   10  C3  UNL     1       8.493  39.291  -0.565  1.00  0.00     0.363 C
HETATM   11  O2  UNL     1       8.241  40.329   0.167  1.00  0.00    -0.238 OA
BRANCH  10  12
HETATM   12  O1  UNL     1       8.881  38.207   0.164  1.00  0.00    -0.304 OA
BRANCH  12  13
HETATM   13  C2  UNL     1       9.578  38.323   1.378  1.00  0.00     0.176 C
HETATM   14  C1  UNL     1      11.071  38.452   1.171  1.00  0.00     0.034 C
ENDBRANCH  12  13
ENDBRANCH  10  12
BRANCH   9  15
HETATM   15  C4  UNL     1       7.883  40.721  -2.422  1.00  0.00     0.129 C
BRANCH  15  16
HETATM   16  C5  UNL     1       6.578  40.555  -3.161  1.00  0.00     0.024 C
BRANCH  16  17
HETATM   17  C6  UNL     1       5.415  40.582  -2.230  1.00  0.00    -0.021 C
HETATM   18  C7  UNL     1       4.270  41.427  -2.775  1.00  0.00     0.009 C
HETATM   19  C8  UNL     1       4.863  39.231  -1.898  1.00  0.00     0.009 C
ENDBRANCH  16  17
ENDBRANCH  15  16
ENDBRANCH   9  15
ENDBRANCH   8   9
BRANCH   8  20
HETATM   20  C28 UNL     1       9.990  37.992  -3.078  1.00  0.00    -0.022 C
HETATM   21  C29 UNL     1      10.935  39.210  -2.959  1.00  0.00     0.017 C
HETATM   22  C30 UNL     1      10.478  36.797  -2.356  1.00  0.00     0.017 C
HETATM   23  C31 UNL     1      10.182  37.626  -4.585  1.00  0.00     0.017 C
ENDBRANCH   8  20
ENDBRANCH   4   8
ENDBRANCH   1   2
BRANCH   1  24
HETATM   24  C13 UNL     1       8.080  34.193  -0.018  1.00  0.00     0.049 C
BRANCH  24  25
HETATM   25  C14 UNL     1       9.081  33.167  -0.428  1.00  0.00     0.146 C
BRANCH  25  26
HETATM   26  O5  UNL     1       9.544  33.532  -1.719  1.00  0.00    -0.393 OA
ATOM     27  H5  UNL     1      10.479  33.684  -1.645  1.00  0.00     0.210 HD
ENDBRANCH  25  26
BRANCH  25  28
HETATM   28  C15 UNL     1      10.326  33.245   0.443  1.00  0.00     0.045 C
HETATM   29  C16 UNL     1      10.751  34.703   0.588  1.00  0.00     0.040 C
HETATM   30  C17 UNL     1      11.428  32.594  -0.422  1.00  0.00     0.040 C
BRANCH  28  31
HETATM   31  N3  UNL     1      10.255  32.543   1.623  1.00  0.00    -0.398 N
ATOM     32  H3  UNL     1      10.669  32.995   2.439  1.00  0.00     0.154 HD
BRANCH  31  33
HETATM   33  C18 UNL     1       9.692  31.307   1.838  1.00  0.00     0.173 C
BRANCH  33  34
HETATM   34  C19 UNL     1      10.467  30.150   2.303  1.00  0.00     0.240 C
HETATM   35  O6  UNL     1      11.266  29.545   1.548  1.00  0.00    -0.271 OA
HETATM   36  N4  UNL     1      10.355  29.644   3.648  1.00  0.00    -0.364 N
HETATM   37  C20 UNL     1      11.145  28.508   4.028  1.00  0.00     0.149 C
ATOM     38  H4  UNL     1       9.726  30.086   4.318  1.00  0.00     0.161 HD
ENDBRANCH  33  34
BRANCH  33  39
HETATM   39  C21 UNL     1       8.558  31.496   2.896  1.00  0.00     0.009 C
HETATM   40  C22 UNL     1       7.211  31.236   2.229  1.00  0.00     0.012 C
HETATM   41  C23 UNL     1       8.589  32.875   3.462  1.00  0.00     0.012 C
ENDBRANCH  33  39
ENDBRANCH  31  33
ENDBRANCH  28  31
ENDBRANCH  25  28
ENDBRANCH  24  25
ENDBRANCH   1  24
BRANCH   1  42
HETATM   42  C24 UNL     1       5.586  34.456   0.256  1.00  0.00    -0.039 C
HETATM   43  C25 UNL     1       4.682  35.539  -0.207  1.00  0.00     0.015 C
HETATM   44  C26 UNL     1       4.679  33.232   0.468  1.00  0.00     0.015 C
HETATM   45  C27 UNL     1       6.059  34.842   1.666  1.00  0.00     0.015 C
ENDBRANCH   1  42
TORSDOF 18
ENDMDL