MODEL 4
REMARK VINA RESULT: -6.684687418      1.218      1.569
REMARK  15 active torsions:
REMARK  status: ('A' for Active; 'I' for Inactive)
REMARK    1  A    between atoms: C2_2  and  C4_4
REMARK    2  A    between atoms: C4_4  and  C5_5
REMARK    3  A    between atoms: C5_5  and  N1_6
REMARK    4  A    between atoms: C5_5  and  C28_40
REMARK       I    between atoms: N1_6  and  C6_8
REMARK    5  A    between atoms: C6_8  and  C7_10
REMARK    6  A    between atoms: C7_10  and  N2_11
REMARK    7  A    between atoms: C7_10  and  C24_36
REMARK    8  A    between atoms: N2_11  and  C8_13
REMARK    9  A    between atoms: C8_13  and  C9_14
REMARK   10  A    between atoms: C8_13  and  C13_18
REMARK   11  A    between atoms: C9_14  and  C10_15
REMARK       I    between atoms: C13_18  and  N3_20
REMARK   12  A    between atoms: C18_25  and  C19_26
REMARK       I    between atoms: C19_26  and  N4_28
REMARK   13  A    between atoms: N4_28  and  C20_30
REMARK   14  A    between atoms: C20_30  and  C21_31
REMARK   15  A    between atoms: C28_40  and  C29_42
ROOT
HETATM    1  C8  UNL     1       7.444  34.062  -0.283  1.00  0.00     0.174 C
ENDROOT
BRANCH   1   2
HETATM    2  N2  UNL     1       7.361  34.719  -1.536  1.00  0.00    -0.375 N
ATOM      3  H2  UNL     1       7.055  34.146  -2.322  1.00  0.00     0.160 HD
BRANCH   2   4
HETATM    4  C7  UNL     1       7.642  36.028  -1.823  1.00  0.00     0.082 C
BRANCH   4   5
HETATM    5  C6  UNL     1       8.543  36.916  -1.140  1.00  0.00     0.265 C
HETATM    6  N1  UNL     1       8.738  37.065   0.252  1.00  0.00    -0.344 N
ATOM      7  H1  UNL     1       8.192  36.512   0.912  1.00  0.00     0.163 HD
HETATM    8  O1  UNL     1       9.306  37.708  -1.823  1.00  0.00    -0.266 OA
BRANCH   6   9
HETATM    9  C5  UNL     1       9.773  38.063   0.753  1.00  0.00     0.155 C
BRANCH   9  10
HETATM   10  C4  UNL     1       9.022  38.969   1.645  1.00  0.00     0.037 C
BRANCH  10  11
HETATM   11  C2  UNL     1       8.910  40.405   1.529  1.00  0.00    -0.020 C
HETATM   12  C1  UNL     1       8.867  41.086   0.222  1.00  0.00     0.009 C
HETATM   13  C3  UNL     1      10.087  41.020   2.337  1.00  0.00     0.009 C
ENDBRANCH  10  11
ENDBRANCH   9  10
BRANCH   9  14
HETATM   14  C28 UNL     1      10.796  37.255   1.453  1.00  0.00     0.152 C
HETATM   15  O6  UNL     1      10.684  36.004   1.452  1.00  0.00    -0.295 OA
BRANCH  14  16
HETATM   16  C29 UNL     1      11.979  37.772   2.149  1.00  0.00     0.049 C
HETATM   17  C30 UNL     1      12.656  36.861   3.109  1.00  0.00     0.017 C
HETATM   18  C31 UNL     1      13.047  38.151   1.103  1.00  0.00     0.017 C
ENDBRANCH  14  16
ENDBRANCH   9  14
ENDBRANCH   6   9
ENDBRANCH   4   5
BRANCH   4  19
HETATM   19  C24 UNL     1       6.291  36.724  -2.156  1.00  0.00    -0.004 C
HETATM   20  C25 UNL     1       5.565  35.738  -3.093  1.00  0.00     0.021 C
HETATM   21  C26 UNL     1       5.407  36.858  -0.964  1.00  0.00     0.021 C
HETATM   22  C27 UNL     1       6.512  37.976  -2.950  1.00  0.00     0.021 C
ENDBRANCH   4  19
ENDBRANCH   2   4
ENDBRANCH   1   2
BRANCH   1  23
HETATM   23  C9  UNL     1       6.152  33.303  -0.040  1.00  0.00     0.038 C
BRANCH  23  24
HETATM   24  C10 UNL     1       5.380  33.695   1.171  1.00  0.00    -0.020 C
HETATM   25  C11 UNL     1       6.239  34.785   1.858  1.00  0.00     0.009 C
HETATM   26  C12 UNL     1       5.356  32.576   2.212  1.00  0.00     0.009 C
ENDBRANCH  23  24
ENDBRANCH   1  23
BRANCH   1  27
HETATM   27  C13 UNL     1       8.587  33.094  -0.352  1.00  0.00     0.243 C
HETATM   28  O2  UNL     1       8.888  32.737  -1.522  1.00  0.00    -0.271 OA
HETATM   29  N3  UNL     1       9.323  32.577   0.739  1.00  0.00    -0.337 N
HETATM   30  C14 UNL     1       9.139  32.940   2.125  1.00  0.00     0.127 C
HETATM   31  C18 UNL     1      10.367  31.577   0.491  1.00  0.00     0.179 C
HETATM   32  C15 UNL     1       8.798  31.735   2.922  1.00  0.00     0.020 C
HETATM   33  C16 UNL     1       9.761  30.598   2.750  1.00  0.00     0.004 C
HETATM   34  C17 UNL     1      10.764  30.795   1.685  1.00  0.00     0.035 C
BRANCH  31  35
HETATM   35  C19 UNL     1      11.620  32.213  -0.034  1.00  0.00     0.241 C
HETATM   36  O3  UNL     1      12.161  31.758  -1.086  1.00  0.00    -0.271 OA
HETATM   37  N4  UNL     1      12.252  33.312   0.588  1.00  0.00    -0.340 N
ATOM     38  H4  UNL     1      11.814  33.674   1.435  1.00  0.00     0.163 HD
BRANCH  37  39
HETATM   39  C20 UNL     1      13.448  33.969   0.149  1.00  0.00     0.121 A
HETATM   40  C22 UNL     1      14.814  33.439   0.474  1.00  0.00     0.045 A
HETATM   41  C23 UNL     1      14.361  34.614   1.223  1.00  0.00     0.045 A
BRANCH  39  42
HETATM   42  C21 UNL     1      13.355  34.786  -1.108  1.00  0.00     0.202 C
HETATM   43  O4  UNL     1      14.210  34.578  -1.994  1.00  0.00    -0.646 OA
HETATM   44  O5  UNL     1      12.384  35.741  -1.324  1.00  0.00    -0.646 OA
ENDBRANCH  39  42
ENDBRANCH  37  39
ENDBRANCH  31  35
ENDBRANCH   1  27
TORSDOF 15
ENDMDL