MODEL 4
REMARK VINA RESULT: -7.152061208      2.090      2.573
REMARK  14 active torsions:
REMARK  status: ('A' for Active; 'I' for Inactive)
REMARK    1  A    between atoms: S1_2  and  C2_3
REMARK    2  A    between atoms: C2_3  and  C3_4
REMARK    3  A    between atoms: C3_4  and  C4_5
REMARK    4  A    between atoms: C4_5  and  N1_6
REMARK    5  A    between atoms: C4_5  and  C18_25
REMARK       I    between atoms: N1_6  and  C5_8
REMARK    6  A    between atoms: C5_8  and  C6_10
REMARK    7  A    between atoms: C6_10  and  C7_11
REMARK    8  A    between atoms: C6_10  and  N2_18
REMARK    9  A    between atoms: C7_11  and  C8_12
REMARK       I    between atoms: N2_18  and  C14_20
REMARK   10  A    between atoms: C14_20  and  C15_22
REMARK       I    between atoms: C18_25  and  N3_27
REMARK   11  A    between atoms: N3_27  and  C19_29
REMARK   12  A    between atoms: C19_29  and  C20_30
REMARK   13  A    between atoms: C19_29  and  C25_39
REMARK       I    between atoms: C20_30  and  N4_32
REMARK   14  A    between atoms: N4_32  and  C21_34
ROOT
HETATM    1  C4  UNL     1      10.961  34.930  -1.428  1.00  0.00     0.177 C
ENDROOT
BRANCH   1   2
HETATM    2  C3  UNL     1      10.986  34.498  -2.889  1.00  0.00     0.045 C
BRANCH   2   3
HETATM    3  C2  UNL     1      12.303  34.888  -3.537  1.00  0.00     0.076 C
BRANCH   3   4
HETATM    4  S1  UNL     1      11.946  35.344  -5.255  1.00  0.00    -0.173 SA
HETATM    5  C1  UNL     1      12.831  34.316  -6.426  1.00  0.00     0.089 C
ENDBRANCH   3   4
ENDBRANCH   2   3
ENDBRANCH   1   2
BRANCH   1   6
HETATM    6  N1  UNL     1      10.457  33.909  -0.566  1.00  0.00    -0.346 N
HETATM    7  C5  UNL     1      11.170  33.074   0.303  1.00  0.00     0.241 C
HETATM    8  O1  UNL     1      12.395  33.161   0.385  1.00  0.00    -0.271 OA
ATOM      9  H1  UNL     1       9.446  33.770  -0.586  1.00  0.00     0.163 HD
BRANCH   7  10
HETATM   10  C6  UNL     1      10.413  32.097   1.108  1.00  0.00     0.177 C
BRANCH  10  11
HETATM   11  C7  UNL     1       9.345  32.740   1.942  1.00  0.00     0.039 C
BRANCH  11  12
HETATM   12  C8  UNL     1       7.946  32.605   1.479  1.00  0.00    -0.012 C
HETATM   13  C9  UNL     1       7.139  32.131   2.709  1.00  0.00     0.005 C
HETATM   14  C10 UNL     1       5.837  31.609   2.106  1.00  0.00     0.000 C
HETATM   15  C11 UNL     1       5.084  32.791   1.582  1.00  0.00     0.000 C
HETATM   16  C12 UNL     1       5.874  34.054   1.498  1.00  0.00     0.000 C
HETATM   17  C13 UNL     1       7.292  33.897   1.036  1.00  0.00     0.005 C
ENDBRANCH  11  12
ENDBRANCH  10  11
BRANCH  10  18
HETATM   18  N2  UNL     1      11.245  31.157   1.807  1.00  0.00    -0.347 N
HETATM   19  C14 UNL     1      10.704  29.915   2.322  1.00  0.00     0.221 C
HETATM   20  O2  UNL     1       9.489  29.697   2.126  1.00  0.00    -0.273 OA
ATOM     21  H2  UNL     1      12.234  31.367   1.945  1.00  0.00     0.163 HD
BRANCH  19  22
HETATM   22  C15 UNL     1      11.516  28.929   3.050  1.00  0.00     0.070 C
HETATM   23  C16 UNL     1      11.797  27.765   2.105  1.00  0.00     0.019 C
HETATM   24  C17 UNL     1      10.778  28.429   4.287  1.00  0.00     0.019 C
ENDBRANCH  19  22
ENDBRANCH  10  18
ENDBRANCH   7  10
ENDBRANCH   1   6
BRANCH   1  25
HETATM   25  C18 UNL     1      10.134  36.150  -1.341  1.00  0.00     0.241 C
HETATM   26  O3  UNL     1      10.754  37.275  -1.389  1.00  0.00    -0.271 OA
HETATM   27  N3  UNL     1       8.727  36.149  -1.208  1.00  0.00    -0.346 N
ATOM     28  H3  UNL     1       8.215  35.268  -1.166  1.00  0.00     0.163 HD
BRANCH  27  29
HETATM   29  C19 UNL     1       7.997  37.446  -1.127  1.00  0.00     0.180 C
BRANCH  29  30
HETATM   30  C20 UNL     1       8.370  38.116   0.139  1.00  0.00     0.241 C
HETATM   31  O4  UNL     1       8.170  37.497   1.240  1.00  0.00    -0.271 OA
HETATM   32  N4  UNL     1       8.943  39.400   0.224  1.00  0.00    -0.353 N
ATOM     33  H4  UNL     1       9.128  39.935  -0.624  1.00  0.00     0.163 HD
BRANCH  32  34
HETATM   34  C21 UNL     1       9.274  39.962   1.536  1.00  0.00     0.110 C
HETATM   35  C22 UNL     1      10.771  39.766   1.809  1.00  0.00     0.053 C
HETATM   36  C23 UNL     1      11.110  40.983   2.594  1.00  0.00     0.169 C
HETATM   37  O5  UNL     1      10.098  41.911   2.489  1.00  0.00    -0.389 OA
HETATM   38  C24 UNL     1       9.180  41.461   1.553  1.00  0.00     0.192 C
ENDBRANCH  32  34
ENDBRANCH  29  30
BRANCH  29  39
HETATM   39  C25 UNL     1       6.565  37.086  -1.269  1.00  0.00     0.018 C
HETATM   40  C26 UNL     1       6.474  35.793  -2.065  1.00  0.00     0.007 C
HETATM   41  C27 UNL     1       5.311  35.809  -3.035  1.00  0.00     0.000 C
HETATM   42  C28 UNL     1       5.398  36.947  -4.037  1.00  0.00     0.000 C
HETATM   43  C29 UNL     1       5.829  38.233  -3.357  1.00  0.00     0.000 C
HETATM   44  C30 UNL     1       5.650  38.099  -1.857  1.00  0.00     0.007 C
ENDBRANCH  29  39
ENDBRANCH  27  29
ENDBRANCH   1  25
TORSDOF 14
ENDMDL