MODEL 5
REMARK VINA RESULT: -6.791968648      1.872      4.118
REMARK  16 active torsions:
REMARK  status: ('A' for Active; 'I' for Inactive)
REMARK    1  A    between atoms: O1_2  and  C2_3
REMARK    2  A    between atoms: C2_3  and  C3_5
REMARK    3  A    between atoms: C3_5  and  C4_6
REMARK    4  A    between atoms: C4_6  and  N1_7
REMARK    5  A    between atoms: C4_6  and  C29_43
REMARK       I    between atoms: N1_7  and  C5_9
REMARK    6  A    between atoms: C5_9  and  C6_11
REMARK    7  A    between atoms: C6_11  and  N2_12
REMARK    8  A    between atoms: C6_11  and  C26_40
REMARK       I    between atoms: N2_12  and  C7_14
REMARK    9  A    between atoms: C7_14  and  C8_16
REMARK       I    between atoms: C8_16  and  N3_18
REMARK   10  A    between atoms: N3_18  and  C9_20
REMARK   11  A    between atoms: C9_20  and  C10_21
REMARK   12  A    between atoms: C9_20  and  C17_28
REMARK   13  A    between atoms: C10_21  and  C11_22
REMARK   14  A    between atoms: C17_28  and  N4_29
REMARK   15  A    between atoms: C17_28  and  C22_36
REMARK       I    between atoms: N4_29  and  C18_31
REMARK   16  A    between atoms: C18_31  and  C19_33
ROOT
HETATM    1  C8  UNL     1      11.505  28.573   4.247  1.00  0.00     0.313 C
HETATM    2  O5  UNL     1      11.499  29.317   5.281  1.00  0.00    -0.262 OA
HETATM    3  N3  UNL     1      12.078  27.275   4.307  1.00  0.00    -0.321 N
ATOM      4  H3  UNL     1      12.054  26.719   3.452  1.00  0.00     0.169 HD
ENDROOT
BRANCH   1   5
HETATM    5  C7  UNL     1      10.908  29.127   3.066  1.00  0.00     0.310 C
HETATM    6  N2  UNL     1      10.934  30.500   2.731  1.00  0.00    -0.339 N
ATOM      7  H2  UNL     1      11.403  31.149   3.362  1.00  0.00     0.163 HD
HETATM    8  O4  UNL     1      10.319  28.346   2.267  1.00  0.00    -0.262 OA
BRANCH   6   9
HETATM    9  C6  UNL     1      10.306  31.036   1.500  1.00  0.00     0.180 C
BRANCH   9  10
HETATM   10  C5  UNL     1       9.258  31.982   1.829  1.00  0.00     0.241 C
HETATM   11  N1  UNL     1       8.528  32.757   0.916  1.00  0.00    -0.354 N
ATOM     12  H1  UNL     1       8.739  32.682  -0.079  1.00  0.00     0.162 HD
HETATM   13  O3  UNL     1       8.954  32.130   3.065  1.00  0.00    -0.271 OA
BRANCH  11  14
HETATM   14  C4  UNL     1       7.453  33.687   1.361  1.00  0.00     0.097 C
BRANCH  14  15
HETATM   15  C3  UNL     1       6.216  33.181   0.686  1.00  0.00     0.136 C
BRANCH  15  16
HETATM   16  C2  UNL     1       5.295  32.429   1.535  1.00  0.00     0.260 C
HETATM   17  O2  UNL     1       5.738  31.583   2.347  1.00  0.00    -0.265 OA
BRANCH  16  18
HETATM   18  O1  UNL     1       3.928  32.615   1.477  1.00  0.00    -0.326 OA
HETATM   19  C1  UNL     1       3.279  33.035   0.271  1.00  0.00     0.213 C
ENDBRANCH  16  18
ENDBRANCH  15  16
ENDBRANCH  14  15
BRANCH  14  20
HETATM   20  C29 UNL     1       7.914  35.042   0.887  1.00  0.00     0.001 C
HETATM   21  C30 UNL     1       6.890  36.122   1.039  1.00  0.00     0.011 C
HETATM   22  C31 UNL     1       8.273  34.915  -0.581  1.00  0.00     0.011 C
ENDBRANCH  14  20
ENDBRANCH  11  14
ENDBRANCH   9  10
BRANCH   9  23
HETATM   23  C26 UNL     1      11.363  31.448   0.535  1.00  0.00     0.009 C
HETATM   24  C27 UNL     1      11.136  31.039  -0.894  1.00  0.00     0.012 C
HETATM   25  C28 UNL     1      11.764  32.900   0.607  1.00  0.00     0.012 C
ENDBRANCH   9  23
ENDBRANCH   6   9
ENDBRANCH   1   5
BRANCH   3  26
HETATM   26  C9  UNL     1      12.691  26.672   5.461  1.00  0.00     0.032 C
BRANCH  26  27
HETATM   27  C10 UNL     1      11.717  26.363   6.537  1.00  0.00     0.005 C
BRANCH  27  28
HETATM   28  C11 UNL     1      11.281  24.999   6.828  1.00  0.00     0.010 C
HETATM   29  C12 UNL     1      12.107  24.502   8.046  1.00  0.00     0.008 C
HETATM   30  C13 UNL     1      11.522  23.247   8.598  1.00  0.00     0.001 C
HETATM   31  C14 UNL     1      10.718  22.494   7.540  1.00  0.00     0.000 C
HETATM   32  C15 UNL     1       9.554  23.274   7.053  1.00  0.00     0.001 C
HETATM   33  C16 UNL     1       9.856  24.766   7.174  1.00  0.00     0.008 C
ENDBRANCH  27  28
ENDBRANCH  26  27
BRANCH  26  34
HETATM   34  C17 UNL     1      14.065  27.071   5.810  1.00  0.00     0.141 C
BRANCH  34  35
HETATM   35  N4  UNL     1      14.076  27.974   6.953  1.00  0.00    -0.350 N
HETATM   36  C18 UNL     1      14.413  29.336   6.935  1.00  0.00     0.222 C
HETATM   37  O6  UNL     1      14.743  29.866   5.849  1.00  0.00    -0.273 OA
ATOM     38  H4  UNL     1      13.815  27.577   7.855  1.00  0.00     0.163 HD
BRANCH  36  39
HETATM   39  C19 UNL     1      14.395  30.163   8.149  1.00  0.00     0.078 A
HETATM   40  C20 UNL     1      15.144  31.450   8.238  1.00  0.00     0.015 A
HETATM   41  C21 UNL     1      15.646  30.264   8.996  1.00  0.00     0.015 A
ENDBRANCH  36  39
ENDBRANCH  34  35
BRANCH  34  42
HETATM   42  C22 UNL     1      15.021  25.972   6.172  1.00  0.00    -0.025 C
HETATM   43  C23 UNL     1      14.771  24.609   5.655  1.00  0.00     0.017 C
HETATM   44  C24 UNL     1      16.383  26.416   5.599  1.00  0.00     0.017 C
HETATM   45  C25 UNL     1      15.239  25.846   7.664  1.00  0.00     0.017 C
ENDBRANCH  34  42
ENDBRANCH  26  34
ENDBRANCH   3  26
TORSDOF 16
ENDMDL