MODEL 1
REMARK VINA RESULT: -7.143946368      0.000      0.000
REMARK  16 active torsions:
REMARK  status: ('A' for Active; 'I' for Inactive)
REMARK    1  A    between atoms: N1_2  and  C2_5
REMARK    2  A    between atoms: C2_5  and  C3_6
REMARK    3  A    between atoms: C2_5  and  C26_42
REMARK       I    between atoms: C3_6  and  N2_8
REMARK    4  A    between atoms: N2_8  and  C4_10
REMARK    5  A    between atoms: C4_10  and  C5_11
REMARK    6  A    between atoms: C4_10  and  C22_37
REMARK       I    between atoms: C5_11  and  N3_13
REMARK    7  A    between atoms: N3_13  and  C6_15
REMARK    8  A    between atoms: C6_15  and  C7_16
REMARK    9  A    between atoms: C6_15  and  C11_20
REMARK   10  A    between atoms: C7_16  and  C8_17
REMARK       I    between atoms: C11_20  and  N4_22
REMARK   11  A    between atoms: N4_22  and  C12_24
REMARK   12  A    between atoms: C12_24  and  C13_25
REMARK   13  A    between atoms: C12_24  and  C19_34
REMARK   14  A    between atoms: C13_25  and  O4_26
REMARK   15  A    between atoms: C13_25  and  N5_28
REMARK   16  A    between atoms: C22_37  and  C23_39
ROOT
HETATM    1  C5  UNL     1       9.809  33.495  -0.297  1.00  0.00     0.248 C
HETATM    2  O2  UNL     1       9.806  33.348  -1.566  1.00  0.00    -0.271 OA
HETATM    3  N3  UNL     1       8.656  33.838   0.417  1.00  0.00    -0.346 N
ATOM      4  H3  UNL     1       8.716  33.945   1.430  1.00  0.00     0.163 HD
ENDROOT
BRANCH   3   5
HETATM    5  C6  UNL     1       7.357  34.051  -0.245  1.00  0.00     0.177 C
BRANCH   5   6
HETATM    6  C7  UNL     1       6.317  33.974   0.833  1.00  0.00     0.038 C
BRANCH   6   7
HETATM    7  C8  UNL     1       5.383  32.805   0.775  1.00  0.00    -0.020 C
HETATM    8  C9  UNL     1       4.031  33.358   0.248  1.00  0.00     0.009 C
HETATM    9  C10 UNL     1       5.090  32.310   2.171  1.00  0.00     0.009 C
ENDBRANCH   6   7
ENDBRANCH   5   6
BRANCH   5  10
HETATM   10  C11 UNL     1       7.398  35.393  -0.909  1.00  0.00     0.241 C
HETATM   11  O3  UNL     1       7.414  36.405  -0.140  1.00  0.00    -0.271 OA
HETATM   12  N4  UNL     1       7.427  35.602  -2.298  1.00  0.00    -0.347 N
ATOM     13  H4  UNL     1       7.414  34.820  -2.952  1.00  0.00     0.163 HD
BRANCH  12  14
HETATM   14  C12 UNL     1       7.477  37.032  -2.785  1.00  0.00     0.162 C
BRANCH  14  15
HETATM   15  C13 UNL     1       8.753  37.166  -3.461  1.00  0.00     0.137 C
BRANCH  15  16
HETATM   16  O4  UNL     1       8.688  38.052  -4.484  1.00  0.00    -0.348 OA
ATOM     17  H4  UNL     1       7.987  37.840  -5.088  1.00  0.00     0.219 HD
ENDBRANCH  15  16
BRANCH  15  18
HETATM   18  N5  UNL     1      10.039  36.647  -3.363  1.00  0.00    -0.363 N
HETATM   19  C14 UNL     1      10.824  36.902  -2.122  1.00  0.00     0.125 C
HETATM   20  C15 UNL     1      12.160  36.341  -2.377  1.00  0.00     0.026 C
HETATM   21  C16 UNL     1      11.895  35.197  -3.320  1.00  0.00     0.001 C
HETATM   22  C17 UNL     1      13.109  34.880  -4.160  1.00  0.00     0.011 C
HETATM   23  C18 UNL     1      10.836  35.821  -4.228  1.00  0.00     0.129 C
ENDBRANCH  15  18
ENDBRANCH  14  15
BRANCH  14  24
HETATM   24  C19 UNL     1       6.191  37.458  -3.289  1.00  0.00     0.008 C
HETATM   25  C20 UNL     1       5.469  36.435  -4.090  1.00  0.00     0.012 C
HETATM   26  C21 UNL     1       5.272  38.175  -2.312  1.00  0.00     0.012 C
ENDBRANCH  14  24
ENDBRANCH  12  14
ENDBRANCH   5  10
ENDBRANCH   3   5
BRANCH   1  27
HETATM   27  C4  UNL     1      11.109  33.282   0.361  1.00  0.00     0.247 C
BRANCH  27  28
HETATM   28  N2  UNL     1      10.797  32.431   1.550  1.00  0.00    -0.340 N
HETATM   29  C3  UNL     1      10.843  31.037   1.456  1.00  0.00     0.249 C
HETATM   30  O1  UNL     1      11.186  30.557   0.316  1.00  0.00    -0.271 OA
ATOM     31  H2  UNL     1      10.549  32.870   2.436  1.00  0.00     0.163 HD
BRANCH  29  32
HETATM   32  C2  UNL     1      10.554  30.045   2.486  1.00  0.00     0.280 C
BRANCH  32  33
HETATM   33  N1  UNL     1       9.121  29.718   2.352  1.00  0.00    -0.066 N
HETATM   34  C1  UNL     1       8.302  30.885   2.470  1.00  0.00     0.267 C
ATOM     35  H12 UNL     1       8.839  28.996   3.015  1.00  0.00     0.277 HD
ATOM     36  H11 UNL     1       8.932  29.217   1.484  1.00  0.00     0.277 HD
ENDBRANCH  32  33
BRANCH  32  37
HETATM   37  C26 UNL     1      11.333  28.791   2.501  1.00  0.00     0.025 C
HETATM   38  C27 UNL     1      12.800  28.972   2.748  1.00  0.00     0.007 C
HETATM   39  C28 UNL     1      13.154  28.371   4.094  1.00  0.00     0.000 C
HETATM   40  C29 UNL     1      12.261  28.903   5.197  1.00  0.00     0.000 C
HETATM   41  C30 UNL     1      10.868  28.395   4.950  1.00  0.00     0.000 C
HETATM   42  C31 UNL     1      10.774  27.856   3.543  1.00  0.00     0.007 C
ENDBRANCH  32  37
ENDBRANCH  29  32
ENDBRANCH  27  28
BRANCH  27  43
HETATM   43  C22 UNL     1      11.638  34.579   0.847  1.00  0.00     0.162 C
HETATM   44  O5  UNL     1      10.849  35.512   1.096  1.00  0.00    -0.295 OA
BRANCH  43  45
HETATM   45  C23 UNL     1      13.062  34.823   1.054  1.00  0.00     0.050 C
HETATM   46  C24 UNL     1      14.003  34.206   0.085  1.00  0.00     0.017 C
HETATM   47  C25 UNL     1      13.342  36.330   1.146  1.00  0.00     0.017 C
ENDBRANCH  43  45
ENDBRANCH  27  43
ENDBRANCH   1  27
TORSDOF 16
ENDMDL