MODEL 5
REMARK VINA RESULT: -7.035460261      2.389     10.431
REMARK  17 active torsions:
REMARK  status: ('A' for Active; 'I' for Inactive)
REMARK    1  A    between atoms: C2_2  and  C3_3
REMARK    2  A    between atoms: C2_2  and  C14_18
REMARK    3  A    between atoms: C2_2  and  C21_25
REMARK    4  A    between atoms: C3_3  and  C4_4
REMARK    5  A    between atoms: C4_4  and  C5_5
REMARK    6  A    between atoms: C5_5  and  C6_6
REMARK    7  A    between atoms: C6_6  and  N1_7
REMARK       I    between atoms: N1_7  and  C7_9
REMARK    8  A    between atoms: C7_9  and  C8_11
REMARK    9  A    between atoms: C8_11  and  N2_12
REMARK   10  A    between atoms: C14_18  and  C15_19
REMARK       I    between atoms: C21_25  and  N3_27
REMARK   11  A    between atoms: N3_27  and  N4_29
REMARK   12  A    between atoms: N4_29  and  C22_31
REMARK   13  A    between atoms: C22_31  and  N5_33
REMARK   14  A    between atoms: N5_33  and  C23_35
REMARK   15  A    between atoms: C23_35  and  C24_36
REMARK   16  A    between atoms: C24_36  and  C25_37
REMARK   17  A    between atoms: C25_37  and  N6_38
ROOT
HETATM    1  C1  UNL     1      10.266  32.614   0.116  1.00  0.00     0.030 C
HETATM    2  C2  UNL     1       9.401  32.921   1.367  1.00  0.00     0.057 C
ENDROOT
BRANCH   2   3
HETATM    3  C3  UNL     1       9.824  34.087   2.147  1.00  0.00    -0.012 C
BRANCH   3   4
HETATM    4  C4  UNL     1      11.077  34.786   1.943  1.00  0.00    -0.028 C
BRANCH   4   5
HETATM    5  C5  UNL     1      11.148  36.222   1.628  1.00  0.00     0.046 C
BRANCH   5   6
HETATM    6  C6  UNL     1      10.968  36.604   0.210  1.00  0.00     0.126 C
BRANCH   6   7
HETATM    7  N1  UNL     1       9.597  36.635  -0.226  1.00  0.00    -0.359 N
HETATM    8  C7  UNL     1       9.172  36.024  -1.408  1.00  0.00     0.246 C
HETATM    9  O1  UNL     1       9.959  35.390  -2.188  1.00  0.00    -0.272 OA
ATOM     10  H1  UNL     1       8.909  37.122   0.349  1.00  0.00     0.162 HD
BRANCH   8  11
HETATM   11  C8  UNL     1       7.771  36.069  -1.844  1.00  0.00     0.374 C
BRANCH  11  12
HETATM   12  N2  UNL     1       7.327  37.237  -2.507  1.00  0.00     0.097 N
HETATM   13  C9  UNL     1       6.756  38.271  -1.706  1.00  0.00     0.273 C
HETATM   14  C10 UNL     1       5.278  38.460  -2.071  1.00  0.00     0.030 C
HETATM   15  C11 UNL     1       4.624  37.105  -2.139  1.00  0.00     0.003 C
HETATM   16  C12 UNL     1       5.277  36.207  -3.140  1.00  0.00     0.030 C
HETATM   17  C13 UNL     1       6.523  36.906  -3.666  1.00  0.00     0.273 C
ENDBRANCH  11  12
ENDBRANCH   8  11
ENDBRANCH   6   7
ENDBRANCH   5   6
ENDBRANCH   4   5
ENDBRANCH   3   4
ENDBRANCH   2   3
BRANCH   2  18
HETATM   18  C14 UNL     1       8.035  33.090   0.740  1.00  0.00     0.027 C
BRANCH  18  19
HETATM   19  C15 UNL     1       6.833  33.174   1.556  1.00  0.00    -0.013 C
HETATM   20  C16 UNL     1       6.036  34.371   0.963  1.00  0.00     0.005 C
HETATM   21  C17 UNL     1       5.138  33.927  -0.156  1.00  0.00     0.000 C
HETATM   22  C18 UNL     1       3.977  33.183   0.512  1.00  0.00     0.000 C
HETATM   23  C19 UNL     1       4.463  32.625   1.828  1.00  0.00     0.000 C
HETATM   24  C20 UNL     1       5.876  32.046   1.602  1.00  0.00     0.005 C
ENDBRANCH  18  19
ENDBRANCH   2  18
BRANCH   2  25
HETATM   25  C21 UNL     1       9.416  31.642   2.099  1.00  0.00     0.248 C
HETATM   26  O2  UNL     1       8.950  31.609   3.271  1.00  0.00    -0.271 OA
HETATM   27  N3  UNL     1       9.923  30.437   1.573  1.00  0.00    -0.267 N
ATOM     28  H3  UNL     1      10.301  30.446   0.625  1.00  0.00     0.190 HD
BRANCH  27  29
HETATM   29  N4  UNL     1       9.933  29.238   2.277  1.00  0.00    -0.274 N
ATOM     30  H4  UNL     1       9.190  28.571   2.073  1.00  0.00     0.189 HD
BRANCH  29  31
HETATM   31  C22 UNL     1      10.887  28.865   3.253  1.00  0.00     0.186 C
HETATM   32  S1  UNL     1      12.194  27.953   2.957  1.00  0.00    -0.040 SA
BRANCH  31  33
HETATM   33  N5  UNL     1      10.710  29.317   4.628  1.00  0.00    -0.366 N
ATOM     34  H5  UNL     1      10.048  30.058   4.857  1.00  0.00     0.161 HD
BRANCH  33  35
HETATM   35  C23 UNL     1      11.490  28.689   5.638  1.00  0.00     0.123 C
BRANCH  35  36
HETATM   36  C24 UNL     1      12.400  29.508   6.467  1.00  0.00     0.050 C
BRANCH  36  37
HETATM   37  C25 UNL     1      13.820  29.449   6.082  1.00  0.00     0.274 C
BRANCH  37  38
HETATM   38  N6  UNL     1      14.700  30.461   6.620  1.00  0.00     0.090 N
HETATM   39  C26 UNL     1      16.013  29.820   6.706  1.00  0.00     0.274 C
HETATM   40  C27 UNL     1      17.020  30.598   7.468  1.00  0.00     0.056 C
HETATM   41  C28 UNL     1      16.514  31.806   8.180  1.00  0.00     0.169 C
HETATM   42  O3  UNL     1      15.934  31.394   9.381  1.00  0.00    -0.389 OA
HETATM   43  C29 UNL     1      15.134  30.292   9.057  1.00  0.00     0.198 C
HETATM   44  C30 UNL     1      14.199  30.708   7.980  1.00  0.00     0.298 C
ENDBRANCH  37  38
ENDBRANCH  36  37
ENDBRANCH  35  36
ENDBRANCH  33  35
ENDBRANCH  31  33
ENDBRANCH  29  31
ENDBRANCH  27  29
ENDBRANCH   2  25
TORSDOF 17
ENDMDL