MODEL 1
REMARK VINA RESULT: -6.581153599      0.000      0.000
REMARK  3 active torsions:
REMARK  status: ('A' for Active; 'I' for Inactive)
REMARK       I    between atoms: C2_2  and  N1_4
REMARK       I    between atoms: N2_6  and  C4_7
REMARK    1  A    between atoms: C4_7  and  C5_9
REMARK    2  A    between atoms: C5_9  and  C6_10
REMARK    3  A    between atoms: C10_14  and  C11_15
ROOT
HETATM    1  C1  UNL     1      29.020  50.966   0.661  1.00  0.00     0.117 C
HETATM    2  C2  UNL     1      27.553  50.694   0.680  1.00  0.00     0.217 C
HETATM    3  O1  UNL     1      27.022  50.626   1.842  1.00  0.00    -0.274 OA
HETATM    4  N1  UNL     1      26.783  50.518  -0.503  1.00  0.00    -0.330 N
HETATM    5  C3  UNL     1      27.492  50.617  -1.757  1.00  0.00     0.256 C
HETATM    6  N2  UNL     1      26.622  50.971  -2.856  1.00  0.00    -0.320 N
HETATM    7  C4  UNL     1      27.238  51.330  -4.078  1.00  0.00     0.222 C
HETATM    8  O2  UNL     1      26.529  51.645  -5.061  1.00  0.00    -0.273 OA
HETATM    9  C10 UNL     1      25.181  50.979  -2.781  1.00  0.00     0.199 C
HETATM   10  C12 UNL     1      24.610  50.264  -1.637  1.00  0.00     0.065 C
HETATM   11  C13 UNL     1      23.290  50.840  -1.268  1.00  0.00    -0.021 C
HETATM   12  C14 UNL     1      23.301  51.406  -0.079  1.00  0.00    -0.028 C
HETATM   13  C15 UNL     1      24.654  51.265   0.481  1.00  0.00     0.053 C
HETATM   14  C16 UNL     1      25.393  50.259  -0.375  1.00  0.00     0.102 C
ENDROOT
BRANCH   7  15
HETATM   15  C5  UNL     1      28.712  51.351  -4.256  1.00  0.00     0.111 C
BRANCH  15  16
HETATM   16  C6  UNL     1      29.208  50.108  -4.911  1.00  0.00    -0.043 C
HETATM   17  C7  UNL     1      30.314  50.438  -5.877  1.00  0.00     0.015 C
HETATM   18  C8  UNL     1      29.766  49.165  -3.860  1.00  0.00     0.015 C
HETATM   19  C9  UNL     1      28.137  49.372  -5.675  1.00  0.00     0.015 C
ENDBRANCH  15  16
ENDBRANCH   7  15
BRANCH   9  20
HETATM   20  C11 UNL     1      24.752  52.397  -2.874  1.00  0.00     0.197 C
HETATM   21  O3  UNL     1      23.772  52.797  -3.571  1.00  0.00    -0.646 OA
HETATM   22  O4  UNL     1      25.418  53.425  -2.178  1.00  0.00    -0.646 OA
ENDBRANCH   9  20
TORSDOF 3
ENDMDL