MODEL 3
REMARK VINA RESULT: -5.592812433      5.715      8.704
REMARK  3 active torsions:
REMARK  status: ('A' for Active; 'I' for Inactive)
REMARK    1  A    between atoms: C2_2  and  N1_4
REMARK       I    between atoms: N1_4  and  C5_6
REMARK       I    between atoms: C5_6  and  N2_8
REMARK    2  A    between atoms: N2_8  and  C6_10
REMARK       I    between atoms: N3_12  and  C8_13
REMARK    3  A    between atoms: C8_13  and  C9_15
ROOT
HETATM    1  C6  UNL     1      24.930  51.150  -3.641  1.00  0.00     0.121 C
HETATM    2  C7  UNL     1      24.499  52.587  -3.567  1.00  0.00     0.152 C
HETATM    3  N3  UNL     1      23.892  52.911  -4.867  1.00  0.00    -0.349 N
HETATM    4  C8  UNL     1      22.580  53.372  -4.989  1.00  0.00     0.227 C
HETATM    5  O2  UNL     1      21.930  53.502  -3.891  1.00  0.00    -0.273 OA
HETATM    6  C13 UNL     1      24.734  52.730  -6.020  1.00  0.00     0.127 C
HETATM    7  C14 UNL     1      26.102  52.227  -5.553  1.00  0.00     0.041 C
HETATM    8  C15 UNL     1      25.985  51.001  -4.691  1.00  0.00     0.118 C
HETATM    9  C16 UNL     1      27.302  50.785  -4.073  1.00  0.00     0.066 C
HETATM   10  N4  UNL     1      28.337  50.609  -3.571  1.00  0.00    -0.197 NA
ENDROOT
BRANCH   1  11
HETATM   11  N2  UNL     1      25.382  50.669  -2.349  1.00  0.00    -0.335 N
HETATM   12  C5  UNL     1      24.492  50.168  -1.384  1.00  0.00     0.318 C
HETATM   13  N1  UNL     1      24.861  49.682  -0.107  1.00  0.00    -0.335 N
HETATM   14  O1  UNL     1      23.250  50.155  -1.703  1.00  0.00    -0.247 OA
HETATM   15  C4  UNL     1      23.862  49.184   0.818  1.00  0.00     0.154 C
ATOM     16  H2  UNL     1      26.379  50.695  -2.134  1.00  0.00     0.164 HD
BRANCH  13  17
HETATM   17  C2  UNL     1      26.235  49.658   0.337  1.00  0.00     0.080 C
HETATM   18  C1  UNL     1      26.346  48.441   1.266  1.00  0.00     0.032 C
HETATM   19  C3  UNL     1      26.400  50.877   1.250  1.00  0.00     0.032 C
ENDBRANCH  13  17
ENDBRANCH   1  11
BRANCH   4  20
HETATM   20  C9  UNL     1      21.883  53.714  -6.226  1.00  0.00     0.030 C
HETATM   21  C10 UNL     1      20.478  54.256  -5.911  1.00  0.00     0.025 C
HETATM   22  C11 UNL     1      21.707  52.485  -7.114  1.00  0.00     0.025 C
HETATM   23  C12 UNL     1      22.586  54.762  -7.064  1.00  0.00     0.025 C
ENDBRANCH   4  20
TORSDOF 3
ENDMDL