MODEL 1
REMARK VINA RESULT: -7.238489712      0.000      0.000
REMARK  4 active torsions:
REMARK  status: ('A' for Active; 'I' for Inactive)
REMARK    1  A    between atoms: C7_8  and  O1_9
REMARK    2  A    between atoms: C8_11  and  O2_12
REMARK    3  A    between atoms: O2_12  and  C9_13
REMARK    4  A    between atoms: C9_13  and  C10_15
ROOT
HETATM    1  C1  UNL     1      32.246  54.574   0.164  1.00  0.00     0.272 C
HETATM    2  N1  UNL     1      31.853  53.938   1.433  1.00  0.00    -0.068 N
HETATM    3  C2  UNL     1      33.095  53.542   2.070  1.00  0.00     0.237 C
HETATM    4  C3  UNL     1      32.859  52.829   3.357  1.00  0.00     0.035 C
HETATM    5  C4  UNL     1      31.533  53.278   3.915  1.00  0.00     0.020 C
HETATM    6  C5  UNL     1      31.279  54.743   3.656  1.00  0.00     0.035 C
HETATM    7  C6  UNL     1      31.145  54.941   2.183  1.00  0.00     0.237 C
HETATM    8  C7  UNL     1      30.393  52.394   3.521  1.00  0.00     0.153 C
HETATM    9  C8  UNL     1      30.012  52.442   2.095  1.00  0.00     0.187 C
HETATM   10  C18 UNL     1      31.103  52.771   1.137  1.00  0.00     0.272 C
ENDROOT
BRANCH   9  11
HETATM   11  O2  UNL     1      29.505  51.160   1.727  1.00  0.00    -0.308 OA
BRANCH  11  12
HETATM   12  C9  UNL     1      28.179  50.840   1.687  1.00  0.00     0.289 C
HETATM   13  O3  UNL     1      27.530  50.799   2.757  1.00  0.00    -0.260 OA
BRANCH  12  14
HETATM   14  C10 UNL     1      27.472  50.538   0.423  1.00  0.00     0.013 C
HETATM   15  C11 UNL     1      27.904  51.241  -0.609  1.00  0.00    -0.013 C
HETATM   16  C12 UNL     1      27.530  51.298  -2.029  1.00  0.00     0.028 C
HETATM   17  C13 UNL     1      26.124  50.803  -2.271  1.00  0.00     0.004 C
HETATM   18  C14 UNL     1      25.079  51.640  -1.592  1.00  0.00     0.000 C
HETATM   19  C15 UNL     1      24.963  51.432  -0.120  1.00  0.00     0.000 C
HETATM   20  C16 UNL     1      25.043  49.974   0.290  1.00  0.00     0.005 C
HETATM   21  C17 UNL     1      26.422  49.504   0.585  1.00  0.00     0.044 C
ENDBRANCH  12  14
ENDBRANCH  11  12
ENDBRANCH   9  11
BRANCH   8  22
HETATM   22  O1  UNL     1      29.279  52.793   4.284  1.00  0.00    -0.393 OA
ATOM     23  H1  UNL     1      28.860  52.001   4.600  1.00  0.00     0.210 HD
ENDBRANCH   8  22
TORSDOF 4
ENDMDL