MODEL 5
REMARK VINA RESULT: -5.989810044      1.147      1.447
REMARK  4 active torsions:
REMARK  status: ('A' for Active; 'I' for Inactive)
REMARK    1  A    between atoms: C2_2  and  C3_3
REMARK    2  A    between atoms: C3_3  and  N1_4
REMARK    3  A    between atoms: N1_4  and  C4_6
REMARK    4  A    between atoms: C4_6  and  N2_8
REMARK       I    between atoms: N4_18  and  C13_19
ROOT
HETATM    1  N2  UNL     1      25.169  50.640  -2.049  1.00  0.00    -0.356 N
HETATM    2  C5  UNL     1      23.817  50.201  -1.900  1.00  0.00     0.127 C
HETATM    3  C6  UNL     1      23.024  50.989  -0.880  1.00  0.00     0.045 C
HETATM    4  C7  UNL     1      23.505  50.730   0.529  1.00  0.00     0.090 C
HETATM    5  C8  UNL     1      24.776  51.545   0.746  1.00  0.00     0.053 C
HETATM    6  C9  UNL     1      25.831  50.566   0.340  1.00  0.00     0.083 C
HETATM    7  C10 UNL     1      27.048  50.781   1.161  1.00  0.00     0.072 C
HETATM    8  N3  UNL     1      27.982  50.951   1.816  1.00  0.00    -0.196 NA
HETATM    9  C11 UNL     1      26.239  50.819  -1.070  1.00  0.00     0.151 C
HETATM   10  C12 UNL     1      25.281  49.189   0.596  1.00  0.00     0.152 C
HETATM   11  N4  UNL     1      23.852  49.360   0.753  1.00  0.00    -0.346 N
HETATM   12  C13 UNL     1      22.947  48.323   1.077  1.00  0.00     0.216 C
HETATM   13  C14 UNL     1      23.431  46.941   1.284  1.00  0.00     0.117 C
HETATM   14  O1  UNL     1      21.704  48.553   1.196  1.00  0.00    -0.274 OA
ENDROOT
BRANCH   1  15
HETATM   15  C4  UNL     1      25.592  50.973  -3.363  1.00  0.00     0.169 C
HETATM   16  S1  UNL     1      24.453  51.537  -4.399  1.00  0.00    -0.041 SA
BRANCH  15  17
HETATM   17  N1  UNL     1      26.951  50.821  -3.794  1.00  0.00    -0.367 N
ATOM     18  H1  UNL     1      27.393  49.910  -3.669  1.00  0.00     0.161 HD
BRANCH  17  19
HETATM   19  C3  UNL     1      27.723  51.858  -4.384  1.00  0.00     0.121 C
BRANCH  19  20
HETATM   20  C2  UNL     1      28.090  52.996  -3.473  1.00  0.00     0.015 C
HETATM   21  C1  UNL     1      27.317  54.219  -3.987  1.00  0.00     0.006 C
ENDBRANCH  19  20
ENDBRANCH  17  19
ENDBRANCH  15  17
ENDBRANCH   1  15
TORSDOF 4
ENDMDL