MODEL 3
REMARK VINA RESULT: -5.718667635      2.045      3.182
REMARK  4 active torsions:
REMARK  status: ('A' for Active; 'I' for Inactive)
REMARK    1  A    between atoms: C2_2  and  N1_4
REMARK       I    between atoms: N1_4  and  C4_6
REMARK    2  A    between atoms: C4_6  and  O2_8
REMARK    3  A    between atoms: O2_8  and  C5_9
REMARK    4  A    between atoms: N2_14  and  C11_16
ROOT
HETATM    1  C5  UNL     1      23.672  51.527  -2.572  1.00  0.00     0.139 C
HETATM    2  C6  UNL     1      24.135  52.947  -2.717  1.00  0.00     0.058 C
HETATM    3  C7  UNL     1      24.914  53.045  -4.010  1.00  0.00     0.089 C
HETATM    4  C8  UNL     1      26.218  53.772  -3.651  1.00  0.00     0.053 C
HETATM    5  C9  UNL     1      27.084  53.011  -2.725  1.00  0.00     0.242 C
HETATM    6  N2  UNL     1      27.083  51.588  -2.806  1.00  0.00    -0.042 N
HETATM    7  C10 UNL     1      27.121  51.124  -1.404  1.00  0.00     0.276 C
HETATM    8  C15 UNL     1      25.961  50.989  -3.451  1.00  0.00     0.293 C
HETATM    9  C16 UNL     1      24.830  50.533  -2.569  1.00  0.00     0.087 C
HETATM   10  N3  UNL     1      25.334  51.798  -4.462  1.00  0.00    -0.367 N
HETATM   11  C17 UNL     1      24.859  51.215  -5.603  1.00  0.00     0.117 C
ENDROOT
BRANCH   1  12
HETATM   12  O2  UNL     1      22.847  51.340  -1.436  1.00  0.00    -0.298 OA
BRANCH  12  13
HETATM   13  C4  UNL     1      23.289  50.730  -0.274  1.00  0.00     0.361 C
HETATM   14  N1  UNL     1      23.103  49.352   0.001  1.00  0.00    -0.333 N
ATOM     15  H1  UNL     1      22.619  48.788  -0.697  1.00  0.00     0.165 HD
HETATM   16  O1  UNL     1      23.883  51.475   0.560  1.00  0.00    -0.238 OA
BRANCH  14  17
HETATM   17  C2  UNL     1      23.552  48.698   1.199  1.00  0.00     0.078 C
HETATM   18  C1  UNL     1      22.640  47.559   1.613  1.00  0.00     0.032 C
HETATM   19  C3  UNL     1      24.951  48.148   1.095  1.00  0.00     0.032 C
ENDBRANCH  14  17
ENDBRANCH  12  13
ENDBRANCH   1  12
BRANCH   6  20
HETATM   20  C11 UNL     1      28.353  51.139  -3.367  1.00  0.00     0.121 C
HETATM   21  C12 UNL     1      29.182  52.212  -3.970  1.00  0.00     0.046 C
HETATM   22  C13 UNL     1      28.178  50.059  -4.425  1.00  0.00     0.046 C
HETATM   23  C14 UNL     1      29.242  50.482  -2.306  1.00  0.00     0.046 C
ENDBRANCH   6  20
TORSDOF 4
ENDMDL