MODEL 5
REMARK VINA RESULT: -5.341598764      2.878      4.424
REMARK  5 active torsions:
REMARK  status: ('A' for Active; 'I' for Inactive)
REMARK    1  A    between atoms: N1_2  and  C3_4
REMARK    2  A    between atoms: N2_11  and  C10_12
REMARK    3  A    between atoms: C10_12  and  O1_13
REMARK    4  A    between atoms: C10_12  and  C11_15
REMARK    5  A    between atoms: C11_15  and  O2_16
ROOT
HETATM    1  C10 UNL     1      27.609  52.488  -4.796  1.00  0.00     0.151 C
ENDROOT
BRANCH   1   2
HETATM    2  N2  UNL     1      28.795  52.012  -4.300  1.00  0.00    -0.332 N
HETATM    3  C3  UNL     1      29.487  50.808  -4.598  1.00  0.00     0.325 C
HETATM    4  C4  UNL     1      29.059  49.848  -3.502  1.00  0.00     0.062 C
HETATM    5  C5  UNL     1      29.586  50.414  -2.216  1.00  0.00    -0.005 A
HETATM    6  C6  UNL     1      28.521  50.379  -1.126  1.00  0.00     0.005 A
HETATM    7  C8  UNL     1      29.791  51.847  -2.079  1.00  0.00     0.008 A
HETATM    8  C7  UNL     1      28.680  51.884  -1.025  1.00  0.00     0.007 A
HETATM    9  C9  UNL     1      29.451  52.764  -3.208  1.00  0.00     0.132 C
BRANCH   3  10
HETATM   10  N1  UNL     1      29.474  50.299  -5.917  1.00  0.00     0.102 N
HETATM   11  C1  UNL     1      28.587  49.136  -6.047  1.00  0.00     0.312 C
HETATM   12  C2  UNL     1      30.814  49.714  -6.210  1.00  0.00     0.312 C
ENDBRANCH   3  10
ENDBRANCH   1   2
BRANCH   1  13
HETATM   13  O1  UNL     1      27.774  53.393  -5.754  1.00  0.00    -0.347 OA
ATOM     14  H1  UNL     1      28.687  53.563  -5.951  1.00  0.00     0.219 HD
ENDBRANCH   1  13
BRANCH   1  15
HETATM   15  C11 UNL     1      26.202  52.234  -4.511  1.00  0.00     0.126 C
HETATM   16  C12 UNL     1      26.013  51.069  -3.537  1.00  0.00     0.051 C
HETATM   17  C13 UNL     1      24.713  51.285  -2.823  1.00  0.00    -0.011 C
HETATM   18  C14 UNL     1      23.677  52.035  -3.626  1.00  0.00     0.005 C
HETATM   19  C18 UNL     1      25.053  52.203  -1.639  1.00  0.00     0.005 C
HETATM   20  C15 UNL     1      24.150  53.431  -4.016  1.00  0.00     0.008 C
HETATM   21  C16 UNL     1      25.648  53.442  -3.754  1.00  0.00     0.028 C
HETATM   22  C17 UNL     1      25.846  53.346  -2.267  1.00  0.00     0.008 C
BRANCH  15  23
HETATM   23  O2  UNL     1      25.370  51.951  -5.560  1.00  0.00    -0.381 OA
ATOM     24  H2  UNL     1      24.604  51.414  -5.394  1.00  0.00     0.211 HD
ENDBRANCH  15  23
ENDBRANCH   1  15
TORSDOF 5
ENDMDL