MODEL 5
REMARK VINA RESULT: -6.019096606      1.891      6.804
REMARK  5 active torsions:
REMARK  status: ('A' for Active; 'I' for Inactive)
REMARK    1  A    between atoms: C3_3  and  C4_4
REMARK    2  A    between atoms: C4_4  and  O1_5
REMARK    3  A    between atoms: N1_10  and  S1_11
REMARK    4  A    between atoms: S1_11  and  C7_13
REMARK    5  A    between atoms: C7_13  and  C8_14
ROOT
HETATM    1  C1  UNL     1      31.200  50.422  -6.375  1.00  0.00     0.112 C
HETATM    2  C2  UNL     1      30.331  50.781  -5.240  1.00  0.00    -0.108 C
HETATM    3  C3  UNL     1      29.625  51.086  -4.304  1.00  0.00    -0.068 C
ENDROOT
BRANCH   3   4
HETATM    4  C4  UNL     1      28.787  51.454  -3.162  1.00  0.00     0.131 C
HETATM    5  C5  UNL     1      29.171  50.560  -2.007  1.00  0.00     0.155 C
HETATM    6  C6  UNL     1      28.084  50.453  -1.002  1.00  0.00     0.236 C
HETATM    7  O2  UNL     1      28.357  49.806   0.050  1.00  0.00    -0.272 OA
HETATM    8  N1  UNL     1      26.801  51.031  -1.185  1.00  0.00    -0.258 N
HETATM    9  C13 UNL     1      26.370  51.543  -2.471  1.00  0.00     0.045 C
HETATM   10  C14 UNL     1      25.053  50.884  -2.905  1.00  0.00     0.039 C
HETATM   11  C15 UNL     1      26.063  53.039  -2.381  1.00  0.00     0.039 C
HETATM   12  C16 UNL     1      27.359  51.293  -3.558  1.00  0.00     0.083 C
BRANCH   4  13
HETATM   13  O1  UNL     1      29.087  52.795  -2.871  1.00  0.00    -0.377 OA
ATOM     14  H1  UNL     1      29.028  53.265  -3.694  1.00  0.00     0.211 HD
ENDBRANCH   4  13
BRANCH   8  15
HETATM   15  S1  UNL     1      25.756  51.114   0.171  1.00  0.00     0.120 S
HETATM   16  O3  UNL     1      26.559  51.295   1.420  1.00  0.00    -0.235 OA
BRANCH  15  17
HETATM   17  C7  UNL     1      25.131  49.690   0.571  1.00  0.00     0.141 C
BRANCH  17  18
HETATM   18  C8  UNL     1      23.731  49.376   0.551  1.00  0.00    -0.028 A
HETATM   19  C9  UNL     1      22.957  50.686   0.186  1.00  0.00     0.016 C
HETATM   20  C10 UNL     1      23.145  48.224  -0.179  1.00  0.00     0.015 A
HETATM   21  C11 UNL     1      22.941  48.464   1.335  1.00  0.00    -0.009 A
HETATM   22  C12 UNL     1      23.320  47.334   2.186  1.00  0.00     0.011 C
ENDBRANCH  17  18
ENDBRANCH  15  17
ENDBRANCH   8  15
ENDBRANCH   3   4
TORSDOF 5
ENDMDL