MODEL 4
REMARK VINA RESULT: -6.817720293      5.209      6.220
REMARK  2 active torsions:
REMARK  status: ('A' for Active; 'I' for Inactive)
REMARK       I    between atoms: C1_2  and  N1_3
REMARK    1  A    between atoms: C1_2  and  C7_13
REMARK    2  A    between atoms: N1_3  and  C2_5
ROOT
HETATM    1  O1  UNL     1      25.114  51.905   0.134  1.00  0.00    -0.273 OA
HETATM    2  C1  UNL     1      25.017  51.131  -0.862  1.00  0.00     0.226 C
HETATM    3  N1  UNL     1      24.694  49.764  -0.577  1.00  0.00    -0.356 N
ATOM      4  H1  UNL     1      24.608  49.107  -1.352  1.00  0.00     0.162 HD
ENDROOT
BRANCH   2   5
HETATM    5  C7  UNL     1      25.229  51.631  -2.223  1.00  0.00     0.042 C
HETATM    6  C8  UNL     1      25.647  53.091  -2.172  1.00  0.00     0.024 C
HETATM    7  C9  UNL     1      25.758  53.647  -3.561  1.00  0.00    -0.013 C
HETATM    8  C10 UNL     1      26.892  52.921  -4.264  1.00  0.00     0.009 C
HETATM    9  C14 UNL     1      24.449  53.467  -4.286  1.00  0.00     0.009 C
HETATM   10  C11 UNL     1      26.509  51.457  -4.310  1.00  0.00    -0.013 C
HETATM   11  C12 UNL     1      25.267  51.311  -5.146  1.00  0.00     0.009 C
HETATM   12  C16 UNL     1      26.359  50.890  -2.931  1.00  0.00     0.024 C
HETATM   13  C13 UNL     1      24.142  52.006  -4.429  1.00  0.00    -0.013 C
HETATM   14  C15 UNL     1      23.988  51.424  -3.034  1.00  0.00     0.024 C
ENDBRANCH   2   5
BRANCH   3  15
HETATM   15  C2  UNL     1      24.487  49.283   0.772  1.00  0.00     0.086 C
HETATM   16  C3  UNL     1      23.031  49.260   1.138  1.00  0.00     0.040 C
HETATM   17  C4  UNL     1      22.486  47.873   1.344  1.00  0.00     0.142 C
HETATM   18  S1  UNL     1      23.374  47.039   2.657  1.00  0.00     0.144 S
HETATM   19  O2  UNL     1      22.838  47.368   3.994  1.00  0.00    -0.228 OA
HETATM   20  O3  UNL     1      23.396  45.551   2.403  1.00  0.00    -0.228 OA
HETATM   21  C5  UNL     1      25.073  47.606   2.458  1.00  0.00     0.142 C
HETATM   22  C6  UNL     1      25.170  47.956   0.979  1.00  0.00     0.040 C
ENDBRANCH   3  15
TORSDOF 2
ENDMDL