MODEL 5
REMARK VINA RESULT: -6.666714792      2.854      5.077
REMARK  3 active torsions:
REMARK  status: ('A' for Active; 'I' for Inactive)
REMARK    1  A    between atoms: C4_4  and  C5_5
REMARK    2  A    between atoms: N2_18  and  C13_19
REMARK    3  A    between atoms: C13_19  and  C14_20
ROOT
HETATM    1  C1  UNL     1      22.240  48.284   0.812  1.00  0.00     0.017 C
HETATM    2  C2  UNL     1      22.833  49.263   0.396  1.00  0.00    -0.090 C
HETATM    3  C3  UNL     1      23.541  50.408  -0.117  1.00  0.00     0.060 C
HETATM    4  C4  UNL     1      24.261  50.354  -1.219  1.00  0.00    -0.009 C
ENDROOT
BRANCH   4   5
HETATM    5  C5  UNL     1      24.969  51.502  -1.732  1.00  0.00     0.065 C
HETATM    6  C6  UNL     1      24.298  51.925  -3.071  1.00  0.00     0.166 C
HETATM    7  O1  UNL     1      24.169  53.311  -3.142  1.00  0.00    -0.347 OA
HETATM    8  C10 UNL     1      25.284  51.603  -4.160  1.00  0.00     0.179 C
HETATM    9  C7  UNL     1      24.577  53.626  -4.442  1.00  0.00     0.158 C
HETATM   10  C8  UNL     1      23.547  53.228  -5.451  1.00  0.00     0.078 C
HETATM   11  C9  UNL     1      24.888  55.095  -4.580  1.00  0.00     0.078 C
HETATM   12  O2  UNL     1      25.723  52.842  -4.565  1.00  0.00    -0.346 OA
HETATM   13  C11 UNL     1      26.335  50.822  -3.467  1.00  0.00     0.141 C
HETATM   14  N1  UNL     1      27.690  51.125  -3.860  1.00  0.00    -0.334 N
HETATM   15  C17 UNL     1      26.333  51.512  -2.112  1.00  0.00     0.124 C
HETATM   16  C12 UNL     1      28.432  51.138  -2.652  1.00  0.00     0.319 C
ATOM     17  H1  UNL     1      28.038  51.293  -4.804  1.00  0.00     0.164 HD
HETATM   18  O3  UNL     1      29.693  51.287  -2.517  1.00  0.00    -0.247 OA
HETATM   19  N2  UNL     1      27.468  50.942  -1.542  1.00  0.00    -0.326 N
BRANCH  19  20
HETATM   20  C13 UNL     1      27.964  50.372  -0.339  1.00  0.00     0.132 C
BRANCH  20  21
HETATM   21  C14 UNL     1      27.072  50.348   0.853  1.00  0.00    -0.005 C
HETATM   22  C15 UNL     1      27.557  50.901   2.126  1.00  0.00     0.011 C
HETATM   23  C16 UNL     1      26.649  48.892   1.137  1.00  0.00     0.011 C
ENDBRANCH  20  21
ENDBRANCH  19  20
ENDBRANCH   4   5
TORSDOF 3
ENDMDL