MODEL 2
REMARK VINA RESULT: -6.554855533      7.947     10.656
REMARK  2 active torsions:
REMARK  status: ('A' for Active; 'I' for Inactive)
REMARK    1  A    between atoms: C1_2  and  C2_4
REMARK       I    between atoms: N2_10  and  C7_11
REMARK    2  A    between atoms: C7_11  and  C8_13
ROOT
HETATM    1  C2  UNL     1      33.404  53.143   2.673  1.00  0.00     0.070 C
HETATM    2  C3  UNL     1      33.715  54.602   2.873  1.00  0.00     0.027 C
HETATM    3  C4  UNL     1      32.471  55.398   2.765  1.00  0.00    -0.002 C
HETATM    4  C5  UNL     1      31.883  55.533   4.176  1.00  0.00     0.080 C
HETATM    5  S1  UNL     1      31.844  53.830   4.849  1.00  0.00    -0.142 SA
HETATM    6  C6  UNL     1      32.196  52.712   3.485  1.00  0.00     0.167 C
HETATM    7  N2  UNL     1      31.106  52.600   2.545  1.00  0.00    -0.332 N
HETATM    8  C7  UNL     1      29.969  51.769   2.694  1.00  0.00     0.225 C
HETATM    9  O2  UNL     1      29.841  51.029   3.735  1.00  0.00    -0.273 OA
HETATM   10  C14 UNL     1      31.444  53.485   1.464  1.00  0.00     0.090 C
HETATM   11  C15 UNL     1      31.454  54.939   1.812  1.00  0.00     0.031 C
HETATM   12  C16 UNL     1      32.899  53.037   1.225  1.00  0.00     0.047 C
ENDROOT
BRANCH   8  13
HETATM   13  C8  UNL     1      28.883  51.703   1.689  1.00  0.00     0.078 C
HETATM   14  C9  UNL     1      29.405  51.024   0.462  1.00  0.00     0.014 C
HETATM   15  C10 UNL     1      28.352  50.794  -0.591  1.00  0.00     0.001 C
HETATM   16  C11 UNL     1      26.975  50.631   0.020  1.00  0.00     0.000 C
HETATM   17  C12 UNL     1      27.202  49.956   1.377  1.00  0.00     0.001 C
HETATM   18  C13 UNL     1      27.711  51.008   2.309  1.00  0.00     0.014 C
ENDBRANCH   8  13
BRANCH   1  19
HETATM   19  C1  UNL     1      34.554  52.256   2.898  1.00  0.00     0.242 C
HETATM   20  N1  UNL     1      34.439  50.896   3.243  1.00  0.00    -0.061 NA
HETATM   21  O1  UNL     1      35.712  52.756   2.768  1.00  0.00    -0.276 OA
ENDBRANCH   1  19
TORSDOF 2
ENDMDL