MODEL 4
REMARK VINA RESULT: -6.313954365      1.970      4.175
REMARK  7 active torsions:
REMARK  status: ('A' for Active; 'I' for Inactive)
REMARK    1  A    between atoms: C4_4  and  C5_5
REMARK    2  A    between atoms: C5_5  and  O1_6
REMARK    3  A    between atoms: C6_9  and  C7_10
REMARK    4  A    between atoms: C7_10  and  O3_11
REMARK    5  A    between atoms: C8_13  and  O4_14
REMARK    6  A    between atoms: C9_16  and  O5_17
REMARK    7  A    between atoms: C10_19  and  O6_20
ROOT
HETATM    1  C5  UNL     1       2.125   3.452  55.049  1.00  0.00     0.211 C
HETATM    2  O2  UNL     1       0.994   3.242  54.295  1.00  0.00    -0.339 OA
HETATM    3  C6  UNL     1       0.757   1.985  53.829  1.00  0.00     0.180 C
HETATM    4  C8  UNL     1       1.937   1.231  53.347  1.00  0.00     0.180 C
HETATM    5  C9  UNL     1       3.184   2.076  53.234  1.00  0.00     0.183 C
HETATM    6  C10 UNL     1       3.371   2.861  54.509  1.00  0.00     0.215 C
ENDROOT
BRANCH   1   7
HETATM    7  C4  UNL     1       2.330   4.935  55.151  1.00  0.00     0.045 C
HETATM    8  C2  UNL     1       1.913   5.656  56.175  1.00  0.00    -0.086 C
HETATM    9  C1  UNL     1       2.202   7.142  56.117  1.00  0.00     0.043 C
HETATM   10  C3  UNL     1       1.201   5.195  57.368  1.00  0.00     0.043 C
ENDBRANCH   1   7
BRANCH   1  11
HETATM   11  O1  UNL     1       1.821   3.033  56.356  1.00  0.00    -0.360 OA
ATOM     12  H1  UNL     1       1.008   3.475  56.575  1.00  0.00     0.213 HD
ENDBRANCH   1  11
BRANCH   6  13
HETATM   13  O6  UNL     1       3.912   1.943  55.440  1.00  0.00    -0.387 OA
ATOM     14  H6  UNL     1       4.632   1.467  55.043  1.00  0.00     0.210 HD
ENDBRANCH   6  13
BRANCH   3  15
HETATM   15  C7  UNL     1       0.058   1.090  54.856  1.00  0.00     0.198 C
BRANCH  15  16
HETATM   16  O3  UNL     1      -0.881   1.792  55.590  1.00  0.00    -0.398 OA
ATOM     17  H3  UNL     1      -0.998   2.674  55.257  1.00  0.00     0.209 HD
ENDBRANCH  15  16
ENDBRANCH   3  15
BRANCH   5  18
HETATM   18  O5  UNL     1       3.101   2.886  52.104  1.00  0.00    -0.390 OA
ATOM     19  H5  UNL     1       3.975   3.098  51.797  1.00  0.00     0.210 HD
ENDBRANCH   5  18
BRANCH   4  20
HETATM   20  O4  UNL     1       1.655   0.726  52.078  1.00  0.00    -0.390 OA
ATOM     21  H4  UNL     1       2.019   1.315  51.428  1.00  0.00     0.210 HD
ENDBRANCH   4  20
TORSDOF 7
ENDMDL