MODEL 2
REMARK VINA RESULT: -6.185604254      2.979      3.928
REMARK  7 active torsions:
REMARK  status: ('A' for Active; 'I' for Inactive)
REMARK    1  A    between atoms: O1_1  and  N1_3
REMARK    2  A    between atoms: N1_3  and  C1_4
REMARK    3  A    between atoms: C4_7  and  O2_8
REMARK    4  A    between atoms: C5_10  and  O3_11
REMARK    5  A    between atoms: C6_13  and  O4_14
REMARK    6  A    between atoms: C7_16  and  N2_17
REMARK    7  A    between atoms: N2_17  and  C8_19
ROOT
HETATM    1  C1  UNL     1       0.842   2.040  56.060  1.00  0.00     0.131 C
HETATM    2  C2  UNL     1      -0.358   2.030  55.224  1.00  0.00     0.028 C
HETATM    3  C3  UNL     1      -0.224   2.345  53.795  1.00  0.00     0.036 C
HETATM    4  C4  UNL     1       0.987   1.848  53.103  1.00  0.00     0.149 C
HETATM    5  C5  UNL     1       2.166   2.817  53.246  1.00  0.00     0.177 C
HETATM    6  C6  UNL     1       2.818   2.479  54.571  1.00  0.00     0.173 C
HETATM    7  C7  UNL     1       1.919   3.009  55.661  1.00  0.00     0.134 C
ENDROOT
BRANCH   7   8
HETATM    8  N2  UNL     1       1.405   4.325  55.380  1.00  0.00    -0.381 N
ATOM      9  H2  UNL     1       0.668   4.435  54.684  1.00  0.00     0.160 HD
BRANCH   8  10
HETATM   10  C8  UNL     1       1.850   5.348  55.979  1.00  0.00     0.166 C
HETATM   11  S1  UNL     1       1.956   6.785  56.703  1.00  0.00    -0.075 SA
ENDBRANCH   8  10
ENDBRANCH   7   8
BRANCH   1  12
HETATM   12  N1  UNL     1       0.464   2.392  57.430  1.00  0.00    -0.097 NA
BRANCH  12  13
HETATM   13  O1  UNL     1      -0.622   3.156  57.490  1.00  0.00    -0.296 OA
ATOM     14  H1  UNL     1      -0.423   4.078  57.607  1.00  0.00     0.238 HD
ENDBRANCH  12  13
ENDBRANCH   1  12
BRANCH   6  15
HETATM   15  O4  UNL     1       4.047   3.160  54.646  1.00  0.00    -0.391 OA
ATOM     16  H4  UNL     1       3.883   4.035  54.977  1.00  0.00     0.210 HD
ENDBRANCH   6  15
BRANCH   5  17
HETATM   17  O3  UNL     1       3.094   2.566  52.249  1.00  0.00    -0.390 OA
ATOM     18  H3  UNL     1       2.929   1.708  51.873  1.00  0.00     0.210 HD
ENDBRANCH   5  17
BRANCH   4  19
HETATM   19  O2  UNL     1       1.391   0.583  53.460  1.00  0.00    -0.393 OA
ATOM     20  H2  UNL     1       1.682   0.488  54.359  1.00  0.00     0.210 HD
ENDBRANCH   4  19
TORSDOF 7
ENDMDL