MODEL 2
REMARK VINA RESULT: -5.631521329      2.478      3.581
REMARK  7 active torsions:
REMARK  status: ('A' for Active; 'I' for Inactive)
REMARK    1  A    between atoms: S1_2  and  C2_3
REMARK    2  A    between atoms: C2_3  and  C3_4
REMARK    3  A    between atoms: C4_6  and  O2_7
REMARK    4  A    between atoms: C5_9  and  O3_10
REMARK    5  A    between atoms: C6_12  and  O4_13
REMARK    6  A    between atoms: C7_15  and  C8_16
REMARK    7  A    between atoms: C8_16  and  O5_20
ROOT
HETATM    1  C3  UNL     1       1.447   1.817  54.385  1.00  0.00     0.148 C
HETATM    2  O1  UNL     1       1.747   0.857  53.481  1.00  0.00    -0.352 OA
HETATM    3  C4  UNL     1       2.794   1.038  52.654  1.00  0.00     0.288 C
HETATM    4  C5  UNL     1       3.384   2.394  52.580  1.00  0.00     0.202 C
HETATM    5  C6  UNL     1       3.733   2.836  53.982  1.00  0.00     0.166 C
HETATM    6  C7  UNL     1       2.596   2.615  54.929  1.00  0.00     0.121 C
ENDROOT
BRANCH   6   7
HETATM    7  C8  UNL     1       2.173   3.916  55.487  1.00  0.00     0.118 C
HETATM    8  N1  UNL     1       2.582   5.000  54.968  1.00  0.00    -0.383 N
ATOM      9  H12 UNL     1       3.204   4.955  54.162  1.00  0.00     0.157 HD
ATOM     10  H11 UNL     1       2.291   5.898  55.354  1.00  0.00     0.157 HD
BRANCH   7  11
HETATM   11  O5  UNL     1       1.334   3.976  56.575  1.00  0.00    -0.349 OA
ATOM     12  H5  UNL     1       1.358   4.719  57.167  1.00  0.00     0.219 HD
ENDBRANCH   7  11
ENDBRANCH   6   7
BRANCH   1  13
HETATM   13  C2  UNL     1       0.304   2.650  53.855  1.00  0.00     0.106 C
BRANCH  13  14
HETATM   14  S1  UNL     1      -1.219   1.676  54.028  1.00  0.00    -0.171 SA
HETATM   15  C1  UNL     1      -1.369   0.843  55.604  1.00  0.00     0.089 C
ENDBRANCH  13  14
ENDBRANCH   1  13
BRANCH   5  16
HETATM   16  O4  UNL     1       4.897   2.139  54.324  1.00  0.00    -0.392 OA
ATOM     17  H4  UNL     1       4.730   1.755  55.177  1.00  0.00     0.210 HD
ENDBRANCH   5  16
BRANCH   4  18
HETATM   18  O3  UNL     1       4.611   2.308  51.878  1.00  0.00    -0.388 OA
ATOM     19  H3  UNL     1       4.572   2.899  51.136  1.00  0.00     0.210 HD
ENDBRANCH   4  18
BRANCH   3  20
HETATM   20  O2  UNL     1       3.820   0.155  53.065  1.00  0.00    -0.369 OA
ATOM     21  H2  UNL     1       4.302  -0.106  52.289  1.00  0.00     0.212 HD
ENDBRANCH   3  20
TORSDOF 7
ENDMDL