MODEL 5
REMARK VINA RESULT: -5.978842517      2.206      4.285
REMARK  8 active torsions:
REMARK  status: ('A' for Active; 'I' for Inactive)
REMARK    1  A    between atoms: C4_4  and  O1_5
REMARK    2  A    between atoms: C5_7  and  O2_8
REMARK    3  A    between atoms: C6_10  and  C7_11
REMARK    4  A    between atoms: C7_11  and  O3_12
REMARK    5  A    between atoms: N1_14  and  C8_15
REMARK    6  A    between atoms: C8_15  and  C9_16
REMARK    7  A    between atoms: N2_17  and  O4_19
REMARK    8  A    between atoms: N3_21  and  O5_23
ROOT
HETATM    1  C1  UNL     1       3.615   2.507  55.062  1.00  0.00     0.041 C
HETATM    2  C2  UNL     1       2.581   3.143  54.199  1.00  0.00     0.056 C
HETATM    3  C3  UNL     1       2.534   2.457  52.874  1.00  0.00     0.041 C
HETATM    4  C4  UNL     1       2.884   4.625  53.968  1.00  0.00     0.176 C
HETATM    5  C5  UNL     1       2.592   5.129  55.390  1.00  0.00     0.174 C
HETATM    6  C6  UNL     1       1.280   4.437  55.650  1.00  0.00     0.141 C
HETATM    7  N1  UNL     1       1.324   3.207  54.874  1.00  0.00    -0.344 N
ENDROOT
BRANCH   7   8
HETATM    8  C8  UNL     1       0.288   2.245  54.770  1.00  0.00     0.141 C
HETATM    9  N3  UNL     1      -0.716   2.510  53.950  1.00  0.00    -0.252 N
ATOM     10  H3  UNL     1      -0.699   3.389  53.433  1.00  0.00     0.196 HD
BRANCH   8  11
HETATM   11  C9  UNL     1       0.205   0.989  55.470  1.00  0.00     0.163 C
HETATM   12  N2  UNL     1      -0.365   0.872  56.608  1.00  0.00    -0.277 N
ATOM     13  H2  UNL     1      -0.781   1.693  57.047  1.00  0.00     0.193 HD
BRANCH  12  14
HETATM   14  O4  UNL     1      -0.427  -0.340  57.248  1.00  0.00    -0.290 OA
ATOM     15  H4  UNL     1      -0.965  -0.459  58.021  1.00  0.00     0.244 HD
ENDBRANCH  12  14
ENDBRANCH   8  11
BRANCH   9  16
HETATM   16  O5  UNL     1      -1.767   1.672  53.763  1.00  0.00    -0.288 OA
ATOM     17  H5  UNL     1      -2.186   1.194  54.469  1.00  0.00     0.244 HD
ENDBRANCH   9  16
ENDBRANCH   7   8
BRANCH   6  18
HETATM   18  C7  UNL     1       1.097   4.254  57.111  1.00  0.00     0.192 C
BRANCH  18  19
HETATM   19  O3  UNL     1       0.953   5.430  57.832  1.00  0.00    -0.399 OA
ATOM     20  H3  UNL     1       1.754   5.759  58.222  1.00  0.00     0.209 HD
ENDBRANCH  18  19
ENDBRANCH   6  18
BRANCH   4  21
HETATM   21  O1  UNL     1       4.179   4.853  53.583  1.00  0.00    -0.390 OA
ATOM     22  H1  UNL     1       4.723   5.183  54.289  1.00  0.00     0.210 HD
ENDBRANCH   4  21
BRANCH   5  23
HETATM   23  O2  UNL     1       2.475   6.505  55.334  1.00  0.00    -0.391 OA
ATOM     24  H2  UNL     1       1.554   6.715  55.235  1.00  0.00     0.210 HD
ENDBRANCH   5  23
TORSDOF 8
ENDMDL