MODEL 4
REMARK VINA RESULT: -7.239818288      1.652      2.241
REMARK  6 active torsions:
REMARK  status: ('A' for Active; 'I' for Inactive)
REMARK    1  A    between atoms: N1_1  and  N2_4
REMARK       I    between atoms: N2_4  and  C1_6
REMARK       I    between atoms: C1_6  and  N4_11
REMARK    2  A    between atoms: N3_7  and  O1_9
REMARK    3  A    between atoms: N4_11  and  N5_13
REMARK    4  A    between atoms: C2_15  and  O2_16
REMARK    5  A    between atoms: C2_15  and  N6_18
REMARK       I    between atoms: N6_18  and  C3_20
REMARK    6  A    between atoms: C3_20  and  C4_22
ROOT
HETATM    1  N5  UNL     1       1.503   6.706  57.390  1.00  0.00    -0.251 N
ATOM      2  H5  UNL     1       0.720   6.400  57.967  1.00  0.00     0.191 HD
HETATM    3  C2  UNL     1       1.945   5.926  56.469  1.00  0.00     0.239 C
ENDROOT
BRANCH   1   4
HETATM    4  N4  UNL     1       2.063   7.945  57.617  1.00  0.00    -0.126 N
HETATM    5  C1  UNL     1       1.305   9.136  57.469  1.00  0.00     0.730 C
HETATM    6  N2  UNL     1       1.919  10.399  57.271  1.00  0.00    -0.136 N
HETATM    7  N3  UNL     1       0.022   9.058  57.518  1.00  0.00    -0.096 N
ATOM      8  H2  UNL     1       2.748  10.434  56.679  1.00  0.00     0.205 HD
ATOM      9  H3  UNL     1      -0.514   9.920  57.413  1.00  0.00     0.213 HD
ATOM     10  H4  UNL     1       3.042   8.007  57.897  1.00  0.00     0.206 HD
BRANCH   6  11
HETATM   11  N1  UNL     1       1.474  11.588  57.823  1.00  0.00    -0.331 N
ATOM     12  H12 UNL     1       2.137  12.364  57.828  1.00  0.00     0.177 HD
ATOM     13  H11 UNL     1       0.544  11.736  58.216  1.00  0.00     0.177 HD
ENDBRANCH   6  11
BRANCH   7  14
HETATM   14  O1  UNL     1      -0.663   7.901  57.702  1.00  0.00    -0.276 OA
ATOM     15  H1  UNL     1      -0.537   7.321  58.444  1.00  0.00     0.245 HD
ENDBRANCH   7  14
ENDBRANCH   1   4
BRANCH   3  16
HETATM   16  O2  UNL     1       3.022   6.389  55.700  1.00  0.00    -0.331 OA
ATOM     17  H2  UNL     1       3.890   6.309  56.076  1.00  0.00     0.221 HD
ENDBRANCH   3  16
BRANCH   3  18
HETATM   18  N6  UNL     1       1.368   4.661  56.244  1.00  0.00    -0.286 N
HETATM   19  C3  UNL     1       1.541   3.948  55.028  1.00  0.00     0.282 C
HETATM   20  O3  UNL     1       2.235   4.478  54.129  1.00  0.00    -0.265 OA
ATOM     21  H6  UNL     1       0.805   4.241  56.983  1.00  0.00     0.172 HD
BRANCH  19  22
HETATM   22  C4  UNL     1       0.940   2.639  54.802  1.00  0.00     0.142 A
HETATM   23  C5  UNL     1       0.865   1.978  53.596  1.00  0.00     0.045 A
HETATM   24  C6  UNL     1       0.223   0.779  53.831  1.00  0.00     0.027 A
HETATM   25  C7  UNL     1      -0.064   0.762  55.173  1.00  0.00     0.143 A
HETATM   26  O4  UNL     1       0.384   1.893  55.708  1.00  0.00    -0.317 OA
ENDBRANCH  19  22
ENDBRANCH   3  18
TORSDOF 6
ENDMDL