MODEL 4
REMARK VINA RESULT: -6.450287635      2.427      3.816
REMARK  7 active torsions:
REMARK  status: ('A' for Active; 'I' for Inactive)
REMARK    1  A    between atoms: C3_3  and  O1_4
REMARK    2  A    between atoms: C4_6  and  O2_7
REMARK    3  A    between atoms: C5_9  and  O3_10
REMARK    4  A    between atoms: O3_10  and  C6_11
REMARK    5  A    between atoms: C8_14  and  O4_15
REMARK    6  A    between atoms: C9_17  and  O5_18
REMARK    7  A    between atoms: C9_17  and  O6_20
ROOT
HETATM    1  C6  UNL     1       0.088   1.162  55.383  1.00  0.00     0.291 C
HETATM    2  C7  UNL     1      -1.160   0.675  55.938  1.00  0.00     0.085 C
HETATM    3  N1  UNL     1      -2.161   0.263  56.397  1.00  0.00    -0.195 NA
ENDROOT
BRANCH   1   4
HETATM    4  O3  UNL     1      -0.070   2.426  54.868  1.00  0.00    -0.367 OA
BRANCH   4   5
HETATM    5  C5  UNL     1       0.957   2.799  54.001  1.00  0.00     0.188 C
HETATM    6  C4  UNL     1       1.840   3.836  54.607  1.00  0.00     0.179 C
HETATM    7  C3  UNL     1       2.980   4.105  53.633  1.00  0.00     0.158 C
HETATM    8  C2  UNL     1       3.823   2.848  53.623  1.00  0.00     0.078 C
HETATM    9  C1  UNL     1       5.079   3.036  52.790  1.00  0.00     0.018 C
HETATM   10  C9  UNL     1       3.022   1.754  53.010  1.00  0.00     0.194 C
HETATM   11  C8  UNL     1       1.670   1.554  53.574  1.00  0.00     0.212 C
BRANCH   6  12
HETATM   12  O2  UNL     1       2.314   3.489  55.863  1.00  0.00    -0.390 OA
ATOM     13  H2  UNL     1       2.426   2.550  55.948  1.00  0.00     0.210 HD
ENDBRANCH   6  12
BRANCH   7  14
HETATM   14  O1  UNL     1       3.705   5.226  53.977  1.00  0.00    -0.392 OA
ATOM     15  H1  UNL     1       4.307   5.065  54.694  1.00  0.00     0.210 HD
ENDBRANCH   7  14
BRANCH  10  16
HETATM   16  O5  UNL     1       2.981   1.935  51.609  1.00  0.00    -0.363 OA
ATOM     17  H5  UNL     1       3.360   1.176  51.183  1.00  0.00     0.213 HD
ENDBRANCH  10  16
BRANCH  10  18
HETATM   18  O6  UNL     1       3.749   0.555  53.199  1.00  0.00    -0.363 OA
ATOM     19  H6  UNL     1       3.974   0.510  54.121  1.00  0.00     0.213 HD
ENDBRANCH  10  18
BRANCH  11  20
HETATM   20  O4  UNL     1       0.876   0.960  52.565  1.00  0.00    -0.387 OA
ATOM     21  H4  UNL     1       0.925   1.534  51.810  1.00  0.00     0.210 HD
ENDBRANCH  11  20
ENDBRANCH   4   5
ENDBRANCH   1   4
TORSDOF 7
ENDMDL