MODEL 3
REMARK VINA RESULT: -5.691795967      3.051      3.976
REMARK  8 active torsions:
REMARK  status: ('A' for Active; 'I' for Inactive)
REMARK    1  A    between atoms: N1_1  and  N2_4
REMARK    2  A    between atoms: N2_4  and  N3_5
REMARK    3  A    between atoms: N3_5  and  C1_7
REMARK    4  A    between atoms: C1_7  and  C2_8
REMARK    5  A    between atoms: C3_9  and  O1_10
REMARK    6  A    between atoms: C4_12  and  O2_13
REMARK    7  A    between atoms: C6_17  and  O3_18
REMARK    8  A    between atoms: C7_20  and  O4_21
ROOT
HETATM    1  C2  UNL     1       4.020   3.006  52.968  1.00  0.00     0.068 C
HETATM    2  C3  UNL     1       3.234   3.717  54.010  1.00  0.00     0.156 C
HETATM    3  C4  UNL     1       2.632   2.814  55.053  1.00  0.00     0.164 C
HETATM    4  C5  UNL     1       1.828   1.736  54.386  1.00  0.00     0.121 C
HETATM    5  S1  UNL     1       0.314   2.364  53.623  1.00  0.00    -0.087 SA
HETATM    6  C6  UNL     1       2.630   0.925  53.408  1.00  0.00     0.164 C
HETATM    7  C7  UNL     1       3.588   1.664  52.576  1.00  0.00     0.156 C
ENDROOT
BRANCH   1   8
HETATM    8  C1  UNL     1       5.485   3.011  53.442  1.00  0.00     0.165 C
BRANCH   8   9
HETATM    9  N3  UNL     1       5.692   2.049  54.479  1.00  0.00    -0.252 N
ATOM     10  H3  UNL     1       4.989   1.341  54.689  1.00  0.00     0.196 HD
BRANCH   9  11
HETATM   11  N2  UNL     1       6.758   2.105  55.115  1.00  0.00    -0.249 NA
BRANCH  11  12
HETATM   12  N1  UNL     1       7.929   2.203  55.536  1.00  0.00    -0.261 N
ATOM     13  H12 UNL     1       8.221   2.569  54.630  1.00  0.00     0.193 HD
ATOM     14  H11 UNL     1       8.811   2.210  56.049  1.00  0.00     0.193 HD
ENDBRANCH  11  12
ENDBRANCH   9  11
ENDBRANCH   8   9
ENDBRANCH   1   8
BRANCH   2  15
HETATM   15  O1  UNL     1       2.250   4.523  53.403  1.00  0.00    -0.392 OA
ATOM     16  H1  UNL     1       1.544   4.689  54.017  1.00  0.00     0.210 HD
ENDBRANCH   2  15
BRANCH   7  17
HETATM   17  O4  UNL     1       3.077   1.703  51.252  1.00  0.00    -0.392 OA
ATOM     18  H4  UNL     1       2.571   2.498  51.134  1.00  0.00     0.210 HD
ENDBRANCH   7  17
BRANCH   3  19
HETATM   19  O2  UNL     1       1.849   3.534  55.914  1.00  0.00    -0.392 OA
ATOM     20  H2  UNL     1       2.387   4.067  56.487  1.00  0.00     0.210 HD
ENDBRANCH   3  19
BRANCH   6  21
HETATM   21  O3  UNL     1       1.687   0.223  52.632  1.00  0.00    -0.392 OA
ATOM     22  H3  UNL     1       1.150  -0.257  53.251  1.00  0.00     0.210 HD
ENDBRANCH   6  21
TORSDOF 8
ENDMDL