MODEL 2
REMARK VINA RESULT: -6.939859804      0.886      1.200
REMARK  6 active torsions:
REMARK  status: ('A' for Active; 'I' for Inactive)
REMARK    1  A    between atoms: C1_4  and  N2_5
REMARK    2  A    between atoms: C1_4  and  C2_9
REMARK    3  A    between atoms: N2_5  and  O1_7
REMARK    4  A    between atoms: C3_10  and  C4_11
REMARK    5  A    between atoms: C4_11  and  O2_12
REMARK    6  A    between atoms: C5_15  and  O4_16
ROOT
HETATM    1  C2  UNL     1       2.097   2.869  53.737  1.00  0.00     0.103 C
HETATM    2  C3  UNL     1       2.675   3.643  54.892  1.00  0.00     0.161 C
HETATM    3  O3  UNL     1       4.027   3.700  54.645  1.00  0.00    -0.344 OA
HETATM    4  C5  UNL     1       4.422   2.527  54.050  1.00  0.00     0.196 C
HETATM    5  C6  UNL     1       5.254   2.875  52.837  1.00  0.00     0.246 C
HETATM    6  O5  UNL     1       4.473   2.528  51.701  1.00  0.00    -0.334 OA
HETATM    7  C7  UNL     1       3.469   1.649  52.055  1.00  0.00     0.121 C
HETATM    8  N3  UNL     1       2.857   0.807  51.296  1.00  0.00    -0.383 N
ATOM      9  H31 UNL     1       2.115   0.157  51.557  1.00  0.00     0.158 HD
ATOM     10  H32 UNL     1       3.037   0.670  50.302  1.00  0.00     0.158 HD
HETATM   11  C8  UNL     1       3.211   1.846  53.487  1.00  0.00     0.138 C
ENDROOT
BRANCH   1  12
HETATM   12  C1  UNL     1       0.834   2.209  54.137  1.00  0.00     0.102 C
HETATM   13  N1  UNL     1       0.746   1.752  55.360  1.00  0.00    -0.387 N
ATOM     14  H12 UNL     1      -0.124   1.297  55.636  1.00  0.00     0.157 HD
ATOM     15  H11 UNL     1       1.545   1.870  55.983  1.00  0.00     0.157 HD
BRANCH  12  16
HETATM   16  N2  UNL     1      -0.270   2.046  53.276  1.00  0.00    -0.257 N
ATOM     17  H2  UNL     1      -0.108   1.708  52.327  1.00  0.00     0.195 HD
BRANCH  16  18
HETATM   18  O1  UNL     1      -1.528   2.321  53.658  1.00  0.00    -0.288 OA
ATOM     19  H1  UNL     1      -2.077   2.944  53.197  1.00  0.00     0.244 HD
ENDBRANCH  16  18
ENDBRANCH  12  16
ENDBRANCH   1  12
BRANCH   2  20
HETATM   20  C4  UNL     1       2.113   5.043  54.988  1.00  0.00     0.197 C
BRANCH  20  21
HETATM   21  O2  UNL     1       3.070   5.939  55.404  1.00  0.00    -0.398 OA
ATOM     22  H2  UNL     1       3.289   5.812  56.320  1.00  0.00     0.209 HD
ENDBRANCH  20  21
ENDBRANCH   2  20
BRANCH   4  23
HETATM   23  O4  UNL     1       5.102   1.733  54.952  1.00  0.00    -0.363 OA
ATOM     24  H4  UNL     1       5.808   1.268  54.519  1.00  0.00     0.213 HD
ENDBRANCH   4  23
TORSDOF 6
ENDMDL