MODEL 4
REMARK VINA RESULT: -6.680664794      4.538      6.518
REMARK  8 active torsions:
REMARK  status: ('A' for Active; 'I' for Inactive)
REMARK    1  A    between atoms: O1_1  and  N1_3
REMARK    2  A    between atoms: C1_5  and  O2_6
REMARK    3  A    between atoms: C1_5  and  N2_8
REMARK    4  A    between atoms: N2_8  and  N3_10
REMARK    5  A    between atoms: C2_12  and  C3_13
REMARK    6  A    between atoms: C5_15  and  O3_16
REMARK    7  A    between atoms: C6_18  and  O4_19
REMARK    8  A    between atoms: C7_21  and  O5_22
ROOT
HETATM    1  C3  UNL     1       1.653   4.124  55.746  1.00  0.00     0.018 C
HETATM    2  C4  UNL     1       2.464   4.269  54.741  1.00  0.00     0.027 C
HETATM    3  C5  UNL     1       2.721   3.398  53.598  1.00  0.00     0.174 C
HETATM    4  C6  UNL     1       2.306   1.978  53.723  1.00  0.00     0.189 C
HETATM    5  C7  UNL     1       0.872   1.824  54.178  1.00  0.00     0.216 C
HETATM    6  S1  UNL     1       0.651   2.611  55.789  1.00  0.00    -0.094 SA
ENDROOT
BRANCH   1   7
HETATM    7  C2  UNL     1       1.471   5.060  56.842  1.00  0.00     0.125 C
HETATM    8  N3  UNL     1       1.762   6.271  56.920  1.00  0.00    -0.307 N
ATOM      9  H3  UNL     1       1.507   6.654  57.830  1.00  0.00     0.186 HD
BRANCH   8  10
HETATM   10  N2  UNL     1       2.319   7.211  56.136  1.00  0.00    -0.264 N
ATOM     11  H2  UNL     1       3.099   6.956  55.530  1.00  0.00     0.190 HD
BRANCH  10  12
HETATM   12  C1  UNL     1       1.851   8.538  56.131  1.00  0.00     0.256 C
HETATM   13  N1  UNL     1       1.733   9.181  57.224  1.00  0.00    -0.232 N
ATOM     14  H1  UNL     1       1.392  10.142  57.206  1.00  0.00     0.198 HD
BRANCH  13  15
HETATM   15  O1  UNL     1       2.053   8.612  58.407  1.00  0.00    -0.287 OA
ATOM     16  H1  UNL     1       2.307   7.698  58.458  1.00  0.00     0.244 HD
ENDBRANCH  13  15
BRANCH  12  17
HETATM   17  O2  UNL     1       1.518   9.143  54.943  1.00  0.00    -0.330 OA
ATOM     18  H2  UNL     1       2.204   9.458  54.365  1.00  0.00     0.221 HD
ENDBRANCH  12  17
ENDBRANCH  10  12
ENDBRANCH   8  10
ENDBRANCH   1   7
BRANCH   3  19
HETATM   19  O3  UNL     1       2.199   3.943  52.407  1.00  0.00    -0.389 OA
ATOM     20  H3  UNL     1       2.598   3.548  51.641  1.00  0.00     0.210 HD
ENDBRANCH   3  19
BRANCH   5  21
HETATM   21  O5  UNL     1      -0.036   2.276  53.238  1.00  0.00    -0.382 OA
ATOM     22  H5  UNL     1      -0.833   1.759  53.222  1.00  0.00     0.211 HD
ENDBRANCH   5  21
BRANCH   4  23
HETATM   23  O4  UNL     1       2.400   1.381  52.467  1.00  0.00    -0.389 OA
ATOM     24  H4  UNL     1       3.299   1.104  52.334  1.00  0.00     0.210 HD
ENDBRANCH   4  23
TORSDOF 8
ENDMDL