MODEL 1
REMARK VINA RESULT: -7.681208951      0.000      0.000
REMARK  9 active torsions:
REMARK  status: ('A' for Active; 'I' for Inactive)
REMARK    1  A    between atoms: C2_2  and  C4_4
REMARK    2  A    between atoms: C4_4  and  C5_5
REMARK    3  A    between atoms: C4_4  and  C18_23
REMARK    4  A    between atoms: C5_5  and  N1_6
REMARK    5  A    between atoms: N1_6  and  C6_8
REMARK    6  A    between atoms: C6_8  and  O1_9
REMARK    7  A    between atoms: C6_8  and  C7_11
REMARK    8  A    between atoms: C7_11  and  C8_13
REMARK       I    between atoms: C18_23  and  N2_25
REMARK    9  A    between atoms: C21_28  and  C22_29
ROOT
HETATM    1  N1  UNL     1      80.913  34.647  -1.799  1.00  0.00    -0.370 N
ATOM      2  H1  UNL     1      81.195  34.246  -2.694  1.00  0.00     0.161 HD
ENDROOT
BRANCH   1   3
HETATM    3  C5  UNL     1      81.165  35.985  -1.468  1.00  0.00     0.073 C
BRANCH   3   4
HETATM    4  C4  UNL     1      80.342  36.535  -0.327  1.00  0.00     0.119 C
BRANCH   4   5
HETATM    5  C2  UNL     1      80.932  37.704   0.363  1.00  0.00    -0.005 C
HETATM    6  C1  UNL     1      81.843  38.557  -0.484  1.00  0.00     0.011 C
HETATM    7  C3  UNL     1      81.714  37.317   1.608  1.00  0.00     0.011 C
ENDBRANCH   4   5
BRANCH   4   8
HETATM    8  C18 UNL     1      78.902  36.632  -0.644  1.00  0.00     0.229 C
HETATM    9  O3  UNL     1      78.591  37.040  -1.807  1.00  0.00    -0.273 OA
HETATM   10  N2  UNL     1      77.833  36.318   0.214  1.00  0.00    -0.351 N
HETATM   11  C19 UNL     1      78.105  35.833   1.562  1.00  0.00     0.126 C
HETATM   12  C24 UNL     1      76.469  36.472  -0.260  1.00  0.00     0.126 C
HETATM   13  C20 UNL     1      76.962  34.910   2.018  1.00  0.00     0.033 C
HETATM   14  C21 UNL     1      76.435  34.210   0.811  1.00  0.00     0.078 C
HETATM   15  C23 UNL     1      75.667  35.207  -0.029  1.00  0.00     0.033 C
BRANCH  14  16
HETATM   16  C22 UNL     1      75.500  33.146   1.207  1.00  0.00     0.235 C
HETATM   17  N3  UNL     1      74.214  32.984   0.587  1.00  0.00    -0.062 NA
HETATM   18  O4  UNL     1      75.827  32.344   2.119  1.00  0.00    -0.277 OA
ENDBRANCH  14  16
ENDBRANCH   4   8
ENDBRANCH   3   4
ENDBRANCH   1   3
BRANCH   1  19
HETATM   19  C6  UNL     1      80.234  33.876  -0.797  1.00  0.00     0.289 C
BRANCH  19  20
HETATM   20  O1  UNL     1      79.065  33.361  -1.417  1.00  0.00    -0.370 OA
ATOM     21  H1  UNL     1      78.400  33.322  -0.739  1.00  0.00     0.212 HD
ENDBRANCH  19  20
BRANCH  19  22
HETATM   22  C7  UNL     1      81.010  32.822  -0.143  1.00  0.00     0.183 C
HETATM   23  O2  UNL     1      81.977  32.312  -0.705  1.00  0.00    -0.292 OA
BRANCH  22  24
HETATM   24  C8  UNL     1      80.697  32.299   1.217  1.00  0.00     0.026 C
HETATM   25  C9  UNL     1      81.084  33.375   2.253  1.00  0.00     0.022 C
HETATM   26  C10 UNL     1      80.805  32.897   3.642  1.00  0.00    -0.013 C
HETATM   27  C11 UNL     1      81.645  31.679   3.965  1.00  0.00     0.009 C
HETATM   28  C15 UNL     1      79.357  32.495   3.837  1.00  0.00     0.009 C
HETATM   29  C12 UNL     1      81.345  30.616   2.941  1.00  0.00    -0.013 C
HETATM   30  C13 UNL     1      79.902  30.212   3.001  1.00  0.00     0.009 C
HETATM   31  C17 UNL     1      81.600  31.135   1.525  1.00  0.00     0.022 C
HETATM   32  C14 UNL     1      79.057  31.434   2.813  1.00  0.00    -0.013 C
HETATM   33  C16 UNL     1      79.245  32.040   1.445  1.00  0.00     0.022 C
ENDBRANCH  22  24
ENDBRANCH  19  22
ENDBRANCH   1  19
TORSDOF 9
ENDMDL