MODEL 5
REMARK VINA RESULT: -7.453318930      2.373      4.206
REMARK  8 active torsions:
REMARK  status: ('A' for Active; 'I' for Inactive)
REMARK       I    between atoms: C2_2  and  N1_4
REMARK    1  A    between atoms: N1_4  and  C3_6
REMARK    2  A    between atoms: C3_6  and  C4_7
REMARK    3  A    between atoms: C3_6  and  C16_25
REMARK       I    between atoms: C4_7  and  N2_9
REMARK    4  A    between atoms: N2_9  and  C5_10
REMARK    5  A    between atoms: C5_10  and  C6_11
REMARK    6  A    between atoms: C5_10  and  C10_15
REMARK    7  A    between atoms: C6_11  and  C7_12
REMARK       I    between atoms: C10_15  and  N3_17
REMARK    8  A    between atoms: C14_21  and  C15_22
ROOT
HETATM    1  C4  UNL     1      76.974  36.339  -0.700  1.00  0.00     0.310 C
HETATM    2  O2  UNL     1      75.699  36.516  -0.686  1.00  0.00    -0.255 OA
HETATM    3  N2  UNL     1      77.584  35.317  -0.050  1.00  0.00    -0.398 NA
ENDROOT
BRANCH   3   4
HETATM    4  C5  UNL     1      78.206  34.270   0.617  1.00  0.00     0.259 C
BRANCH   4   5
HETATM    5  C6  UNL     1      77.306  32.992   0.598  1.00  0.00     0.053 C
BRANCH   5   6
HETATM    6  C7  UNL     1      76.329  32.955   1.720  1.00  0.00    -0.019 C
HETATM    7  C8  UNL     1      76.494  31.757   2.611  1.00  0.00     0.009 C
HETATM    8  C9  UNL     1      74.930  32.931   1.149  1.00  0.00     0.009 C
ENDBRANCH   5   6
ENDBRANCH   4   5
BRANCH   4   9
HETATM    9  C10 UNL     1      79.418  33.796  -0.107  1.00  0.00     0.256 C
HETATM   10  O3  UNL     1      79.722  34.235  -1.267  1.00  0.00    -0.270 OA
HETATM   11  N3  UNL     1      80.317  32.829   0.415  1.00  0.00    -0.335 N
HETATM   12  C11 UNL     1      81.455  32.192  -0.223  1.00  0.00     0.127 C
HETATM   13  C14 UNL     1      80.241  32.349   1.796  1.00  0.00     0.188 C
HETATM   14  C12 UNL     1      82.112  31.299   0.795  1.00  0.00     0.022 C
HETATM   15  C13 UNL     1      80.986  31.026   1.778  1.00  0.00     0.038 C
BRANCH  13  16
HETATM   16  C15 UNL     1      80.932  33.329   2.676  1.00  0.00     0.196 C
HETATM   17  O4  UNL     1      81.005  33.111   3.905  1.00  0.00    -0.646 OA
HETATM   18  O5  UNL     1      81.490  34.464   2.147  1.00  0.00    -0.646 OA
ENDBRANCH  13  16
ENDBRANCH   4   9
ENDBRANCH   3   4
BRANCH   1  19
HETATM   19  C3  UNL     1      77.733  37.365  -1.511  1.00  0.00     0.195 C
BRANCH  19  20
HETATM   20  N1  UNL     1      78.823  36.816  -2.244  1.00  0.00    -0.347 N
HETATM   21  C2  UNL     1      80.086  37.515  -2.127  1.00  0.00     0.214 C
HETATM   22  C1  UNL     1      81.260  36.983  -2.864  1.00  0.00     0.117 C
HETATM   23  O1  UNL     1      80.211  38.548  -1.424  1.00  0.00    -0.274 OA
ATOM     24  H1  UNL     1      78.720  35.980  -2.818  1.00  0.00     0.163 HD
ENDBRANCH  19  20
BRANCH  19  25
HETATM   25  C16 UNL     1      76.806  38.036  -2.552  1.00  0.00     0.022 C
HETATM   26  C17 UNL     1      76.721  37.207  -3.760  1.00  0.00     0.007 C
HETATM   27  C18 UNL     1      76.567  37.938  -5.049  1.00  0.00     0.000 C
HETATM   28  C19 UNL     1      75.921  39.296  -4.846  1.00  0.00     0.000 C
HETATM   29  C20 UNL     1      76.864  40.069  -3.992  1.00  0.00     0.005 C
HETATM   30  C21 UNL     1      77.021  39.492  -2.619  1.00  0.00    -0.012 C
HETATM   31  C22 UNL     1      76.004  40.251  -1.738  1.00  0.00     0.010 C
ENDBRANCH  19  25
ENDBRANCH   1  19
TORSDOF 8
ENDMDL