MODEL 2
REMARK VINA RESULT: -7.231690436      2.748      4.879
REMARK  10 active torsions:
REMARK  status: ('A' for Active; 'I' for Inactive)
REMARK    1  A    between atoms: C2_2  and  N1_4
REMARK       I    between atoms: N1_4  and  C4_6
REMARK    2  A    between atoms: C4_6  and  C5_8
REMARK    3  A    between atoms: N2_12  and  C9_13
REMARK    4  A    between atoms: C9_13  and  C10_14
REMARK    5  A    between atoms: C10_14  and  N3_15
REMARK    6  A    between atoms: C10_14  and  C11_19
REMARK    7  A    between atoms: C11_19  and  N4_20
REMARK    8  A    between atoms: C11_19  and  C20_31
REMARK       I    between atoms: N4_20  and  C12_22
REMARK    9  A    between atoms: C12_22  and  C13_24
REMARK   10  A    between atoms: C20_31  and  C22_33
ROOT
HETATM    1  C10 UNL     1      79.291  34.814  -0.029  1.00  0.00     0.234 C
ENDROOT
BRANCH   1   2
HETATM    2  C9  UNL     1      80.209  33.650   0.140  1.00  0.00     0.308 C
BRANCH   2   3
HETATM    3  N2  UNL     1      80.613  33.248   1.410  1.00  0.00     0.104 N
HETATM    4  C5  UNL     1      81.248  31.926   1.258  1.00  0.00     0.314 C
HETATM    5  C6  UNL     1      82.696  32.198   1.044  1.00  0.00     0.047 C
HETATM    6  C7  UNL     1      82.937  33.566   1.568  1.00  0.00     0.033 C
HETATM    7  C8  UNL     1      81.583  33.938   2.149  1.00  0.00     0.273 C
BRANCH   4   8
HETATM    8  C4  UNL     1      81.000  31.050   2.416  1.00  0.00     0.251 C
HETATM    9  N1  UNL     1      82.032  30.535   3.215  1.00  0.00    -0.355 N
ATOM     10  H1  UNL     1      82.999  30.773   2.994  1.00  0.00     0.162 HD
HETATM   11  O1  UNL     1      79.802  30.741   2.714  1.00  0.00    -0.271 OA
BRANCH   9  12
HETATM   12  C2  UNL     1      81.759  29.677   4.343  1.00  0.00     0.076 C
HETATM   13  C1  UNL     1      82.746  29.931   5.463  1.00  0.00     0.032 C
HETATM   14  C3  UNL     1      81.848  28.202   3.934  1.00  0.00     0.032 C
ENDBRANCH   9  12
ENDBRANCH   4   8
ENDBRANCH   2   3
ENDBRANCH   1   2
BRANCH   1  15
HETATM   15  N3  UNL     1      79.726  35.608  -1.151  1.00  0.00    -0.071 N
ATOM     16  H33 UNL     1      80.415  35.121  -1.724  1.00  0.00     0.274 HD
ATOM     17  H32 UNL     1      78.997  35.711  -1.857  1.00  0.00     0.274 HD
ATOM     18  H31 UNL     1      80.069  36.507  -0.815  1.00  0.00     0.274 HD
ENDBRANCH   1  15
BRANCH   1  19
HETATM   19  C11 UNL     1      77.931  34.272  -0.339  1.00  0.00     0.120 C
BRANCH  19  20
HETATM   20  N4  UNL     1      77.313  35.087  -1.411  1.00  0.00    -0.354 N
HETATM   21  C12 UNL     1      76.420  36.136  -1.169  1.00  0.00     0.222 C
HETATM   22  O2  UNL     1      76.107  36.423   0.008  1.00  0.00    -0.273 OA
ATOM     23  H4  UNL     1      77.552  34.871  -2.379  1.00  0.00     0.162 HD
BRANCH  21  24
HETATM   24  C13 UNL     1      75.847  36.900  -2.292  1.00  0.00     0.079 C
HETATM   25  C14 UNL     1      76.184  36.344  -3.680  1.00  0.00     0.023 C
HETATM   26  C15 UNL     1      76.603  37.727  -4.055  1.00  0.00    -0.039 C
HETATM   27  C16 UNL     1      75.784  38.480  -5.024  1.00  0.00     0.010 C
HETATM   28  C18 UNL     1      77.818  37.894  -4.882  1.00  0.00     0.010 C
HETATM   29  C19 UNL     1      76.631  38.175  -2.636  1.00  0.00     0.023 C
HETATM   30  C17 UNL     1      76.904  38.278  -6.055  1.00  0.00     0.002 C
ENDBRANCH  21  24
ENDBRANCH  19  20
BRANCH  19  31
HETATM   31  C20 UNL     1      76.947  34.170   0.747  1.00  0.00     0.010 C
HETATM   32  C21 UNL     1      77.446  34.652   2.094  1.00  0.00     0.012 C
BRANCH  31  33
HETATM   33  C22 UNL     1      76.207  32.892   0.952  1.00  0.00    -0.017 C
HETATM   34  C23 UNL     1      74.713  33.221   0.784  1.00  0.00     0.010 C
HETATM   35  C24 UNL     1      76.335  32.253   2.300  1.00  0.00     0.010 C
ENDBRANCH  31  33
ENDBRANCH  19  31
ENDBRANCH   1  19
TORSDOF 10
ENDMDL