MODEL 4
REMARK VINA RESULT: -7.177857423      2.084      7.568
REMARK  11 active torsions:
REMARK  status: ('A' for Active; 'I' for Inactive)
REMARK    1  A    between atoms: N1_2  and  C2_4
REMARK    2  A    between atoms: C2_4  and  C3_5
REMARK    3  A    between atoms: C2_4  and  C7_9
REMARK    4  A    between atoms: C3_5  and  C4_6
REMARK       I    between atoms: C7_9  and  N2_11
REMARK    5  A    between atoms: N2_11  and  C8_13
REMARK    6  A    between atoms: C8_13  and  C9_14
REMARK    7  A    between atoms: C8_13  and  C13_18
REMARK    8  A    between atoms: C9_14  and  C10_15
REMARK    9  A    between atoms: C13_18  and  O2_19
REMARK   10  A    between atoms: C16_24  and  C17_25
REMARK       I    between atoms: C17_25  and  N4_27
REMARK   11  A    between atoms: N4_27  and  C18_29
ROOT
HETATM    1  C8  UNL     1      77.614  33.403   2.567  1.00  0.00     0.159 C
ENDROOT
BRANCH   1   2
HETATM    2  N2  UNL     1      78.679  32.444   2.060  1.00  0.00    -0.347 N
HETATM    3  C7  UNL     1      79.724  32.019   2.875  1.00  0.00     0.240 C
HETATM    4  O1  UNL     1      79.796  32.429   4.052  1.00  0.00    -0.271 OA
ATOM      5  H2  UNL     1      78.627  32.105   1.099  1.00  0.00     0.163 HD
BRANCH   3   6
HETATM    6  C2  UNL     1      80.758  31.088   2.384  1.00  0.00     0.169 C
BRANCH   6   7
HETATM    7  N1  UNL     1      80.701  29.843   3.117  1.00  0.00    -0.413 N
HETATM    8  C1  UNL     1      81.902  29.477   3.791  1.00  0.00     0.140 C
ATOM      9  H1  UNL     1      79.860  29.266   3.150  1.00  0.00     0.153 HD
ENDBRANCH   6   7
BRANCH   6  10
HETATM   10  C3  UNL     1      82.067  31.770   2.360  1.00  0.00     0.038 C
BRANCH  10  11
HETATM   11  C4  UNL     1      82.756  31.942   1.069  1.00  0.00    -0.020 C
HETATM   12  C5  UNL     1      83.443  33.271   0.896  1.00  0.00     0.009 C
HETATM   13  C6  UNL     1      81.924  31.644  -0.141  1.00  0.00     0.009 C
ENDBRANCH  10  11
ENDBRANCH   6  10
ENDBRANCH   3   6
ENDBRANCH   1   2
BRANCH   1  14
HETATM   14  C9  UNL     1      76.359  32.764   2.253  1.00  0.00     0.038 C
BRANCH  14  15
HETATM   15  C10 UNL     1      75.786  32.817   0.879  1.00  0.00    -0.012 A
HETATM   16  C11 UNL     1      74.287  33.019   0.807  1.00  0.00     0.005 A
HETATM   17  C12 UNL     1      75.200  34.131   0.439  1.00  0.00     0.005 A
ENDBRANCH  14  15
ENDBRANCH   1  14
BRANCH   1  18
HETATM   18  C13 UNL     1      78.054  34.717   2.148  1.00  0.00     0.137 C
HETATM   19  N3  UNL     1      78.995  35.340   1.389  1.00  0.00    -0.364 N
HETATM   20  C14 UNL     1      80.113  34.818   0.685  1.00  0.00     0.125 C
HETATM   21  C23 UNL     1      78.874  36.837   1.228  1.00  0.00     0.125 C
HETATM   22  C15 UNL     1      79.856  34.987  -0.825  1.00  0.00     0.034 C
HETATM   23  C16 UNL     1      79.569  36.440  -1.140  1.00  0.00     0.081 C
HETATM   24  C22 UNL     1      79.680  37.312   0.074  1.00  0.00     0.034 C
BRANCH  18  25
HETATM   25  O2  UNL     1      77.233  35.650   2.731  1.00  0.00    -0.348 OA
ATOM     26  H2  UNL     1      77.031  36.314   2.082  1.00  0.00     0.219 HD
ENDBRANCH  18  25
BRANCH  23  27
HETATM   27  C17 UNL     1      80.477  36.923  -2.193  1.00  0.00     0.222 C
HETATM   28  O3  UNL     1      80.680  38.155  -2.325  1.00  0.00    -0.273 OA
HETATM   29  N4  UNL     1      81.155  36.050  -3.093  1.00  0.00    -0.353 N
ATOM     30  H4  UNL     1      81.003  35.046  -3.001  1.00  0.00     0.163 HD
BRANCH  29  31
HETATM   31  C18 UNL     1      82.038  36.517  -4.119  1.00  0.00     0.022 C
HETATM   32  C19 UNL     1      82.633  35.342  -4.839  1.00  0.00     0.037 C
HETATM   33  C20 UNL     1      81.315  37.349  -5.163  1.00  0.00     0.037 C
HETATM   34  C21 UNL     1      83.153  37.374  -3.583  1.00  0.00     0.037 C
ENDBRANCH  29  31
ENDBRANCH  23  27
ENDBRANCH   1  18
TORSDOF 11
ENDMDL