MODEL 4
REMARK VINA RESULT: -6.533929822      1.978      2.915
REMARK  9 active torsions:
REMARK  status: ('A' for Active; 'I' for Inactive)
REMARK       I    between atoms: C2_2  and  N1_4
REMARK    1  A    between atoms: N1_4  and  C3_6
REMARK    2  A    between atoms: C3_6  and  C4_7
REMARK    3  A    between atoms: C3_6  and  C20_30
REMARK       I    between atoms: C4_7  and  N2_9
REMARK    4  A    between atoms: C5_10  and  C6_11
REMARK    5  A    between atoms: C12_17  and  C13_18
REMARK       I    between atoms: C13_18  and  N3_20
REMARK    6  A    between atoms: N3_20  and  C14_22
REMARK    7  A    between atoms: C14_22  and  C15_23
REMARK    8  A    between atoms: C14_22  and  C19_27
REMARK    9  A    between atoms: C15_23  and  C16_24
ROOT
HETATM    1  C4  UNL     1      80.983  37.821  -0.845  1.00  0.00     0.248 C
HETATM    2  O2  UNL     1      81.185  38.338  -1.998  1.00  0.00    -0.271 OA
HETATM    3  N2  UNL     1      81.817  36.850  -0.279  1.00  0.00    -0.305 N
HETATM    4  C5  UNL     1      83.032  36.288  -0.737  1.00  0.00     0.018 C
HETATM    5  C9  UNL     1      83.363  35.078   0.126  1.00  0.00     0.064 C
HETATM    6  C10 UNL     1      82.829  35.556   1.452  1.00  0.00     0.020 C
HETATM    7  C11 UNL     1      83.626  36.642   2.080  1.00  0.00     0.013 C
HETATM    8  C12 UNL     1      81.504  36.175   0.977  1.00  0.00     0.189 C
ENDROOT
BRANCH   8   9
HETATM    9  C13 UNL     1      80.570  35.027   0.801  1.00  0.00     0.242 C
HETATM   10  O3  UNL     1      79.904  34.834  -0.239  1.00  0.00    -0.271 OA
HETATM   11  N3  UNL     1      80.451  34.124   1.871  1.00  0.00    -0.345 N
ATOM     12  H3  UNL     1      80.983  34.272   2.729  1.00  0.00     0.163 HD
BRANCH  11  13
HETATM   13  C14 UNL     1      79.555  32.966   1.749  1.00  0.00     0.185 C
BRANCH  13  14
HETATM   14  C15 UNL     1      78.680  32.891   2.954  1.00  0.00     0.040 C
BRANCH  14  15
HETATM   15  C16 UNL     1      77.235  32.861   2.579  1.00  0.00    -0.020 C
HETATM   16  C17 UNL     1      76.964  33.487   1.237  1.00  0.00     0.009 C
HETATM   17  C18 UNL     1      76.712  31.418   2.539  1.00  0.00     0.009 C
ENDBRANCH  14  15
ENDBRANCH  13  14
BRANCH  13  18
HETATM   18  C19 UNL     1      80.401  31.716   1.715  1.00  0.00     0.196 C
HETATM   19  O4  UNL     1      81.255  31.563   0.815  1.00  0.00    -0.646 OA
HETATM   20  O5  UNL     1      80.234  30.744   2.670  1.00  0.00    -0.646 OA
ENDBRANCH  13  18
ENDBRANCH  11  13
ENDBRANCH   8   9
BRANCH   1  21
HETATM   21  C3  UNL     1      79.751  38.395  -0.207  1.00  0.00     0.180 C
BRANCH  21  22
HETATM   22  N1  UNL     1      78.739  38.642  -1.227  1.00  0.00    -0.348 N
HETATM   23  C2  UNL     1      77.593  37.874  -1.452  1.00  0.00     0.214 C
HETATM   24  C1  UNL     1      76.597  38.167  -2.508  1.00  0.00     0.117 C
HETATM   25  O1  UNL     1      77.377  36.877  -0.729  1.00  0.00    -0.274 OA
ATOM     26  H1  UNL     1      78.881  39.450  -1.834  1.00  0.00     0.163 HD
ENDBRANCH  21  22
BRANCH  21  27
HETATM   27  C20 UNL     1      80.058  39.720   0.490  1.00  0.00     0.009 C
HETATM   28  C21 UNL     1      79.138  40.818   0.107  1.00  0.00     0.012 C
HETATM   29  C22 UNL     1      80.212  39.606   1.969  1.00  0.00     0.012 C
ENDBRANCH  21  27
ENDBRANCH   1  21
BRANCH   4  30
HETATM   30  C6  UNL     1      83.324  36.084  -2.158  1.00  0.00    -0.065 C
HETATM   31  C7  UNL     1      84.740  35.823  -2.553  1.00  0.00     0.045 C
HETATM   32  C8  UNL     1      82.385  35.261  -2.977  1.00  0.00     0.045 C
ENDBRANCH   4  30
TORSDOF 9
ENDMDL