MODEL 1
REMARK VINA RESULT: -7.615280088      0.000      0.000
REMARK  10 active torsions:
REMARK  status: ('A' for Active; 'I' for Inactive)
REMARK    1  A    between atoms: C2_2  and  C4_4
REMARK    2  A    between atoms: C4_4  and  N1_5
REMARK       I    between atoms: N1_5  and  C5_7
REMARK    3  A    between atoms: C5_7  and  C6_9
REMARK       I    between atoms: N2_13  and  C10_14
REMARK    4  A    between atoms: C10_14  and  C11_16
REMARK    5  A    between atoms: C11_16  and  C12_17
REMARK    6  A    between atoms: C11_16  and  N3_21
REMARK    7  A    between atoms: C12_17  and  C13_18
REMARK       I    between atoms: N3_21  and  C16_23
REMARK    8  A    between atoms: C16_23  and  C17_25
REMARK    9  A    between atoms: C20_28  and  C21_29
REMARK   10  A    between atoms: C21_29  and  N4_30
ROOT
HETATM    1  C11 UNL     1      77.282  34.535  -0.060  1.00  0.00     0.177 C
ENDROOT
BRANCH   1   2
HETATM    2  C10 UNL     1      77.681  35.908  -0.430  1.00  0.00     0.243 C
HETATM    3  N2  UNL     1      77.306  36.669  -1.542  1.00  0.00    -0.337 N
HETATM    4  C6  UNL     1      77.763  38.054  -1.829  1.00  0.00     0.179 C
HETATM    5  C9  UNL     1      76.440  36.250  -2.620  1.00  0.00     0.127 C
HETATM    6  C7  UNL     1      76.701  38.557  -2.765  1.00  0.00     0.037 C
HETATM    7  C8  UNL     1      76.578  37.341  -3.700  1.00  0.00     0.022 C
HETATM    8  O2  UNL     1      78.504  36.506   0.379  1.00  0.00    -0.271 OA
BRANCH   4   9
HETATM    9  C5  UNL     1      79.089  38.013  -2.480  1.00  0.00     0.240 C
HETATM   10  N1  UNL     1      79.970  36.915  -2.431  1.00  0.00    -0.359 N
ATOM     11  H1  UNL     1      79.680  36.086  -1.913  1.00  0.00     0.162 HD
HETATM   12  O1  UNL     1      79.470  39.026  -3.125  1.00  0.00    -0.271 OA
BRANCH  10  13
HETATM   13  C4  UNL     1      81.262  36.901  -3.075  1.00  0.00     0.126 C
BRANCH  13  14
HETATM   14  C2  UNL     1      81.932  35.573  -2.925  1.00  0.00    -0.005 C
HETATM   15  C1  UNL     1      82.176  35.184  -1.495  1.00  0.00     0.011 C
HETATM   16  C3  UNL     1      83.208  35.542  -3.742  1.00  0.00     0.011 C
ENDBRANCH  13  14
ENDBRANCH  10  13
ENDBRANCH   4   9
ENDBRANCH   1   2
BRANCH   1  17
HETATM   17  C12 UNL     1      75.954  34.425   0.613  1.00  0.00     0.038 C
BRANCH  17  18
HETATM   18  C13 UNL     1      75.421  33.067   0.869  1.00  0.00    -0.020 C
HETATM   19  C14 UNL     1      75.862  32.498   2.196  1.00  0.00     0.009 C
HETATM   20  C15 UNL     1      73.912  33.057   0.842  1.00  0.00     0.009 C
ENDBRANCH  17  18
ENDBRANCH   1  17
BRANCH   1  21
HETATM   21  N3  UNL     1      78.254  34.091   0.977  1.00  0.00    -0.347 N
HETATM   22  C16 UNL     1      79.360  33.332   0.545  1.00  0.00     0.222 C
HETATM   23  O3  UNL     1      79.509  33.044  -0.657  1.00  0.00    -0.273 OA
ATOM     24  H3  UNL     1      78.125  34.328   1.961  1.00  0.00     0.163 HD
BRANCH  22  25
HETATM   25  C17 UNL     1      80.333  32.898   1.603  1.00  0.00     0.078 C
HETATM   26  C18 UNL     1      81.238  31.841   1.004  1.00  0.00     0.014 C
HETATM   27  C19 UNL     1      82.060  31.146   2.068  1.00  0.00     0.007 C
HETATM   28  C20 UNL     1      81.196  30.443   3.078  1.00  0.00     0.011 C
HETATM   29  C22 UNL     1      79.813  30.994   3.171  1.00  0.00     0.007 C
HETATM   30  C23 UNL     1      79.667  32.442   2.853  1.00  0.00     0.014 C
BRANCH  28  31
HETATM   31  C21 UNL     1      81.864  30.622   4.439  1.00  0.00     0.234 C
BRANCH  31  32
HETATM   32  N4  UNL     1      83.132  29.959   4.481  1.00  0.00    -0.079 N
ATOM     33  H43 UNL     1      83.028  28.962   4.674  1.00  0.00     0.274 HD
ATOM     34  H42 UNL     1      83.554  29.895   3.555  1.00  0.00     0.274 HD
ATOM     35  H41 UNL     1      83.759  30.407   5.149  1.00  0.00     0.274 HD
ENDBRANCH  31  32
ENDBRANCH  28  31
ENDBRANCH  22  25
ENDBRANCH   1  21
TORSDOF 10
ENDMDL