MODEL 1
REMARK VINA RESULT: -6.400548375      0.000      0.000
REMARK  9 active torsions:
REMARK  status: ('A' for Active; 'I' for Inactive)
REMARK    1  A    between atoms: C2_2  and  C3_3
REMARK    2  A    between atoms: C3_3  and  N1_5
REMARK       I    between atoms: N1_5  and  C5_7
REMARK    3  A    between atoms: C5_7  and  C6_9
REMARK    4  A    between atoms: C9_12  and  C10_13
REMARK       I    between atoms: C10_13  and  N2_15
REMARK    5  A    between atoms: N2_15  and  C11_17
REMARK       I    between atoms: N3_23  and  C17_24
REMARK    6  A    between atoms: C17_24  and  C18_26
REMARK    7  A    between atoms: C18_26  and  C19_27
REMARK    8  A    between atoms: C18_26  and  N4_31
REMARK    9  A    between atoms: C19_27  and  C20_28
ROOT
HETATM    1  C6  UNL     1      77.031  36.530  -2.556  1.00  0.00     0.180 C
HETATM    2  C7  UNL     1      76.050  36.717  -3.660  1.00  0.00     0.037 C
HETATM    3  C8  UNL     1      76.656  37.751  -4.549  1.00  0.00     0.037 C
HETATM    4  C9  UNL     1      77.511  38.552  -3.600  1.00  0.00     0.180 C
HETATM    5  N3  UNL     1      77.935  37.625  -2.574  1.00  0.00    -0.323 N
HETATM    6  C17 UNL     1      79.121  37.846  -1.802  1.00  0.00     0.243 C
HETATM    7  O3  UNL     1      79.681  38.989  -2.003  1.00  0.00    -0.271 OA
ENDROOT
BRANCH   4   8
HETATM    8  C10 UNL     1      76.786  39.723  -3.158  1.00  0.00     0.241 C
HETATM    9  O2  UNL     1      75.949  40.275  -3.931  1.00  0.00    -0.271 OA
HETATM   10  N2  UNL     1      76.929  40.340  -1.888  1.00  0.00    -0.355 N
ATOM     11  H2  UNL     1      77.601  39.920  -1.245  1.00  0.00     0.162 HD
BRANCH  10  12
HETATM   12  C11 UNL     1      76.228  41.484  -1.425  1.00  0.00     0.084 C
HETATM   13  C12 UNL     1      77.107  42.394  -0.581  1.00  0.00     0.025 C
HETATM   14  C13 UNL     1      76.616  42.462   0.837  1.00  0.00     0.002 C
HETATM   15  C14 UNL     1      75.231  43.076   0.853  1.00  0.00     0.000 C
HETATM   16  C15 UNL     1      74.344  42.425  -0.176  1.00  0.00     0.002 C
HETATM   17  C16 UNL     1      74.986  41.134  -0.631  1.00  0.00     0.025 C
ENDBRANCH  10  12
ENDBRANCH   4   8
BRANCH   1  18
HETATM   18  C5  UNL     1      76.337  36.289  -1.263  1.00  0.00     0.241 C
HETATM   19  N1  UNL     1      76.798  35.233  -0.440  1.00  0.00    -0.355 N
ATOM     20  H1  UNL     1      77.591  34.682  -0.772  1.00  0.00     0.162 HD
HETATM   21  O1  UNL     1      75.375  36.946  -0.840  1.00  0.00    -0.271 OA
BRANCH  19  22
HETATM   22  C3  UNL     1      76.225  34.886   0.827  1.00  0.00     0.080 C
HETATM   23  C4  UNL     1      77.159  35.143   1.992  1.00  0.00     0.032 C
BRANCH  22  24
HETATM   24  C2  UNL     1      75.903  33.413   0.825  1.00  0.00     0.020 C
HETATM   25  C1  UNL     1      74.407  33.168   0.776  1.00  0.00     0.007 C
ENDBRANCH  22  24
ENDBRANCH  19  22
ENDBRANCH   1  18
BRANCH   6  26
HETATM   26  C18 UNL     1      79.772  36.986  -0.844  1.00  0.00     0.169 C
BRANCH  26  27
HETATM   27  C19 UNL     1      80.697  35.922  -1.457  1.00  0.00     0.038 C
BRANCH  27  28
HETATM   28  C20 UNL     1      80.756  34.809  -0.393  1.00  0.00    -0.020 C
HETATM   29  C21 UNL     1      79.881  33.649  -0.801  1.00  0.00     0.009 C
HETATM   30  C22 UNL     1      82.176  34.342  -0.281  1.00  0.00     0.009 C
ENDBRANCH  27  28
ENDBRANCH  26  27
BRANCH  26  31
HETATM   31  N4  UNL     1      80.638  37.705   0.081  1.00  0.00    -0.413 N
HETATM   32  C23 UNL     1      80.093  37.955   1.364  1.00  0.00     0.140 C
ATOM     33  H4  UNL     1      81.577  38.010  -0.180  1.00  0.00     0.153 HD
ENDBRANCH  26  31
ENDBRANCH   6  26
TORSDOF 9
ENDMDL