MODEL 3
REMARK VINA RESULT: -7.516692192      3.821      6.117
REMARK  9 active torsions:
REMARK  status: ('A' for Active; 'I' for Inactive)
REMARK    1  A    between atoms: C2_2  and  C3_3
REMARK    2  A    between atoms: C3_3  and  N1_4
REMARK    3  A    between atoms: N1_4  and  C4_7
REMARK    4  A    between atoms: C4_7  and  C5_8
REMARK       I    between atoms: N2_15  and  C12_16
REMARK    5  A    between atoms: C12_16  and  C13_18
REMARK    6  A    between atoms: C16_24  and  C17_25
REMARK       I    between atoms: C17_25  and  N4_27
REMARK    7  A    between atoms: N4_27  and  C18_29
REMARK    8  A    between atoms: C18_29  and  C20_32
REMARK    9  A    between atoms: C20_32  and  C22_34
ROOT
HETATM    1  C18 UNL     1      78.595  38.099  -4.663  1.00  0.00     0.195 C
HETATM    2  C19 UNL     1      79.155  39.470  -4.489  1.00  0.00     0.085 C
HETATM    3  N5  UNL     1      79.584  40.531  -4.337  1.00  0.00    -0.195 NA
ENDROOT
BRANCH   1   4
HETATM    4  N4  UNL     1      77.734  37.810  -3.541  1.00  0.00    -0.343 N
HETATM    5  C17 UNL     1      78.317  37.359  -2.333  1.00  0.00     0.225 C
HETATM    6  O2  UNL     1      79.564  37.197  -2.221  1.00  0.00    -0.273 OA
ATOM      7  H4  UNL     1      76.723  37.928  -3.617  1.00  0.00     0.163 HD
BRANCH   5   8
HETATM    8  C16 UNL     1      77.443  37.072  -1.179  1.00  0.00     0.118 C
HETATM    9  C13 UNL     1      77.565  35.682  -0.669  1.00  0.00     0.118 C
HETATM   10  C14 UNL     1      76.166  35.272  -0.323  1.00  0.00     0.247 C
HETATM   11  N3  UNL     1      75.285  36.415  -0.593  1.00  0.00    -0.073 N
HETATM   12  C15 UNL     1      76.003  37.166  -1.612  1.00  0.00     0.247 C
ATOM     13  H32 UNL     1      74.330  36.161  -0.851  1.00  0.00     0.277 HD
ATOM     14  H31 UNL     1      75.032  36.958   0.232  1.00  0.00     0.277 HD
BRANCH   9  15
HETATM   15  C12 UNL     1      78.480  35.584   0.501  1.00  0.00     0.226 C
HETATM   16  N2  UNL     1      79.524  34.626   0.469  1.00  0.00    -0.351 N
HETATM   17  C11 UNL     1      79.909  33.671  -0.550  1.00  0.00     0.126 C
HETATM   18  C24 UNL     1      80.502  34.401   1.560  1.00  0.00     0.135 C
HETATM   19  C10 UNL     1      80.543  32.501   0.207  1.00  0.00     0.031 C
HETATM   20  C9  UNL     1      80.481  32.870   1.652  1.00  0.00    -0.017 C
HETATM   21  C5  UNL     1      81.594  32.331   2.499  1.00  0.00     0.021 C
HETATM   22  C8  UNL     1      79.189  32.418   2.299  1.00  0.00     0.012 C
HETATM   23  C6  UNL     1      80.934  32.229   3.855  1.00  0.00     0.007 C
HETATM   24  C7  UNL     1      79.593  31.615   3.520  1.00  0.00     0.001 C
HETATM   25  O1  UNL     1      78.336  36.324   1.495  1.00  0.00    -0.273 OA
BRANCH  21  26
HETATM   26  C4  UNL     1      82.034  30.957   2.080  1.00  0.00     0.238 C
BRANCH  26  27
HETATM   27  N1  UNL     1      82.685  30.195   3.107  1.00  0.00    -0.072 N
ATOM     28  H12 UNL     1      82.567  30.628   4.023  1.00  0.00     0.277 HD
ATOM     29  H11 UNL     1      83.701  30.259   3.031  1.00  0.00     0.277 HD
BRANCH  27  30
HETATM   30  C3  UNL     1      82.241  28.807   3.114  1.00  0.00     0.259 C
BRANCH  30  31
HETATM   31  C2  UNL     1      81.963  28.361   4.505  1.00  0.00    -0.010 C
HETATM   32  C1  UNL     1      82.093  29.210   5.494  1.00  0.00     0.008 C
ENDBRANCH  30  31
ENDBRANCH  27  30
ENDBRANCH  26  27
ENDBRANCH  21  26
ENDBRANCH   9  15
ENDBRANCH   5   8
ENDBRANCH   1   4
BRANCH   1  33
HETATM   33  C20 UNL     1      77.979  38.052  -6.004  1.00  0.00     0.018 C
HETATM   34  C21 UNL     1      78.974  38.051  -7.138  1.00  0.00     0.013 C
BRANCH  33  35
HETATM   35  C22 UNL     1      76.895  39.032  -6.289  1.00  0.00     0.003 C
HETATM   36  C23 UNL     1      75.510  38.478  -6.308  1.00  0.00     0.005 C
ENDBRANCH  33  35
ENDBRANCH   1  33
TORSDOF 9
ENDMDL