MODEL 2
REMARK VINA RESULT: -7.700043746      4.036      7.128
REMARK  10 active torsions:
REMARK  status: ('A' for Active; 'I' for Inactive)
REMARK    1  A    between atoms: C2_2  and  C3_4
REMARK    2  A    between atoms: C3_4  and  C4_5
REMARK    3  A    between atoms: C4_5  and  N1_6
REMARK    4  A    between atoms: C4_5  and  C7_11
REMARK       I    between atoms: N1_6  and  C5_8
REMARK       I    between atoms: C7_11  and  N2_13
REMARK    5  A    between atoms: N2_13  and  C8_15
REMARK    6  A    between atoms: C8_15  and  C9_16
REMARK    7  A    between atoms: C8_15  and  C22_31
REMARK       I    between atoms: C9_16  and  N3_18
REMARK    8  A    between atoms: C14_23  and  C15_24
REMARK    9  A    between atoms: C15_24  and  C16_25
REMARK   10  A    between atoms: C22_31  and  N4_33
ROOT
HETATM    1  C8  UNL     1      83.003  35.184   1.894  1.00  0.00     0.206 C
ENDROOT
BRANCH   1   2
HETATM    2  N2  UNL     1      83.240  36.627   1.698  1.00  0.00    -0.344 N
HETATM    3  C7  UNL     1      83.497  37.490   2.770  1.00  0.00     0.241 C
HETATM    4  O3  UNL     1      83.528  37.005   3.933  1.00  0.00    -0.271 OA
ATOM      5  H2  UNL     1      83.217  37.007   0.752  1.00  0.00     0.163 HD
BRANCH   3   6
HETATM    6  C4  UNL     1      83.735  38.944   2.626  1.00  0.00     0.183 C
BRANCH   6   7
HETATM    7  C3  UNL     1      82.704  39.581   1.732  1.00  0.00     0.112 C
BRANCH   7   8
HETATM    8  C2  UNL     1      81.350  39.649   2.306  1.00  0.00     0.125 C
HETATM    9  C1  UNL     1      80.230  38.894   1.694  1.00  0.00     0.091 C
HETATM   10  O1  UNL     1      81.142  40.325   3.283  1.00  0.00    -0.298 OA
ENDBRANCH   7   8
ENDBRANCH   6   7
BRANCH   6  11
HETATM   11  N1  UNL     1      83.808  39.591   3.934  1.00  0.00    -0.348 N
HETATM   12  C5  UNL     1      84.731  40.636   4.193  1.00  0.00     0.214 C
HETATM   13  C6  UNL     1      84.785  41.270   5.529  1.00  0.00     0.117 C
HETATM   14  O2  UNL     1      85.510  41.030   3.296  1.00  0.00    -0.274 OA
ATOM     15  H1  UNL     1      83.180  39.285   4.678  1.00  0.00     0.163 HD
ENDBRANCH   6  11
ENDBRANCH   3   6
ENDBRANCH   1   2
BRANCH   1  16
HETATM   16  C9  UNL     1      81.679  34.813   1.372  1.00  0.00     0.245 C
HETATM   17  O4  UNL     1      81.312  35.417   0.321  1.00  0.00    -0.271 OA
HETATM   18  N3  UNL     1      80.799  33.856   1.938  1.00  0.00    -0.345 N
HETATM   19  C10 UNL     1      80.916  33.045   3.128  1.00  0.00     0.127 C
HETATM   20  C14 UNL     1      79.496  33.460   1.378  1.00  0.00     0.091 C
HETATM   21  C11 UNL     1      80.469  31.693   2.546  1.00  0.00     0.026 C
HETATM   22  C12 UNL     1      79.118  32.165   1.973  1.00  0.00     0.006 C
HETATM   23  C13 UNL     1      78.191  32.217   3.144  1.00  0.00     0.012 C
BRANCH  20  24
HETATM   24  C15 UNL     1      78.565  34.593   1.534  1.00  0.00     0.030 C
BRANCH  24  25
HETATM   25  C16 UNL     1      77.749  34.914   0.317  1.00  0.00    -0.013 C
HETATM   26  C17 UNL     1      76.287  34.889   0.746  1.00  0.00     0.005 C
HETATM   27  C18 UNL     1      75.352  35.385  -0.302  1.00  0.00     0.000 C
HETATM   28  C19 UNL     1      75.826  36.607  -1.042  1.00  0.00     0.000 C
HETATM   29  C20 UNL     1      77.279  36.531  -1.433  1.00  0.00     0.000 C
HETATM   30  C21 UNL     1      78.066  36.343  -0.148  1.00  0.00     0.005 C
ENDBRANCH  24  25
ENDBRANCH  20  24
ENDBRANCH   1  16
BRANCH   1  31
HETATM   31  C22 UNL     1      84.104  34.453   1.115  1.00  0.00     0.211 C
HETATM   32  C23 UNL     1      83.842  32.978   1.085  1.00  0.00     0.042 C
BRANCH  31  33
HETATM   33  N4  UNL     1      84.223  34.948  -0.218  1.00  0.00    -0.073 N
ATOM     34  H43 UNL     1      83.622  35.759  -0.369  1.00  0.00     0.274 HD
ATOM     35  H42 UNL     1      85.128  35.392  -0.371  1.00  0.00     0.274 HD
ATOM     36  H41 UNL     1      84.044  34.219  -0.908  1.00  0.00     0.274 HD
ENDBRANCH  31  33
ENDBRANCH   1  31
TORSDOF 10
ENDMDL