MODEL 5
REMARK VINA RESULT: -7.123864115      2.550      6.460
REMARK  11 active torsions:
REMARK  status: ('A' for Active; 'I' for Inactive)
REMARK    1  A    between atoms: C2_2  and  C4_4
REMARK    2  A    between atoms: C4_4  and  C5_5
REMARK    3  A    between atoms: C5_5  and  N1_6
REMARK    4  A    between atoms: C5_5  and  C29_36
REMARK       I    between atoms: N1_6  and  C6_8
REMARK    5  A    between atoms: C6_8  and  C7_10
REMARK    6  A    between atoms: C7_10  and  N2_13
REMARK       I    between atoms: N2_13  and  C10_15
REMARK    7  A    between atoms: C10_15  and  C11_17
REMARK    8  A    between atoms: C11_17  and  C12_19
REMARK    9  A    between atoms: C12_19  and  C13_20
REMARK   10  A    between atoms: C13_20  and  C14_21
REMARK   11  A    between atoms: C14_21  and  C15_22
ROOT
HETATM    1  N2  UNL     1      32.916 -32.895  -0.251  1.00  0.00    -0.339 N
ATOM      2  H2  UNL     1      33.013 -32.469  -1.172  1.00  0.00     0.164 HD
HETATM    3  C10 UNL     1      33.069 -34.299  -0.158  1.00  0.00     0.266 C
HETATM    4  O2  UNL     1      32.929 -34.954   0.906  1.00  0.00    -0.266 OA
ENDROOT
BRANCH   3   5
HETATM    5  C11 UNL     1      33.411 -35.129  -1.371  1.00  0.00     0.113 C
HETATM    6  N3  UNL     1      32.374 -35.165  -2.343  1.00  0.00    -0.097 NA
BRANCH   5   7
HETATM    7  C12 UNL     1      34.784 -35.016  -1.798  1.00  0.00     0.028 C
BRANCH   7   8
HETATM    8  C13 UNL     1      35.372 -34.055  -2.546  1.00  0.00    -0.024 C
BRANCH   8   9
HETATM    9  C14 UNL     1      36.851 -33.916  -2.258  1.00  0.00     0.032 C
BRANCH   9  10
HETATM   10  C15 UNL     1      37.297 -32.489  -2.413  1.00  0.00    -0.005 C
HETATM   11  C16 UNL     1      36.168 -31.537  -2.487  1.00  0.00     0.011 C
HETATM   12  C17 UNL     1      36.097 -30.493  -1.459  1.00  0.00     0.000 A
HETATM   13  C18 UNL     1      36.638 -29.124  -1.563  1.00  0.00     0.000 A
HETATM   14  C28 UNL     1      37.448 -30.020  -0.898  1.00  0.00    -0.024 A
HETATM   15  C19 UNL     1      37.280 -28.881  -2.929  1.00  0.00     0.006 C
HETATM   16  C20 UNL     1      38.408 -29.924  -3.020  1.00  0.00     0.011 C
HETATM   17  C21 UNL     1      38.587 -30.552  -1.738  1.00  0.00    -0.031 C
HETATM   18  C22 UNL     1      39.923 -30.211  -1.182  1.00  0.00     0.016 C
HETATM   19  C23 UNL     1      38.320 -32.011  -1.473  1.00  0.00     0.007 C
HETATM   20  C24 UNL     1      38.067 -32.044  -0.023  1.00  0.00    -0.042 C
HETATM   21  C25 UNL     1      39.307 -32.440   0.767  1.00  0.00     0.015 C
HETATM   22  C26 UNL     1      36.970 -32.899   0.530  1.00  0.00     0.015 C
HETATM   23  C27 UNL     1      37.683 -30.612   0.395  1.00  0.00     0.020 C
ENDBRANCH   9  10
ENDBRANCH   8   9
ENDBRANCH   7   8
ENDBRANCH   5   7
ENDBRANCH   3   5
BRANCH   1  24
HETATM   24  C7  UNL     1      32.636 -32.028   0.854  1.00  0.00     0.106 C
HETATM   25  C8  UNL     1      33.370 -32.365   2.096  1.00  0.00     0.048 C
HETATM   26  C9  UNL     1      31.139 -32.215   1.196  1.00  0.00     0.048 C
BRANCH  24  27
HETATM   27  C6  UNL     1      32.759 -30.594   0.527  1.00  0.00     0.246 C
HETATM   28  N1  UNL     1      32.082 -30.068  -0.583  1.00  0.00    -0.346 N
ATOM     29  H1  UNL     1      31.520 -30.761  -1.078  1.00  0.00     0.163 HD
HETATM   30  O1  UNL     1      33.461 -29.854   1.234  1.00  0.00    -0.271 OA
BRANCH  28  31
HETATM   31  C5  UNL     1      32.017 -28.786  -1.156  1.00  0.00     0.174 C
BRANCH  31  32
HETATM   32  C4  UNL     1      33.172 -27.898  -1.289  1.00  0.00     0.038 C
BRANCH  32  33
HETATM   33  C2  UNL     1      33.306 -27.292  -2.645  1.00  0.00    -0.020 C
HETATM   34  C1  UNL     1      33.772 -28.302  -3.704  1.00  0.00     0.009 C
HETATM   35  C3  UNL     1      34.501 -26.297  -2.577  1.00  0.00     0.009 C
ENDBRANCH  32  33
ENDBRANCH  31  32
BRANCH  31  36
HETATM   36  C29 UNL     1      30.833 -28.019  -0.603  1.00  0.00     0.254 C
HETATM   37  N4  UNL     1      30.385 -28.232   0.709  1.00  0.00    -0.060 NA
HETATM   38  O3  UNL     1      30.249 -27.210  -1.350  1.00  0.00    -0.275 OA
ENDBRANCH  31  36
ENDBRANCH  28  31
ENDBRANCH  24  27
ENDBRANCH   1  24
TORSDOF 11
ENDMDL