MODEL 2
REMARK VINA RESULT: -8.033814103      1.543      2.300
REMARK  11 active torsions:
REMARK  status: ('A' for Active; 'I' for Inactive)
REMARK    1  A    between atoms: C3_3  and  C4_4
REMARK    2  A    between atoms: C8_8  and  N1_9
REMARK       I    between atoms: N1_9  and  C9_11
REMARK    3  A    between atoms: C9_11  and  C10_13
REMARK       I    between atoms: N2_18  and  C15_19
REMARK    4  A    between atoms: C15_19  and  C16_21
REMARK    5  A    between atoms: C16_21  and  C17_22
REMARK    6  A    between atoms: C16_21  and  N3_29
REMARK    7  A    between atoms: C17_22  and  C18_23
REMARK       I    between atoms: N3_29  and  C24_31
REMARK    8  A    between atoms: C24_31  and  C25_33
REMARK    9  A    between atoms: C25_33  and  N4_34
REMARK   10  A    between atoms: C25_33  and  C26_38
REMARK   11  A    between atoms: C26_38  and  C27_39
ROOT
HETATM    1  C1  UNL     1      39.249 -26.175  -2.542  1.00  0.00     0.012 C
HETATM    2  C2  UNL     1      38.189 -25.928  -3.017  1.00  0.00    -0.117 C
HETATM    3  C3  UNL     1      36.893 -25.650  -3.593  1.00  0.00     0.099 C
ENDROOT
BRANCH   3   4
HETATM    4  C4  UNL     1      35.888 -26.741  -3.291  1.00  0.00     0.019 C
HETATM    5  C5  UNL     1      34.519 -26.420  -3.796  1.00  0.00     0.007 C
HETATM    6  C6  UNL     1      34.585 -26.853  -5.244  1.00  0.00     0.002 C
HETATM    7  C7  UNL     1      35.437 -28.081  -5.242  1.00  0.00     0.026 C
HETATM    8  C8  UNL     1      36.270 -28.044  -3.958  1.00  0.00     0.089 C
BRANCH   8   9
HETATM    9  N1  UNL     1      35.849 -29.190  -3.158  1.00  0.00    -0.354 N
HETATM   10  C9  UNL     1      36.677 -29.876  -2.277  1.00  0.00     0.241 C
HETATM   11  O1  UNL     1      37.886 -29.412  -2.210  1.00  0.00    -0.271 OA
ATOM     12  H1  UNL     1      34.884 -29.509  -3.250  1.00  0.00     0.162 HD
BRANCH  10  13
HETATM   13  C10 UNL     1      36.416 -31.029  -1.415  1.00  0.00     0.179 C
HETATM   14  C11 UNL     1      37.732 -31.561  -0.812  1.00  0.00     0.035 C
HETATM   15  C12 UNL     1      38.174 -32.808  -1.538  1.00  0.00     0.004 C
HETATM   16  C13 UNL     1      37.755 -32.811  -2.977  1.00  0.00     0.020 C
HETATM   17  C14 UNL     1      36.245 -32.826  -3.089  1.00  0.00     0.127 C
HETATM   18  N2  UNL     1      35.657 -32.115  -1.960  1.00  0.00    -0.337 N
HETATM   19  C15 UNL     1      34.392 -32.570  -1.431  1.00  0.00     0.243 C
HETATM   20  O2  UNL     1      33.846 -33.558  -2.025  1.00  0.00    -0.271 OA
BRANCH  19  21
HETATM   21  C16 UNL     1      33.687 -32.039  -0.295  1.00  0.00     0.177 C
BRANCH  21  22
HETATM   22  C17 UNL     1      32.782 -30.896  -0.581  1.00  0.00     0.039 C
BRANCH  22  23
HETATM   23  C18 UNL     1      32.807 -29.687   0.229  1.00  0.00    -0.012 C
HETATM   24  C19 UNL     1      33.225 -28.392  -0.344  1.00  0.00     0.005 C
HETATM   25  C20 UNL     1      32.191 -27.834  -1.335  1.00  0.00     0.000 C
HETATM   26  C21 UNL     1      30.908 -27.601  -0.602  1.00  0.00     0.000 C
HETATM   27  C22 UNL     1      30.477 -28.921   0.007  1.00  0.00     0.000 C
HETATM   28  C23 UNL     1      31.488 -29.445   0.973  1.00  0.00     0.005 C
ENDBRANCH  22  23
ENDBRANCH  21  22
BRANCH  21  29
HETATM   29  N3  UNL     1      32.720 -33.122   0.079  1.00  0.00    -0.346 N
HETATM   30  C24 UNL     1      32.397 -33.423   1.404  1.00  0.00     0.249 C
HETATM   31  O3  UNL     1      32.913 -32.785   2.343  1.00  0.00    -0.271 OA
ATOM     32  H3  UNL     1      32.279 -33.661  -0.666  1.00  0.00     0.163 HD
BRANCH  30  33
HETATM   33  C25 UNL     1      31.438 -34.503   1.703  1.00  0.00     0.275 C
BRANCH  33  34
HETATM   34  N4  UNL     1      31.312 -35.443   0.603  1.00  0.00    -0.066 N
ATOM     35  H43 UNL     1      32.078 -35.337  -0.064  1.00  0.00     0.275 HD
ATOM     36  H42 UNL     1      31.496 -36.398   0.909  1.00  0.00     0.275 HD
ATOM     37  H41 UNL     1      30.407 -35.372   0.139  1.00  0.00     0.275 HD
ENDBRANCH  33  34
BRANCH  33  38
HETATM   38  C26 UNL     1      31.838 -35.293   2.933  1.00  0.00     0.046 C
BRANCH  38  39
HETATM   39  C27 UNL     1      30.835 -36.405   3.141  1.00  0.00    -0.020 C
HETATM   40  C28 UNL     1      29.943 -36.171   4.317  1.00  0.00     0.009 C
HETATM   41  C29 UNL     1      31.590 -37.709   3.380  1.00  0.00     0.009 C
ENDBRANCH  38  39
ENDBRANCH  33  38
ENDBRANCH  30  33
ENDBRANCH  21  29
ENDBRANCH  19  21
ENDBRANCH  10  13
ENDBRANCH   8   9
ENDBRANCH   3   4
TORSDOF 11
ENDMDL