MODEL 3
REMARK VINA RESULT: -6.828937776      0.789      1.017
REMARK  12 active torsions:
REMARK  status: ('A' for Active; 'I' for Inactive)
REMARK    1  A    between atoms: C2_2  and  C3_3
REMARK    2  A    between atoms: C3_3  and  C5_5
REMARK    3  A    between atoms: C7_10  and  C8_11
REMARK    4  A    between atoms: C8_11  and  C9_12
REMARK    5  A    between atoms: C14_19  and  C15_20
REMARK    6  A    between atoms: C16_21  and  C17_22
REMARK    7  A    between atoms: C17_22  and  O3_23
REMARK    8  A    between atoms: C17_22  and  C18_25
REMARK    9  A    between atoms: C18_25  and  C19_26
REMARK   10  A    between atoms: C23_30  and  C24_31
REMARK   11  A    between atoms: C24_31  and  C25_32
REMARK   12  A    between atoms: C28_37  and  O4_38
ROOT
HETATM    1  C5  UNL     1      35.702 -27.906  -4.029  1.00  0.00     0.162 C
HETATM    2  N1  UNL     1      36.586 -28.249  -2.915  1.00  0.00    -0.347 N
ATOM      3  H1  UNL     1      36.391 -27.738  -2.054  1.00  0.00     0.163 HD
HETATM    4  C6  UNL     1      37.636 -29.140  -2.819  1.00  0.00     0.241 C
HETATM    5  O1  UNL     1      38.804 -28.628  -2.645  1.00  0.00    -0.271 OA
HETATM    6  C7  UNL     1      37.646 -30.626  -2.879  1.00  0.00     0.179 C
HETATM    7  N2  UNL     1      37.592 -31.193  -1.532  1.00  0.00    -0.342 N
HETATM    8  C12 UNL     1      38.729 -32.079  -1.157  1.00  0.00     0.153 C
HETATM    9  C13 UNL     1      36.617 -30.983  -0.557  1.00  0.00     0.228 C
HETATM   10  O2  UNL     1      36.993 -30.572   0.600  1.00  0.00    -0.273 OA
HETATM   11  C14 UNL     1      35.128 -31.166  -0.630  1.00  0.00     0.102 C
HETATM   12  C22 UNL     1      34.392 -29.863  -0.570  1.00  0.00     0.043 C
HETATM   13  C23 UNL     1      33.500 -29.646  -1.801  1.00  0.00     0.084 C
HETATM   14  N3  UNL     1      33.665 -28.411  -2.471  1.00  0.00    -0.368 N
ATOM     15  H3  UNL     1      33.261 -27.618  -1.973  1.00  0.00     0.161 HD
HETATM   16  C28 UNL     1      34.277 -28.060  -3.691  1.00  0.00     0.135 C
ENDROOT
BRANCH  11  17
HETATM   17  C15 UNL     1      34.683 -32.117   0.388  1.00  0.00    -0.014 C
HETATM   18  C16 UNL     1      33.487 -32.581   0.539  1.00  0.00     0.001 C
BRANCH  18  19
HETATM   19  C17 UNL     1      33.154 -33.574   1.649  1.00  0.00     0.141 C
BRANCH  19  20
HETATM   20  O3  UNL     1      33.805 -34.767   1.332  1.00  0.00    -0.392 OA
ATOM     21  H3  UNL     1      34.732 -34.621   1.479  1.00  0.00     0.210 HD
ENDBRANCH  19  20
BRANCH  19  22
HETATM   22  C18 UNL     1      31.680 -33.742   1.798  1.00  0.00     0.039 C
BRANCH  22  23
HETATM   23  C19 UNL     1      31.434 -35.221   2.074  1.00  0.00    -0.020 C
HETATM   24  C20 UNL     1      31.369 -35.498   3.550  1.00  0.00     0.009 C
HETATM   25  C21 UNL     1      30.117 -35.570   1.379  1.00  0.00     0.009 C
ENDBRANCH  22  23
ENDBRANCH  19  22
ENDBRANCH  18  19
ENDBRANCH  11  17
BRANCH  13  26
HETATM   26  C24 UNL     1      32.064 -29.880  -1.359  1.00  0.00     0.029 C
BRANCH  26  27
HETATM   27  C25 UNL     1      31.683 -29.071  -0.159  1.00  0.00    -0.021 C
HETATM   28  C26 UNL     1      30.801 -27.904  -0.542  1.00  0.00     0.009 C
HETATM   29  C27 UNL     1      30.904 -29.911   0.830  1.00  0.00     0.009 C
ENDBRANCH  26  27
ENDBRANCH  13  26
BRANCH   6  30
HETATM   30  C8  UNL     1      36.675 -31.195  -3.846  1.00  0.00     0.039 C
BRANCH  30  31
HETATM   31  C9  UNL     1      36.907 -32.633  -4.236  1.00  0.00    -0.020 C
HETATM   32  C10 UNL     1      36.764 -32.779  -5.715  1.00  0.00     0.009 C
HETATM   33  C11 UNL     1      35.863 -33.493  -3.528  1.00  0.00     0.009 C
ENDBRANCH  30  31
ENDBRANCH   6  30
BRANCH  16  34
HETATM   34  O4  UNL     1      33.514 -27.823  -4.724  1.00  0.00    -0.348 OA
ATOM     35  H4  UNL     1      32.939 -28.557  -4.905  1.00  0.00     0.219 HD
ENDBRANCH  16  34
BRANCH   1  36
HETATM   36  C3  UNL     1      35.995 -26.418  -4.285  1.00  0.00     0.012 C
HETATM   37  C4  UNL     1      36.039 -25.739  -2.883  1.00  0.00     0.012 C
BRANCH  36  38
HETATM   38  C2  UNL     1      37.258 -26.108  -4.986  1.00  0.00     0.002 C
HETATM   39  C1  UNL     1      36.943 -25.385  -6.325  1.00  0.00     0.005 C
ENDBRANCH  36  38
ENDBRANCH   1  36
TORSDOF 12
ENDMDL