MODEL 1
REMARK VINA RESULT: -7.108818916      0.000      0.000
REMARK  11 active torsions:
REMARK  status: ('A' for Active; 'I' for Inactive)
REMARK       I    between atoms: N2_3  and  C2_5
REMARK       I    between atoms: C2_5  and  N3_7
REMARK    1  A    between atoms: N3_7  and  C3_9
REMARK    2  A    between atoms: C3_9  and  C4_10
REMARK    3  A    between atoms: C4_10  and  C5_11
REMARK    4  A    between atoms: C5_11  and  C6_12
REMARK    5  A    between atoms: C6_12  and  C7_13
REMARK    6  A    between atoms: C7_13  and  N4_14
REMARK    7  A    between atoms: C10_17  and  C11_18
REMARK    8  A    between atoms: C11_18  and  C12_19
REMARK    9  A    between atoms: C12_19  and  C13_20
REMARK       I    between atoms: C13_20  and  N5_22
REMARK   10  A    between atoms: N5_22  and  C14_24
REMARK   11  A    between atoms: C22_32  and  N6_33
ROOT
HETATM    1  C1  UNL     1      31.867 -35.472   2.438  1.00  0.00     0.258 C
HETATM    2  N1  UNL     1      32.067 -34.342   2.424  1.00  0.00    -0.346 NA
HETATM    3  N2  UNL     1      32.296 -33.015   2.412  1.00  0.00    -0.186 N
ATOM      4  H2  UNL     1      33.035 -32.627   2.998  1.00  0.00     0.206 HD
HETATM    5  C2  UNL     1      31.501 -32.127   1.571  1.00  0.00     0.348 C
HETATM    6  O1  UNL     1      30.621 -32.674   0.884  1.00  0.00    -0.244 OA
HETATM    7  N3  UNL     1      31.735 -30.754   1.557  1.00  0.00    -0.321 N
ATOM      8  H3  UNL     1      32.473 -30.460   2.197  1.00  0.00     0.169 HD
ENDROOT
BRANCH   7   9
HETATM    9  C3  UNL     1      31.159 -29.693   0.838  1.00  0.00     0.065 C
BRANCH   9  10
HETATM   10  C4  UNL     1      31.591 -29.448  -0.559  1.00  0.00     0.044 C
BRANCH  10  11
HETATM   11  C5  UNL     1      31.713 -28.054  -0.965  1.00  0.00     0.007 C
BRANCH  11  12
HETATM   12  C6  UNL     1      33.084 -27.567  -1.382  1.00  0.00     0.030 C
BRANCH  12  13
HETATM   13  C7  UNL     1      33.294 -27.200  -2.781  1.00  0.00     0.272 C
BRANCH  13  14
HETATM   14  N4  UNL     1      34.385 -26.377  -3.146  1.00  0.00     0.088 N
HETATM   15  C8  UNL     1      34.610 -26.523  -4.572  1.00  0.00     0.272 C
HETATM   16  C9  UNL     1      35.103 -27.883  -4.946  1.00  0.00     0.035 C
HETATM   17  C10 UNL     1      36.326 -28.281  -4.126  1.00  0.00    -0.011 C
HETATM   18  C27 UNL     1      36.749 -27.132  -3.277  1.00  0.00     0.035 C
HETATM   19  C28 UNL     1      35.602 -26.634  -2.456  1.00  0.00     0.272 C
BRANCH  17  20
HETATM   20  C11 UNL     1      37.401 -28.855  -4.996  1.00  0.00     0.014 C
BRANCH  20  21
HETATM   21  C12 UNL     1      37.113 -30.265  -5.419  1.00  0.00     0.103 C
BRANCH  21  22
HETATM   22  C13 UNL     1      36.949 -31.127  -4.203  1.00  0.00     0.218 C
HETATM   23  O2  UNL     1      37.967 -31.489  -3.593  1.00  0.00    -0.274 OA
HETATM   24  N5  UNL     1      35.676 -31.519  -3.761  1.00  0.00    -0.352 N
ATOM     25  H5  UNL     1      34.876 -31.192  -4.303  1.00  0.00     0.163 HD
BRANCH  24  26
HETATM   26  C14 UNL     1      35.395 -32.348  -2.603  1.00  0.00     0.035 C
HETATM   27  C15 UNL     1      33.957 -32.117  -2.229  1.00  0.00     0.031 C
HETATM   28  C16 UNL     1      33.314 -33.251  -1.510  1.00  0.00     0.007 C
HETATM   29  C17 UNL     1      34.158 -33.939  -0.500  1.00  0.00    -0.012 C
HETATM   30  C18 UNL     1      34.851 -35.147  -1.134  1.00  0.00     0.009 C
HETATM   31  C25 UNL     1      35.099 -33.080   0.261  1.00  0.00     0.046 C
HETATM   32  C19 UNL     1      36.059 -34.697  -1.918  1.00  0.00    -0.009 C
HETATM   33  C20 UNL     1      35.666 -33.773  -3.004  1.00  0.00     0.035 C
HETATM   34  C21 UNL     1      37.054 -34.108  -0.954  1.00  0.00     0.046 C
HETATM   35  C22 UNL     1      36.448 -32.876  -0.375  1.00  0.00     0.162 C
HETATM   36  C26 UNL     1      36.279 -31.859  -1.487  1.00  0.00     0.072 C
BRANCH  35  37
HETATM   37  N6  UNL     1      37.307 -32.292   0.607  1.00  0.00     0.089 N
HETATM   38  C23 UNL     1      38.246 -33.180   1.214  1.00  0.00     0.310 C
HETATM   39  C24 UNL     1      37.988 -31.094   0.174  1.00  0.00     0.310 C
ENDBRANCH  35  37
ENDBRANCH  24  26
ENDBRANCH  21  22
ENDBRANCH  20  21
ENDBRANCH  17  20
ENDBRANCH  13  14
ENDBRANCH  12  13
ENDBRANCH  11  12
ENDBRANCH  10  11
ENDBRANCH   9  10
ENDBRANCH   7   9
TORSDOF 11
ENDMDL