MODEL 4
REMARK VINA RESULT: -6.346242580      0.971      1.477
REMARK  11 active torsions:
REMARK  status: ('A' for Active; 'I' for Inactive)
REMARK    1  A    between atoms: C2_2  and  C5_5
REMARK    2  A    between atoms: C5_5  and  N1_6
REMARK    3  A    between atoms: C5_5  and  C12_17
REMARK       I    between atoms: N1_6  and  C6_8
REMARK       I    between atoms: C6_8  and  N2_10
REMARK    4  A    between atoms: N2_10  and  C7_12
REMARK    5  A    between atoms: C17_22  and  C18_23
REMARK    6  A    between atoms: C18_23  and  O2_24
REMARK    7  A    between atoms: C18_23  and  C19_26
REMARK    8  A    between atoms: C19_26  and  N3_27
REMARK    9  A    between atoms: N3_27  and  C20_28
REMARK   10  A    between atoms: N3_27  and  S1_34
REMARK   11  A    between atoms: C20_28  and  C21_29
ROOT
HETATM    1  C12 UNL     1      33.181 -32.210  -0.518  1.00  0.00     0.019 C
HETATM    2  C13 UNL     1      34.198 -32.398   0.592  1.00  0.00     0.007 C
HETATM    3  C14 UNL     1      33.789 -33.643   1.352  1.00  0.00     0.001 C
HETATM    4  C15 UNL     1      33.269 -34.755   0.530  1.00  0.00     0.001 C
HETATM    5  C16 UNL     1      32.918 -34.518  -0.881  1.00  0.00     0.011 C
HETATM    6  C17 UNL     1      33.488 -33.246  -1.526  1.00  0.00     0.050 C
ENDROOT
BRANCH   1   7
HETATM    7  C5  UNL     1      32.886 -30.809  -0.823  1.00  0.00     0.098 C
BRANCH   7   8
HETATM    8  C2  UNL     1      32.103 -29.961   0.082  1.00  0.00    -0.030 C
HETATM    9  C1  UNL     1      31.245 -29.059  -0.879  1.00  0.00     0.016 C
HETATM   10  C3  UNL     1      32.933 -28.917   0.821  1.00  0.00     0.016 C
HETATM   11  C4  UNL     1      31.076 -30.524   0.993  1.00  0.00     0.016 C
ENDBRANCH   7   8
BRANCH   7  12
HETATM   12  N1  UNL     1      34.243 -30.169  -0.822  1.00  0.00    -0.337 N
HETATM   13  C6  UNL     1      34.751 -29.447  -1.906  1.00  0.00     0.316 C
HETATM   14  O1  UNL     1      34.041 -29.324  -2.947  1.00  0.00    -0.247 OA
HETATM   15  N2  UNL     1      36.021 -28.834  -1.930  1.00  0.00    -0.339 N
ATOM     16  H2  UNL     1      36.611 -28.918  -1.102  1.00  0.00     0.164 HD
ATOM     17  H1  UNL     1      34.823 -30.265   0.011  1.00  0.00     0.164 HD
BRANCH  15  18
HETATM   18  C7  UNL     1      36.527 -28.099  -3.048  1.00  0.00     0.086 C
HETATM   19  C8  UNL     1      38.031 -27.990  -3.053  1.00  0.00     0.025 C
HETATM   20  C9  UNL     1      38.337 -26.715  -3.795  1.00  0.00     0.002 C
HETATM   21  C10 UNL     1      37.086 -25.899  -3.839  1.00  0.00     0.002 C
HETATM   22  C11 UNL     1      35.989 -26.708  -3.183  1.00  0.00     0.025 C
ENDBRANCH  15  18
ENDBRANCH   7  12
ENDBRANCH   1   7
BRANCH   6  23
HETATM   23  C18 UNL     1      34.737 -33.384  -2.220  1.00  0.00     0.064 C
BRANCH  23  24
HETATM   24  O2  UNL     1      34.961 -34.737  -2.684  1.00  0.00    -0.363 OA
ATOM     25  H2  UNL     1      34.148 -35.200  -2.851  1.00  0.00     0.217 HD
ENDBRANCH  23  24
BRANCH  23  26
HETATM   26  C19 UNL     1      35.354 -32.607  -3.292  1.00  0.00     0.140 C
BRANCH  26  27
HETATM   27  N3  UNL     1      36.694 -32.719  -3.651  1.00  0.00    -0.263 N
BRANCH  27  28
HETATM   28  C20 UNL     1      37.613 -31.730  -3.272  1.00  0.00     0.086 C
BRANCH  28  29
HETATM   29  C21 UNL     1      38.673 -32.008  -2.294  1.00  0.00     0.025 C
HETATM   30  C22 UNL     1      38.357 -33.384  -1.645  1.00  0.00     0.010 C
HETATM   31  C23 UNL     1      37.740 -33.035  -0.311  1.00  0.00     0.001 C
HETATM   32  C24 UNL     1      37.691 -31.534  -0.222  1.00  0.00     0.001 C
HETATM   33  C25 UNL     1      38.827 -31.094  -1.121  1.00  0.00     0.010 C
ENDBRANCH  28  29
ENDBRANCH  27  28
BRANCH  27  34
HETATM   34  S1  UNL     1      37.044 -33.446  -5.162  1.00  0.00     0.232 S
HETATM   35  C26 UNL     1      38.794 -33.529  -5.472  1.00  0.00     0.186 C
HETATM   36  O3  UNL     1      36.420 -32.750  -6.330  1.00  0.00    -0.206 OA
HETATM   37  O4  UNL     1      36.518 -34.854  -5.157  1.00  0.00    -0.206 OA
ENDBRANCH  27  34
ENDBRANCH  26  27
ENDBRANCH  23  26
ENDBRANCH   6  23
TORSDOF 11
ENDMDL