MODEL 5
REMARK VINA RESULT: -7.297728835      3.636      7.855
REMARK  10 active torsions:
REMARK  status: ('A' for Active; 'I' for Inactive)
REMARK    1  A    between atoms: C2_2  and  C3_3
REMARK    2  A    between atoms: C3_3  and  N1_5
REMARK    3  A    between atoms: C7_8  and  C8_9
REMARK    4  A    between atoms: C8_9  and  C9_10
REMARK    5  A    between atoms: C12_13  and  N2_14
REMARK    6  A    between atoms: N2_14  and  S1_16
REMARK    7  A    between atoms: C15_21  and  C16_22
REMARK    8  A    between atoms: C15_21  and  C24_30
REMARK    9  A    between atoms: C16_22  and  C17_23
REMARK   10  A    between atoms: C17_23  and  C18_24
REMARK       I    between atoms: C24_30  and  N3_32
ROOT
HETATM    1  C9  UNL     1      32.232 -32.395   0.542  1.00  0.00     0.004 C
HETATM    2  C10 UNL     1      30.846 -32.778   0.985  1.00  0.00     0.008 C
HETATM    3  C11 UNL     1      30.662 -34.185   1.436  1.00  0.00     0.026 C
HETATM    4  C12 UNL     1      31.732 -34.785   2.271  1.00  0.00     0.094 C
HETATM    5  C14 UNL     1      32.961 -33.951   2.262  1.00  0.00     0.045 C
HETATM    6  C15 UNL     1      33.278 -33.363   0.920  1.00  0.00     0.046 C
ENDROOT
BRANCH   6   7
HETATM    7  C16 UNL     1      34.691 -32.827   0.949  1.00  0.00     0.020 C
BRANCH   7   8
HETATM    8  C17 UNL     1      35.643 -33.682   0.147  1.00  0.00     0.006 C
BRANCH   8   9
HETATM    9  C18 UNL     1      36.589 -32.803  -0.646  1.00  0.00    -0.014 C
HETATM   10  C19 UNL     1      36.783 -33.201  -2.062  1.00  0.00     0.004 C
HETATM   11  C20 UNL     1      35.603 -32.911  -2.949  1.00  0.00     0.000 C
HETATM   12  C21 UNL     1      34.812 -31.722  -2.507  1.00  0.00     0.000 C
HETATM   13  C22 UNL     1      35.725 -30.764  -1.820  1.00  0.00     0.000 C
HETATM   14  C23 UNL     1      36.199 -31.340  -0.507  1.00  0.00     0.004 C
ENDBRANCH   8   9
ENDBRANCH   7   8
ENDBRANCH   6   7
BRANCH   6  15
HETATM   15  C24 UNL     1      33.299 -34.489  -0.087  1.00  0.00     0.226 C
HETATM   16  O3  UNL     1      33.857 -35.567   0.225  1.00  0.00    -0.273 OA
HETATM   17  N3  UNL     1      32.686 -34.307  -1.365  1.00  0.00    -0.365 N
HETATM   18  C25 UNL     1      32.714 -35.390  -2.304  1.00  0.00     0.149 C
ATOM     19  H3  UNL     1      32.235 -33.424  -1.603  1.00  0.00     0.161 HD
ENDBRANCH   6  15
BRANCH   1  20
HETATM   20  C8  UNL     1      32.513 -31.029   1.153  1.00  0.00     0.011 C
BRANCH  20  21
HETATM   21  C7  UNL     1      32.876 -29.992   0.147  1.00  0.00     0.003 C
HETATM   22  C6  UNL     1      31.543 -29.398  -0.343  1.00  0.00     0.022 C
HETATM   23  C5  UNL     1      31.806 -28.036  -0.985  1.00  0.00     0.110 C
HETATM   24  N1  UNL     1      33.170 -28.088  -1.470  1.00  0.00    -0.231 NA
HETATM   25  N4  UNL     1      34.023 -27.979  -0.392  1.00  0.00    -0.164 NA
HETATM   26  C26 UNL     1      33.626 -28.810   0.728  1.00  0.00     0.133 C
BRANCH  24  27
HETATM   27  C3  UNL     1      33.447 -27.161  -2.520  1.00  0.00     0.071 C
HETATM   28  C4  UNL     1      34.855 -26.606  -2.263  1.00  0.00     0.027 C
BRANCH  27  29
HETATM   29  C2  UNL     1      33.488 -27.789  -3.882  1.00  0.00     0.016 C
HETATM   30  C1  UNL     1      34.507 -27.039  -4.743  1.00  0.00     0.006 C
ENDBRANCH  27  29
ENDBRANCH  24  27
ENDBRANCH  20  21
ENDBRANCH   1  20
BRANCH   4  31
HETATM   31  N2  UNL     1      31.326 -34.895   3.682  1.00  0.00    -0.315 N
ATOM     32  H2  UNL     1      31.149 -34.100   4.296  1.00  0.00     0.172 HD
BRANCH  31  33
HETATM   33  S1  UNL     1      31.190 -36.562   4.162  1.00  0.00     0.223 S
HETATM   34  C13 UNL     1      31.895 -37.632   2.934  1.00  0.00     0.185 C
HETATM   35  O1  UNL     1      31.989 -36.794   5.437  1.00  0.00    -0.206 OA
HETATM   36  O2  UNL     1      29.774 -36.905   4.482  1.00  0.00    -0.206 OA
ENDBRANCH  31  33
ENDBRANCH   4  31
TORSDOF 10
ENDMDL