MODEL 3
REMARK VINA RESULT: -7.733807527      1.354      1.716
REMARK  11 active torsions:
REMARK  status: ('A' for Active; 'I' for Inactive)
REMARK    1  A    between atoms: C5_5  and  C6_6
REMARK    2  A    between atoms: C6_6  and  N1_7
REMARK       I    between atoms: N1_7  and  C7_9
REMARK    3  A    between atoms: C7_9  and  C8_11
REMARK    4  A    between atoms: C8_11  and  C9_12
REMARK    5  A    between atoms: C8_11  and  N2_16
REMARK    6  A    between atoms: C9_12  and  C10_13
REMARK    7  A    between atoms: N2_16  and  C13_18
REMARK    8  A    between atoms: C13_18  and  C14_20
REMARK    9  A    between atoms: N3_23  and  C17_24
REMARK   10  A    between atoms: C17_24  and  C18_25
REMARK       I    between atoms: C18_25  and  N4_27
REMARK   11  A    between atoms: N4_27  and  C19_29
ROOT
HETATM    1  N2  UNL     1      33.048 -35.239   0.302  1.00  0.00    -0.371 N
ATOM      2  H2  UNL     1      32.340 -35.749  -0.224  1.00  0.00     0.161 HD
ENDROOT
BRANCH   1   3
HETATM    3  C8  UNL     1      32.692 -34.734   1.639  1.00  0.00     0.174 C
BRANCH   3   4
HETATM    4  C7  UNL     1      31.949 -33.430   1.405  1.00  0.00     0.240 C
HETATM    5  N1  UNL     1      32.471 -32.176   1.697  1.00  0.00    -0.359 N
ATOM      6  H1  UNL     1      33.406 -32.192   2.105  1.00  0.00     0.162 HD
HETATM    7  O1  UNL     1      30.775 -33.515   0.904  1.00  0.00    -0.271 OA
BRANCH   5   8
HETATM    8  C6  UNL     1      31.929 -30.882   1.526  1.00  0.00     0.127 C
BRANCH   8   9
HETATM    9  C5  UNL     1      32.421 -30.098   0.396  1.00  0.00     0.003 C
HETATM   10  C4  UNL     1      33.410 -29.042   0.889  1.00  0.00     0.006 C
HETATM   11  C3  UNL     1      34.329 -28.700  -0.238  1.00  0.00     0.005 C
HETATM   12  C2  UNL     1      33.585 -28.495  -1.516  1.00  0.00    -0.019 C
HETATM   13  C1  UNL     1      32.724 -27.247  -1.379  1.00  0.00     0.010 C
HETATM   14  C28 UNL     1      32.785 -29.691  -1.963  1.00  0.00     0.005 C
HETATM   15  C27 UNL     1      32.925 -30.743  -0.834  1.00  0.00     0.006 C
ENDBRANCH   8   9
ENDBRANCH   5   8
ENDBRANCH   3   4
BRANCH   3  16
HETATM   16  C9  UNL     1      31.779 -35.723   2.282  1.00  0.00     0.039 C
BRANCH  16  17
HETATM   17  C10 UNL     1      31.407 -35.626   3.681  1.00  0.00    -0.012 A
HETATM   18  C11 UNL     1      31.347 -36.710   4.669  1.00  0.00     0.005 A
HETATM   19  C12 UNL     1      30.050 -36.246   4.078  1.00  0.00     0.005 A
ENDBRANCH  16  17
ENDBRANCH   3  16
ENDBRANCH   1   3
BRANCH   1  20
HETATM   20  C13 UNL     1      34.320 -35.056  -0.294  1.00  0.00     0.078 C
HETATM   21  S1  UNL     1      35.240 -36.349  -0.636  1.00  0.00    -0.065 SA
BRANCH  20  22
HETATM   22  C14 UNL     1      34.844 -33.681  -0.590  1.00  0.00     0.050 C
HETATM   23  C15 UNL     1      35.442 -33.600  -1.955  1.00  0.00     0.042 C
HETATM   24  C16 UNL     1      36.736 -32.802  -1.973  1.00  0.00     0.273 C
HETATM   25  N3  UNL     1      36.657 -31.613  -1.195  1.00  0.00     0.097 N
HETATM   26  C25 UNL     1      36.268 -31.865   0.181  1.00  0.00     0.273 C
HETATM   27  C26 UNL     1      35.896 -33.292   0.430  1.00  0.00     0.042 C
BRANCH  25  28
HETATM   28  C17 UNL     1      37.797 -30.768  -1.203  1.00  0.00     0.374 C
BRANCH  28  29
HETATM   29  C18 UNL     1      38.001 -29.966  -2.419  1.00  0.00     0.246 C
HETATM   30  O2  UNL     1      38.885 -30.238  -3.291  1.00  0.00    -0.272 OA
HETATM   31  N4  UNL     1      37.155 -28.839  -2.601  1.00  0.00    -0.355 N
ATOM     32  H4  UNL     1      36.441 -28.609  -1.909  1.00  0.00     0.162 HD
BRANCH  31  33
HETATM   33  C19 UNL     1      37.320 -28.025  -3.775  1.00  0.00     0.084 C
HETATM   34  C20 UNL     1      36.307 -28.462  -4.810  1.00  0.00     0.025 C
HETATM   35  C21 UNL     1      34.923 -28.002  -4.489  1.00  0.00     0.002 C
HETATM   36  C22 UNL     1      34.926 -26.489  -4.441  1.00  0.00     0.000 C
HETATM   37  C23 UNL     1      35.832 -26.059  -3.320  1.00  0.00     0.002 C
HETATM   38  C24 UNL     1      37.246 -26.552  -3.489  1.00  0.00     0.025 C
ENDBRANCH  31  33
ENDBRANCH  28  29
ENDBRANCH  25  28
ENDBRANCH  20  22
ENDBRANCH   1  20
TORSDOF 11
ENDMDL