MODEL 2
REMARK VINA RESULT: -7.979858035      2.036      4.158
REMARK  10 active torsions:
REMARK  status: ('A' for Active; 'I' for Inactive)
REMARK       I    between atoms: C1_2  and  N1_3
REMARK       I    between atoms: C1_2  and  N4_26
REMARK    1  A    between atoms: N1_3  and  C2_5
REMARK    2  A    between atoms: C2_5  and  C3_6
REMARK    3  A    between atoms: C3_6  and  C4_7
REMARK    4  A    between atoms: C4_7  and  C5_8
REMARK    5  A    between atoms: C5_8  and  C6_9
REMARK    6  A    between atoms: C6_9  and  N2_10
REMARK    7  A    between atoms: C6_9  and  N3_20
REMARK    8  A    between atoms: N2_10  and  S1_12
REMARK    9  A    between atoms: S1_12  and  C7_15
REMARK   10  A    between atoms: N4_26  and  C17_28
ROOT
HETATM    1  C4  UNL     1      31.460 -30.376   1.292  1.00  0.00     0.005 C
ENDROOT
BRANCH   1   2
HETATM    2  C3  UNL     1      30.428 -29.334   0.908  1.00  0.00     0.020 C
BRANCH   2   3
HETATM    3  C2  UNL     1      30.949 -28.400  -0.113  1.00  0.00     0.124 C
BRANCH   3   4
HETATM    4  N1  UNL     1      31.972 -29.035  -0.906  1.00  0.00    -0.343 N
HETATM    5  C1  UNL     1      32.821 -28.275  -1.735  1.00  0.00     0.316 C
HETATM    6  O1  UNL     1      32.767 -27.028  -1.835  1.00  0.00    -0.247 OA
HETATM    7  N4  UNL     1      33.806 -28.943  -2.514  1.00  0.00    -0.334 N
ATOM      8  H4  UNL     1      33.866 -29.959  -2.446  1.00  0.00     0.165 HD
ATOM      9  H1  UNL     1      32.082 -30.049  -0.867  1.00  0.00     0.164 HD
BRANCH   7  10
HETATM   10  C17 UNL     1      34.717 -28.264  -3.389  1.00  0.00     0.035 C
HETATM   11  C18 UNL     1      35.814 -29.280  -3.716  1.00  0.00     0.035 C
HETATM   12  C19 UNL     1      36.850 -28.691  -4.605  1.00  0.00    -0.012 C
HETATM   13  C20 UNL     1      36.182 -28.277  -5.900  1.00  0.00     0.009 C
HETATM   14  C24 UNL     1      37.463 -27.491  -3.964  1.00  0.00     0.009 C
HETATM   15  C21 UNL     1      35.127 -27.260  -5.609  1.00  0.00    -0.012 C
HETATM   16  C22 UNL     1      35.695 -26.034  -4.928  1.00  0.00     0.009 C
HETATM   17  C26 UNL     1      34.057 -27.811  -4.665  1.00  0.00     0.035 C
HETATM   18  C23 UNL     1      36.385 -26.477  -3.680  1.00  0.00    -0.012 C
HETATM   19  C25 UNL     1      35.384 -27.098  -2.721  1.00  0.00     0.035 C
ENDBRANCH   7  10
ENDBRANCH   3   4
ENDBRANCH   2   3
ENDBRANCH   1   2
BRANCH   1  20
HETATM   20  C5  UNL     1      30.938 -31.759   1.197  1.00  0.00     0.048 C
BRANCH  20  21
HETATM   21  C6  UNL     1      31.937 -32.814   0.821  1.00  0.00     0.197 C
BRANCH  21  22
HETATM   22  N2  UNL     1      33.262 -32.301   1.000  1.00  0.00    -0.297 N
ATOM     23  H2  UNL     1      33.670 -32.137   1.920  1.00  0.00     0.174 HD
BRANCH  22  24
HETATM   24  S1  UNL     1      34.102 -31.986  -0.451  1.00  0.00     0.232 S
HETATM   25  O2  UNL     1      34.829 -30.680  -0.305  1.00  0.00    -0.206 OA
HETATM   26  O3  UNL     1      33.050 -31.763  -1.530  1.00  0.00    -0.206 OA
BRANCH  24  27
HETATM   27  C7  UNL     1      35.147 -33.278  -1.004  1.00  0.00     0.129 C
HETATM   28  C8  UNL     1      34.411 -33.975  -2.157  1.00  0.00     0.022 C
HETATM   29  C9  UNL     1      33.658 -35.102  -1.534  1.00  0.00     0.001 C
HETATM   30  C10 UNL     1      34.527 -35.545  -0.382  1.00  0.00     0.001 C
HETATM   31  C11 UNL     1      35.339 -34.359   0.035  1.00  0.00     0.022 C
ENDBRANCH  24  27
ENDBRANCH  22  24
ENDBRANCH  21  22
BRANCH  21  32
HETATM   32  N3  UNL     1      31.723 -34.072   1.428  1.00  0.00    -0.352 N
HETATM   33  C12 UNL     1      30.423 -34.600   1.335  1.00  0.00     0.065 C
HETATM   34  C13 UNL     1      30.395 -36.107   1.281  1.00  0.00     0.045 C
HETATM   35  C14 UNL     1      31.413 -36.641   2.252  1.00  0.00     0.010 C
HETATM   36  C15 UNL     1      31.864 -35.583   3.265  1.00  0.00     0.045 C
HETATM   37  C16 UNL     1      32.565 -34.485   2.473  1.00  0.00     0.065 C
ENDBRANCH  21  32
ENDBRANCH  20  21
ENDBRANCH   1  20
TORSDOF 10
ENDMDL