MODEL 2
REMARK VINA RESULT: -8.396398297      0.114      1.209
REMARK  10 active torsions:
REMARK  status: ('A' for Active; 'I' for Inactive)
REMARK    1  A    between atoms: C3_3  and  C6_6
REMARK    2  A    between atoms: C6_6  and  C7_7
REMARK    3  A    between atoms: C7_7  and  C8_8
REMARK    4  A    between atoms: C7_7  and  C19_25
REMARK       I    between atoms: C8_8  and  N1_10
REMARK    5  A    between atoms: N1_10  and  C9_12
REMARK    6  A    between atoms: C9_12  and  C10_13
REMARK    7  A    between atoms: C9_12  and  C17_20
REMARK    8  A    between atoms: C10_13  and  C11_14
REMARK    9  A    between atoms: C17_20  and  C18_22
REMARK       I    between atoms: C19_25  and  N3_27
REMARK   10  A    between atoms: N3_27  and  C20_29
ROOT
HETATM    1  C1  UNL     1      36.024 -36.161  -1.306  1.00  0.00     0.013 C
HETATM    2  C2  UNL     1      36.242 -35.271  -2.092  1.00  0.00    -0.108 C
HETATM    3  C3  UNL     1      36.496 -34.178  -3.086  1.00  0.00     0.017 C
HETATM    4  C4  UNL     1      37.702 -33.458  -2.531  1.00  0.00     0.029 C
HETATM    5  C5  UNL     1      36.820 -34.897  -4.372  1.00  0.00     0.029 C
ENDROOT
BRANCH   3   6
HETATM    6  C6  UNL     1      35.305 -33.350  -3.101  1.00  0.00     0.045 C
BRANCH   6   7
HETATM    7  C7  UNL     1      34.822 -32.584  -1.954  1.00  0.00     0.171 C
BRANCH   7   8
HETATM    8  C8  UNL     1      33.569 -32.948  -1.301  1.00  0.00     0.231 C
HETATM    9  O1  UNL     1      32.755 -33.824  -1.688  1.00  0.00    -0.273 OA
HETATM   10  N1  UNL     1      33.183 -32.269  -0.109  1.00  0.00    -0.348 N
ATOM     11  H1  UNL     1      33.799 -31.544   0.259  1.00  0.00     0.163 HD
BRANCH  10  12
HETATM   12  C9  UNL     1      31.936 -32.565   0.617  1.00  0.00     0.164 C
BRANCH  12  13
HETATM   13  C10 UNL     1      31.654 -31.316   1.429  1.00  0.00     0.038 C
BRANCH  13  14
HETATM   14  C11 UNL     1      31.766 -30.091   0.625  1.00  0.00    -0.012 C
HETATM   15  C12 UNL     1      33.002 -29.255   0.906  1.00  0.00     0.005 C
HETATM   16  C13 UNL     1      33.155 -28.313  -0.236  1.00  0.00     0.000 C
HETATM   17  C14 UNL     1      31.930 -27.895  -0.928  1.00  0.00     0.000 C
HETATM   18  C15 UNL     1      30.637 -28.069  -0.229  1.00  0.00     0.000 C
HETATM   19  C16 UNL     1      30.609 -29.135   0.826  1.00  0.00     0.005 C
ENDBRANCH  13  14
ENDBRANCH  12  13
BRANCH  12  20
HETATM   20  C17 UNL     1      32.188 -33.668   1.573  1.00  0.00     0.236 C
HETATM   21  O2  UNL     1      33.367 -33.695   2.058  1.00  0.00    -0.285 OA
BRANCH  20  22
HETATM   22  C18 UNL     1      31.250 -34.679   1.986  1.00  0.00     0.302 C
HETATM   23  N2  UNL     1      31.454 -35.379   3.221  1.00  0.00    -0.054 NA
HETATM   24  O3  UNL     1      30.237 -35.021   1.349  1.00  0.00    -0.268 OA
ENDBRANCH  20  22
ENDBRANCH  12  20
ENDBRANCH  10  12
ENDBRANCH   7   8
BRANCH   7  25
HETATM   25  C19 UNL     1      34.624 -31.165  -2.445  1.00  0.00     0.231 C
HETATM   26  O4  UNL     1      33.449 -30.734  -2.487  1.00  0.00    -0.273 OA
HETATM   27  N3  UNL     1      35.722 -30.351  -2.842  1.00  0.00    -0.351 N
ATOM     28  H3  UNL     1      36.664 -30.737  -2.794  1.00  0.00     0.163 HD
BRANCH  27  29
HETATM   29  C20 UNL     1      35.546 -29.003  -3.309  1.00  0.00     0.034 C
HETATM   30  C21 UNL     1      36.051 -27.954  -2.362  1.00  0.00     0.035 C
HETATM   31  C22 UNL     1      35.822 -26.597  -3.005  1.00  0.00    -0.012 C
HETATM   32  C23 UNL     1      34.377 -26.363  -3.306  1.00  0.00     0.009 C
HETATM   33  C27 UNL     1      36.607 -26.446  -4.278  1.00  0.00     0.009 C
HETATM   34  C24 UNL     1      33.937 -27.401  -4.315  1.00  0.00    -0.012 C
HETATM   35  C25 UNL     1      34.733 -27.314  -5.582  1.00  0.00     0.009 C
HETATM   36  C29 UNL     1      34.093 -28.756  -3.660  1.00  0.00     0.035 C
HETATM   37  C26 UNL     1      36.192 -27.524  -5.242  1.00  0.00    -0.012 C
HETATM   38  C28 UNL     1      36.365 -28.855  -4.590  1.00  0.00     0.035 C
ENDBRANCH  27  29
ENDBRANCH   7  25
ENDBRANCH   6   7
ENDBRANCH   3   6
TORSDOF 10
ENDMDL