MODEL 3
REMARK VINA RESULT: -6.627371118      1.223      1.555
REMARK  10 active torsions:
REMARK  status: ('A' for Active; 'I' for Inactive)
REMARK    1  A    between atoms: C2_2  and  C4_4
REMARK    2  A    between atoms: C4_4  and  N1_5
REMARK    3  A    between atoms: C4_4  and  C13_16
REMARK       I    between atoms: N1_5  and  C5_6
REMARK       I    between atoms: C5_6  and  N2_8
REMARK    4  A    between atoms: N2_8  and  C7_10
REMARK       I    between atoms: C13_16  and  N3_18
REMARK    5  A    between atoms: N3_18  and  C14_19
REMARK    6  A    between atoms: C14_19  and  C15_20
REMARK       I    between atoms: C15_20  and  N4_22
REMARK    7  A    between atoms: N4_22  and  C16_23
REMARK    8  A    between atoms: N4_22  and  C24_33
REMARK    9  A    between atoms: C16_23  and  C17_24
REMARK   10  A    between atoms: C16_23  and  C18_27
ROOT
HETATM    1  C13 UNL     1      36.821 -29.745  -5.376  1.00  0.00     0.352 C
HETATM    2  O2  UNL     1      36.860 -29.654  -6.575  1.00  0.00    -0.248 OA
HETATM    3  N3  UNL     1      37.097 -30.891  -4.572  1.00  0.00    -0.372 NA
ENDROOT
BRANCH   3   4
HETATM    4  C14 UNL     1      37.399 -32.107  -4.067  1.00  0.00     0.260 C
BRANCH   4   5
HETATM    5  C15 UNL     1      37.229 -32.272  -2.558  1.00  0.00     0.273 C
HETATM    6  O3  UNL     1      37.257 -31.160  -1.983  1.00  0.00    -0.266 OA
HETATM    7  N4  UNL     1      37.050 -33.471  -1.906  1.00  0.00    -0.325 N
BRANCH   7   8
HETATM    8  C16 UNL     1      36.522 -33.506  -0.527  1.00  0.00     0.181 C
BRANCH   8   9
HETATM    9  C17 UNL     1      37.497 -32.916   0.451  1.00  0.00     0.254 C
HETATM   10  N5  UNL     1      38.429 -33.826   1.093  1.00  0.00    -0.060 NA
HETATM   11  O4  UNL     1      37.592 -31.736   0.764  1.00  0.00    -0.275 OA
ENDBRANCH   8   9
BRANCH   8  12
HETATM   12  C18 UNL     1      35.223 -32.778  -0.475  1.00  0.00     0.017 C
HETATM   13  C19 UNL     1      34.679 -32.558   0.880  1.00  0.00     0.007 C
HETATM   14  C20 UNL     1      33.753 -33.721   1.297  1.00  0.00     0.000 C
HETATM   15  C21 UNL     1      32.492 -33.575   0.481  1.00  0.00     0.000 C
HETATM   16  C22 UNL     1      32.824 -33.235  -0.932  1.00  0.00     0.000 C
HETATM   17  C23 UNL     1      34.204 -33.519  -1.347  1.00  0.00     0.007 C
ENDBRANCH   8  12
ENDBRANCH   7   8
BRANCH   7  18
HETATM   18  C24 UNL     1      37.475 -34.763  -2.438  1.00  0.00     0.025 C
HETATM   19  C25 UNL     1      37.129 -35.930  -1.520  1.00  0.00     0.037 C
HETATM   20  C26 UNL     1      39.023 -34.782  -2.419  1.00  0.00     0.037 C
HETATM   21  C27 UNL     1      37.002 -35.117  -3.791  1.00  0.00     0.037 C
ENDBRANCH   7  18
ENDBRANCH   4   5
ENDBRANCH   3   4
BRANCH   1  22
HETATM   22  C4  UNL     1      36.431 -28.510  -4.545  1.00  0.00     0.175 C
BRANCH  22  23
HETATM   23  C2  UNL     1      36.353 -27.314  -5.397  1.00  0.00     0.049 C
HETATM   24  C1  UNL     1      35.047 -26.854  -5.895  1.00  0.00     0.017 C
HETATM   25  C3  UNL     1      37.038 -26.130  -4.676  1.00  0.00     0.017 C
ENDBRANCH  22  23
BRANCH  22  26
HETATM   26  N1  UNL     1      35.471 -28.799  -3.626  1.00  0.00    -0.349 NA
HETATM   27  C5  UNL     1      34.524 -29.137  -2.717  1.00  0.00     0.396 C
HETATM   28  O1  UNL     1      34.167 -30.342  -2.436  1.00  0.00    -0.230 OA
HETATM   29  N2  UNL     1      33.772 -28.207  -1.942  1.00  0.00    -0.322 N
HETATM   30  C6  UNL     1      34.041 -26.796  -2.074  1.00  0.00     0.156 C
BRANCH  29  31
HETATM   31  C7  UNL     1      32.702 -28.550  -1.041  1.00  0.00     0.089 C
HETATM   32  C8  UNL     1      31.557 -27.625  -0.954  1.00  0.00     0.025 C
HETATM   33  C9  UNL     1      30.480 -28.329  -0.110  1.00  0.00     0.002 C
HETATM   34  C10 UNL     1      30.871 -29.706   0.303  1.00  0.00     0.000 C
HETATM   35  C11 UNL     1      32.205 -29.825   0.963  1.00  0.00     0.002 C
HETATM   36  C12 UNL     1      33.183 -28.812   0.377  1.00  0.00     0.025 C
ENDBRANCH  29  31
ENDBRANCH  22  26
ENDBRANCH   1  22
TORSDOF 10
ENDMDL