MODEL 2
REMARK VINA RESULT: -8.201998123      0.771      1.246
REMARK  4 active torsions:
REMARK  status: ('A' for Active; 'I' for Inactive)
REMARK    1  A    between atoms: N1_1  and  C1_4
REMARK    2  A    between atoms: C2_7  and  C3_8
REMARK    3  A    between atoms: C4_9  and  N3_10
REMARK    4  A    between atoms: C5_12  and  C6_13
ROOT
HETATM    1  C3  UNL     1       2.834  16.326  26.023  1.00  0.00     0.067 C
HETATM    2  C4  UNL     1       3.184  15.259  25.350  1.00  0.00     0.091 C
ENDROOT
BRANCH   2   3
HETATM    3  N3  UNL     1       3.388  15.271  23.974  1.00  0.00    -0.373 N
HETATM    4  C5  UNL     1       3.286  14.188  23.283  1.00  0.00     0.124 C
ATOM      5  H3  UNL     1       3.621  16.147  23.506  1.00  0.00     0.164 HD
BRANCH   4   6
HETATM    6  C6  UNL     1       2.959  12.946  23.944  1.00  0.00     0.134 A
HETATM    7  N4  UNL     1       3.527  12.265  24.933  1.00  0.00    -0.280 N
HETATM    8  N5  UNL     1       2.883  11.157  25.221  1.00  0.00    -0.239 N
ATOM      9  H4  UNL     1       4.371  12.569  25.417  1.00  0.00     0.189 HD
HETATM   10  N6  UNL     1       1.855  11.083  24.410  1.00  0.00    -0.250 N
ATOM     11  H5  UNL     1       3.135  10.480  25.940  1.00  0.00     0.208 HD
HETATM   12  C7  UNL     1       1.848  12.164  23.596  1.00  0.00     0.290 A
ATOM     13  H6  UNL     1       1.168  10.329  24.396  1.00  0.00     0.192 HD
HETATM   14  O1  UNL     1       1.016  12.431  22.696  1.00  0.00    -0.264 OA
ENDBRANCH   4   6
ENDBRANCH   2   3
BRANCH   1  15
HETATM   15  C2  UNL     1       2.591  17.660  25.554  1.00  0.00     0.137 A
HETATM   16  N2  UNL     1       2.532  18.022  24.262  1.00  0.00    -0.174 N
HETATM   17  C1  UNL     1       2.304  19.322  24.201  1.00  0.00     0.692 A
ATOM     18  H2  UNL     1       2.644  17.397  23.462  1.00  0.00     0.186 HD
HETATM   19  N8  UNL     1       2.213  19.829  25.430  1.00  0.00    -0.131 N
HETATM   20  N7  UNL     1       2.395  18.775  26.254  1.00  0.00    -0.271 N
ATOM     21  H8  UNL     1       2.043  20.800  25.691  1.00  0.00     0.205 HD
ATOM     22  H7  UNL     1       2.384  18.826  27.272  1.00  0.00     0.189 HD
BRANCH  17  23
HETATM   23  N1  UNL     1       2.185  20.021  23.108  1.00  0.00    -0.233 N
ATOM     24  H12 UNL     1       2.643  19.791  22.227  1.00  0.00     0.174 HD
ATOM     25  H11 UNL     1       1.628  20.868  23.003  1.00  0.00     0.174 HD
ENDBRANCH  17  23
ENDBRANCH   1  15
TORSDOF 4
ENDMDL