MODEL 3
REMARK VINA RESULT: -5.813612861      1.257      4.299
REMARK  6 active torsions:
REMARK  status: ('A' for Active; 'I' for Inactive)
REMARK    1  A    between atoms: N1_2  and  C2_3
REMARK    2  A    between atoms: N1_2  and  C4_9
REMARK    3  A    between atoms: C2_3  and  C3_4
REMARK    4  A    between atoms: C3_4  and  N2_5
REMARK    5  A    between atoms: C5_12  and  N4_13
REMARK    6  A    between atoms: C6_18  and  N6_19
ROOT
HETATM    1  C4  UNL     1       3.104  14.035  23.900  1.00  0.00     0.143 A
HETATM    2  N3  UNL     1       3.329  15.129  23.101  1.00  0.00    -0.175 N
ATOM      3  H3  UNL     1       3.491  14.962  22.107  1.00  0.00     0.186 HD
HETATM    4  C5  UNL     1       3.350  16.386  23.525  1.00  0.00     0.679 A
HETATM    5  N5  UNL     1       3.142  16.645  24.821  1.00  0.00    -0.176 N
ATOM      6  H5  UNL     1       3.155  17.604  25.170  1.00  0.00     0.186 HD
HETATM    7  C6  UNL     1       2.914  15.605  25.665  1.00  0.00     0.139 A
HETATM    8  C7  UNL     1       2.892  14.283  25.214  1.00  0.00     0.133 A
HETATM    9  C8  UNL     1       2.653  13.261  26.181  1.00  0.00     0.107 C
HETATM   10  N7  UNL     1       2.460  12.457  26.981  1.00  0.00    -0.191 NA
ENDROOT
BRANCH   1  11
HETATM   11  N1  UNL     1       3.118  12.765  23.292  1.00  0.00    -0.368 N
HETATM   12  C1  UNL     1       3.186  12.778  21.823  1.00  0.00     0.151 C
BRANCH  11  13
HETATM   13  C2  UNL     1       2.952  11.521  23.941  1.00  0.00     0.151 C
BRANCH  13  14
HETATM   14  C3  UNL     1       1.705  10.757  23.566  1.00  0.00     0.249 C
BRANCH  14  15
HETATM   15  N2  UNL     1       0.865  10.761  24.764  1.00  0.00    -0.078 N
ATOM     16  H23 UNL     1       0.612   9.828  25.090  1.00  0.00     0.274 HD
ATOM     17  H22 UNL     1       1.357  11.054  25.608  1.00  0.00     0.274 HD
ATOM     18  H21 UNL     1       0.062  11.346  24.534  1.00  0.00     0.274 HD
ENDBRANCH  14  15
ENDBRANCH  13  14
ENDBRANCH  11  13
ENDBRANCH   1  11
BRANCH   7  19
HETATM   19  N6  UNL     1       2.715  15.832  26.915  1.00  0.00    -0.384 N
ATOM     20  H62 UNL     1       1.888  15.431  27.358  1.00  0.00     0.157 HD
ATOM     21  H61 UNL     1       3.382  16.401  27.437  1.00  0.00     0.157 HD
ENDBRANCH   7  19
BRANCH   4  22
HETATM   22  N4  UNL     1       3.564  17.383  22.732  1.00  0.00    -0.234 N
ATOM     23  H42 UNL     1       3.212  17.322  21.776  1.00  0.00     0.174 HD
ATOM     24  H41 UNL     1       4.069  18.219  23.027  1.00  0.00     0.174 HD
ENDBRANCH   4  22
TORSDOF 6
ENDMDL