MODEL 1
REMARK VINA RESULT: -6.473185786      0.000      0.000
REMARK  8 active torsions:
REMARK  status: ('A' for Active; 'I' for Inactive)
REMARK    1  A    between atoms: N1_1  and  C1_5
REMARK    2  A    between atoms: C1_5  and  C2_6
REMARK    3  A    between atoms: C3_7  and  C4_8
REMARK    4  A    between atoms: C4_8  and  O1_9
REMARK    5  A    between atoms: C4_8  and  N2_11
REMARK    6  A    between atoms: N2_11  and  C5_13
REMARK    7  A    between atoms: C6_16  and  N4_17
REMARK    8  A    between atoms: N4_17  and  N5_19
ROOT
HETATM    1  C5  UNL     1       2.758  17.446  23.874  1.00  0.00     0.178 A
HETATM    2  N3  UNL     1       2.685  18.709  23.460  1.00  0.00    -0.167 N
ATOM      3  H3  UNL     1       2.736  18.940  22.467  1.00  0.00     0.186 HD
HETATM    4  C6  UNL     1       2.545  19.650  24.366  1.00  0.00     0.704 A
HETATM    5  N6  UNL     1       2.486  19.274  25.647  1.00  0.00    -0.156 N
ATOM      6  H6  UNL     1       2.380  19.861  26.474  1.00  0.00     0.193 HD
HETATM    7  S1  UNL     1       2.628  17.604  25.565  1.00  0.00     0.039 SA
ENDROOT
BRANCH   1   8
HETATM    8  N2  UNL     1       2.896  16.368  23.129  1.00  0.00    -0.340 N
ATOM      9  H2  UNL     1       2.255  16.144  22.368  1.00  0.00     0.164 HD
BRANCH   8  10
HETATM   10  C4  UNL     1       4.025  15.525  23.467  1.00  0.00     0.243 C
BRANCH  10  11
HETATM   11  C3  UNL     1       3.632  14.168  23.849  1.00  0.00     0.023 C
HETATM   12  C2  UNL     1       3.237  13.897  25.077  1.00  0.00     0.000 C
BRANCH  12  13
HETATM   13  C1  UNL     1       2.828  12.519  25.500  1.00  0.00     0.257 C
BRANCH  13  14
HETATM   14  N1  UNL     1       3.499  11.564  24.645  1.00  0.00    -0.076 N
ATOM     15  H13 UNL     1       4.462  11.389  24.932  1.00  0.00     0.274 HD
ATOM     16  H12 UNL     1       3.145  10.614  24.763  1.00  0.00     0.274 HD
ATOM     17  H11 UNL     1       3.429  11.891  23.682  1.00  0.00     0.274 HD
ENDBRANCH  13  14
ENDBRANCH  12  13
ENDBRANCH  10  11
BRANCH  10  18
HETATM   18  O1  UNL     1       4.929  15.484  22.383  1.00  0.00    -0.373 OA
ATOM     19  H1  UNL     1       5.496  14.725  22.457  1.00  0.00     0.212 HD
ENDBRANCH  10  18
ENDBRANCH   8  10
ENDBRANCH   1   8
BRANCH   4  20
HETATM   20  N4  UNL     1       2.459  20.952  24.079  1.00  0.00    -0.138 N
ATOM     21  H4  UNL     1       1.776  21.519  24.582  1.00  0.00     0.205 HD
BRANCH  20  22
HETATM   22  N5  UNL     1       3.245  21.555  23.142  1.00  0.00    -0.331 N
ATOM     23  H52 UNL     1       3.432  22.551  23.255  1.00  0.00     0.177 HD
ATOM     24  H51 UNL     1       3.643  21.054  22.348  1.00  0.00     0.177 HD
ENDBRANCH  20  22
ENDBRANCH   4  20
TORSDOF 8
ENDMDL