MODEL 4
REMARK VINA RESULT: -7.619503772      1.558      6.490
REMARK  5 active torsions:
REMARK  status: ('A' for Active; 'I' for Inactive)
REMARK    1  A    between atoms: C4_5  and  C5_6
REMARK    2  A    between atoms: C5_6  and  N2_7
REMARK    3  A    between atoms: N2_7  and  C6_9
REMARK    4  A    between atoms: C7_12  and  N4_13
REMARK    5  A    between atoms: C8_18  and  N6_19
ROOT
HETATM    1  C6  UNL     1       3.298  14.538  24.181  1.00  0.00     0.707 A
HETATM    2  N3  UNL     1       3.139  13.507  25.042  1.00  0.00    -0.022 N
ATOM      3  H3  UNL     1       3.136  13.676  26.048  1.00  0.00     0.203 HD
HETATM    4  C7  UNL     1       2.986  12.255  24.567  1.00  0.00     0.705 A
HETATM    5  N5  UNL     1       2.989  12.015  23.236  1.00  0.00    -0.022 N
ATOM      6  H5  UNL     1       2.872  11.060  22.897  1.00  0.00     0.203 HD
HETATM    7  C8  UNL     1       3.143  13.017  22.355  1.00  0.00     0.705 A
HETATM    8  N7  UNL     1       3.293  14.253  22.869  1.00  0.00    -0.022 N
ATOM      9  H7  UNL     1       3.412  15.027  22.215  1.00  0.00     0.203 HD
ENDROOT
BRANCH   1  10
HETATM   10  N2  UNL     1       3.440  15.712  24.669  1.00  0.00    -0.219 N
ATOM     11  H2  UNL     1       3.832  16.437  24.068  1.00  0.00     0.178 HD
BRANCH  10  12
HETATM   12  C5  UNL     1       3.079  16.070  26.014  1.00  0.00     0.196 C
BRANCH  12  13
HETATM   13  C4  UNL     1       2.569  17.472  26.016  1.00  0.00     0.045 A
HETATM   14  C3  UNL     1       2.000  18.147  27.081  1.00  0.00     0.047 A
HETATM   15  C2  UNL     1       1.664  19.424  26.665  1.00  0.00     0.111 A
HETATM   16  N1  UNL     1       2.033  19.492  25.373  1.00  0.00    -0.308 N
HETATM   17  C1  UNL     1       1.872  20.662  24.514  1.00  0.00     0.177 C
HETATM   18  N8  UNL     1       2.564  18.350  24.991  1.00  0.00    -0.302 N
ATOM     19  H8  UNL     1       2.921  18.156  24.055  1.00  0.00     0.187 HD
ENDBRANCH  12  13
ENDBRANCH  10  12
ENDBRANCH   1  10
BRANCH   4  20
HETATM   20  N4  UNL     1       2.833  11.255  25.385  1.00  0.00    -0.234 N
ATOM     21  H42 UNL     1       3.146  10.329  25.095  1.00  0.00     0.174 HD
ATOM     22  H41 UNL     1       2.407  11.399  26.302  1.00  0.00     0.174 HD
ENDBRANCH   4  20
BRANCH   7  23
HETATM   23  N6  UNL     1       3.147  12.790  21.085  1.00  0.00    -0.234 N
ATOM     24  H62 UNL     1       3.824  12.170  20.642  1.00  0.00     0.174 HD
ATOM     25  H61 UNL     1       2.461  13.229  20.472  1.00  0.00     0.174 HD
ENDBRANCH   7  23
TORSDOF 5
ENDMDL