MODEL 3
REMARK VINA RESULT: -6.646895211      1.202      5.778
REMARK  4 active torsions:
REMARK  status: ('A' for Active; 'I' for Inactive)
REMARK    1  A    between atoms: O1_2  and  C2_3
REMARK    2  A    between atoms: C4_5  and  N1_6
REMARK    3  A    between atoms: C5_13  and  C6_14
REMARK    4  A    between atoms: N4_15  and  N5_17
ROOT
HETATM    1  C2  UNL     1       3.240  13.040  24.668  1.00  0.00     0.101 A
HETATM    2  C3  UNL     1       3.232  11.844  23.978  1.00  0.00     0.088 A
HETATM    3  C4  UNL     1       3.211  11.872  22.598  1.00  0.00     0.116 A
HETATM    4  N2  UNL     1       3.199  13.073  22.006  1.00  0.00    -0.285 N
ATOM      5  H2  UNL     1       3.183  13.108  20.987  1.00  0.00     0.188 HD
HETATM    6  N3  UNL     1       3.204  14.216  22.671  1.00  0.00    -0.295 N
ATOM      7  H3  UNL     1       3.192  15.092  22.149  1.00  0.00     0.187 HD
HETATM    8  C5  UNL     1       3.225  14.258  24.020  1.00  0.00     0.098 A
ENDROOT
BRANCH   8   9
HETATM    9  C6  UNL     1       3.233  15.519  24.727  1.00  0.00     0.141 C
HETATM   10  N4  UNL     1       2.857  16.607  24.146  1.00  0.00    -0.307 N
ATOM     11  H4  UNL     1       2.554  16.568  23.174  1.00  0.00     0.186 HD
BRANCH  10  12
HETATM   12  N5  UNL     1       2.854  17.826  24.800  1.00  0.00    -0.276 N
HETATM   13  C7  UNL     1       2.335  18.906  24.370  1.00  0.00     0.215 C
HETATM   14  N6  UNL     1       1.660  19.036  23.125  1.00  0.00    -0.065 NA
HETATM   15  N7  UNL     1       2.428  20.068  25.180  1.00  0.00    -0.065 NA
ATOM     16  H5  UNL     1       3.310  17.862  25.711  1.00  0.00     0.189 HD
ENDBRANCH  10  12
ENDBRANCH   8   9
BRANCH   1  17
HETATM   17  O1  UNL     1       3.261  13.056  26.047  1.00  0.00    -0.353 OA
HETATM   18  C1  UNL     1       2.199  12.596  26.852  1.00  0.00     0.210 C
ENDBRANCH   1  17
BRANCH   3  19
HETATM   19  N1  UNL     1       3.203  10.789  21.874  1.00  0.00    -0.384 N
ATOM     20  H12 UNL     1       3.345   9.880  22.315  1.00  0.00     0.157 HD
ATOM     21  H11 UNL     1       3.057  10.804  20.864  1.00  0.00     0.157 HD
ENDBRANCH   3  19
TORSDOF 4
ENDMDL