MODEL 1
REMARK VINA RESULT: -7.083306889      0.000      0.000
REMARK  7 active torsions:
REMARK  status: ('A' for Active; 'I' for Inactive)
REMARK    1  A    between atoms: C2_2  and  N1_3
REMARK    2  A    between atoms: N1_3  and  C3_5
REMARK    3  A    between atoms: C4_8  and  N3_9
REMARK    4  A    between atoms: C5_14  and  N5_15
REMARK    5  A    between atoms: N5_15  and  C6_17
REMARK    6  A    between atoms: C6_17  and  C7_18
REMARK    7  A    between atoms: C7_18  and  O1_20
ROOT
HETATM    1  C3  UNL     1       2.557  18.102  23.789  1.00  0.00     0.711 A
HETATM    2  N2  UNL     1       2.616  18.109  25.132  1.00  0.00    -0.021 N
ATOM      3  H2  UNL     1       2.397  18.966  25.640  1.00  0.00     0.203 HD
HETATM    4  C4  UNL     1       2.961  16.995  25.819  1.00  0.00     0.705 A
HETATM    5  N4  UNL     1       3.254  15.851  25.161  1.00  0.00    -0.022 N
ATOM      6  H4  UNL     1       3.515  15.006  25.670  1.00  0.00     0.203 HD
HETATM    7  C5  UNL     1       3.191  15.858  23.828  1.00  0.00     0.707 A
HETATM    8  N6  UNL     1       2.845  16.974  23.132  1.00  0.00    -0.021 N
ATOM      9  H6  UNL     1       2.806  16.950  22.113  1.00  0.00     0.203 HD
ENDROOT
BRANCH   7  10
HETATM   10  N5  UNL     1       3.453  14.816  23.147  1.00  0.00    -0.223 N
ATOM     11  H5  UNL     1       3.971  14.973  22.282  1.00  0.00     0.177 HD
BRANCH  10  12
HETATM   12  C6  UNL     1       3.119  13.457  23.431  1.00  0.00     0.169 C
BRANCH  12  13
HETATM   13  C7  UNL     1       2.724  12.798  22.102  1.00  0.00     0.132 C
HETATM   14  C8  UNL     1       2.770  11.308  22.336  1.00  0.00     0.041 C
BRANCH  13  15
HETATM   15  O1  UNL     1       1.480  13.268  21.765  1.00  0.00    -0.394 OA
ATOM     16  H1  UNL     1       1.301  12.987  20.876  1.00  0.00     0.210 HD
ENDBRANCH  13  15
ENDBRANCH  12  13
ENDBRANCH  10  12
ENDBRANCH   7  10
BRANCH   4  17
HETATM   17  N3  UNL     1       3.010  17.024  27.091  1.00  0.00    -0.234 N
ATOM     18  H32 UNL     1       3.853  16.711  27.573  1.00  0.00     0.174 HD
ATOM     19  H31 UNL     1       2.208  17.361  27.624  1.00  0.00     0.174 HD
ENDBRANCH   4  17
BRANCH   1  20
HETATM   20  N1  UNL     1       2.223  19.181  23.129  1.00  0.00    -0.202 N
ATOM     21  H1  UNL     1       2.027  19.132  22.129  1.00  0.00     0.183 HD
BRANCH  20  22
HETATM   22  C2  UNL     1       2.137  20.412  23.812  1.00  0.00     0.096 C
HETATM   23  C1  UNL     1       1.073  20.774  24.501  1.00  0.00     0.030 C
ENDBRANCH  20  22
ENDBRANCH   1  20
TORSDOF 7
ENDMDL