MODEL 2
REMARK VINA RESULT: -6.005025843      1.672      5.139
REMARK  6 active torsions:
REMARK  status: ('A' for Active; 'I' for Inactive)
REMARK    1  A    between atoms: C3_5  and  N2_6
REMARK    2  A    between atoms: C4_11  and  N4_12
REMARK    3  A    between atoms: N4_12  and  C5_14
REMARK    4  A    between atoms: C5_14  and  C6_15
REMARK    5  A    between atoms: C6_15  and  N5_16
REMARK    6  A    between atoms: N5_16  and  N6_17
ROOT
HETATM    1  C1  UNL     1       2.794  13.557  26.578  1.00  0.00     0.070 C
HETATM    2  C2  UNL     1       2.971  14.185  25.232  1.00  0.00     0.047 A
HETATM    3  N1  UNL     1       3.095  13.389  24.166  1.00  0.00    -0.195 N
ATOM      4  H1  UNL     1       3.070  12.375  24.272  1.00  0.00     0.184 HD
HETATM    5  C3  UNL     1       3.255  13.945  22.946  1.00  0.00     0.677 A
HETATM    6  N3  UNL     1       3.291  15.276  22.799  1.00  0.00    -0.176 N
ATOM      7  H3  UNL     1       3.413  15.652  21.859  1.00  0.00     0.186 HD
HETATM    8  C4  UNL     1       3.172  16.161  23.837  1.00  0.00     0.139 A
HETATM    9  C7  UNL     1       3.009  15.569  25.072  1.00  0.00     0.111 A
HETATM   10  C8  UNL     1       2.868  16.332  26.274  1.00  0.00     0.105 C
HETATM   11  N7  UNL     1       2.750  16.929  27.263  1.00  0.00    -0.191 NA
ENDROOT
BRANCH   8  12
HETATM   12  N4  UNL     1       3.214  17.396  23.625  1.00  0.00    -0.373 N
ATOM     13  H4  UNL     1       4.168  17.751  23.684  1.00  0.00     0.161 HD
BRANCH  12  14
HETATM   14  C5  UNL     1       2.312  18.411  23.330  1.00  0.00     0.139 C
BRANCH  14  15
HETATM   15  C6  UNL     1       2.120  19.389  24.495  1.00  0.00     0.153 C
BRANCH  15  16
HETATM   16  N5  UNL     1       1.884  20.720  23.990  1.00  0.00    -0.147 NA
BRANCH  16  17
HETATM   17  N6  UNL     1       2.957  21.201  23.244  1.00  0.00    -0.348 N
ATOM     18  H62 UNL     1       3.224  20.810  22.341  1.00  0.00     0.172 HD
ATOM     19  H61 UNL     1       3.432  21.978  23.704  1.00  0.00     0.172 HD
ENDBRANCH  16  17
ENDBRANCH  15  16
ENDBRANCH  14  15
ENDBRANCH  12  14
ENDBRANCH   8  12
BRANCH   5  20
HETATM   20  N2  UNL     1       3.369  13.138  21.945  1.00  0.00    -0.234 N
ATOM     21  H22 UNL     1       4.155  13.185  21.296  1.00  0.00     0.174 HD
ATOM     22  H21 UNL     1       2.633  12.442  21.826  1.00  0.00     0.174 HD
ENDBRANCH   5  20
TORSDOF 6
ENDMDL