MODEL 1
REMARK VINA RESULT: -6.831140255      0.000      0.000
REMARK  6 active torsions:
REMARK  status: ('A' for Active; 'I' for Inactive)
REMARK    1  A    between atoms: O1_2  and  C2_3
REMARK    2  A    between atoms: C2_3  and  N1_4
REMARK    3  A    between atoms: C2_3  and  C3_8
REMARK    4  A    between atoms: C3_8  and  C4_9
REMARK    5  A    between atoms: C5_12  and  N3_13
REMARK    6  A    between atoms: C10_22  and  N5_23
ROOT
HETATM    1  C4  UNL     1       3.441  14.502  24.052  1.00  0.00     0.039 A
HETATM    2  N2  UNL     1       3.585  14.275  22.706  1.00  0.00    -0.195 N
ATOM      3  H2  UNL     1       4.031  14.989  22.131  1.00  0.00     0.184 HD
HETATM    4  C5  UNL     1       3.157  13.145  22.121  1.00  0.00     0.676 A
HETATM    5  N4  UNL     1       2.563  12.186  22.855  1.00  0.00    -0.190 N
ATOM      6  H4  UNL     1       2.243  11.332  22.399  1.00  0.00     0.184 HD
HETATM    7  C6  UNL     1       2.385  12.333  24.174  1.00  0.00     0.079 A
HETATM    8  C7  UNL     1       2.834  13.518  24.778  1.00  0.00    -0.005 A
HETATM    9  C8  UNL     1       2.447  13.436  26.206  1.00  0.00     0.049 C
HETATM   10  C9  UNL     1       2.213  11.957  26.492  1.00  0.00     0.063 C
HETATM   11  C10 UNL     1       1.783  11.464  25.181  1.00  0.00     0.031 C
ENDROOT
BRANCH   1  12
HETATM   12  C3  UNL     1       3.999  15.744  24.616  1.00  0.00     0.119 C
BRANCH  12  13
HETATM   13  C2  UNL     1       2.972  16.736  25.007  1.00  0.00     0.323 C
BRANCH  13  14
HETATM   14  O1  UNL     1       2.896  17.824  24.208  1.00  0.00    -0.364 OA
HETATM   15  C1  UNL     1       2.257  18.867  24.850  1.00  0.00     0.204 C
ENDBRANCH  13  14
BRANCH  13  16
HETATM   16  N1  UNL     1       3.158  17.094  26.412  1.00  0.00    -0.053 N
ATOM     17  H13 UNL     1       4.030  17.604  26.551  1.00  0.00     0.277 HD
ATOM     18  H12 UNL     1       2.500  17.819  26.698  1.00  0.00     0.277 HD
ATOM     19  H11 UNL     1       3.103  16.283  27.028  1.00  0.00     0.277 HD
ENDBRANCH  13  16
ENDBRANCH  12  13
ENDBRANCH   1  12
BRANCH   4  20
HETATM   20  N3  UNL     1       3.297  12.942  20.852  1.00  0.00    -0.234 N
ATOM     21  H32 UNL     1       4.088  12.378  20.541  1.00  0.00     0.174 HD
ATOM     22  H31 UNL     1       2.643  13.328  20.171  1.00  0.00     0.174 HD
ENDBRANCH   4  20
BRANCH  11  23
HETATM   23  N5  UNL     1       1.014  10.453  24.881  1.00  0.00    -0.401 N
ATOM     24  H52 UNL     1       0.317  10.361  24.142  1.00  0.00     0.156 HD
ATOM     25  H51 UNL     1       1.029   9.572  25.394  1.00  0.00     0.156 HD
ENDBRANCH  11  23
TORSDOF 6
ENDMDL