MODEL 1
REMARK VINA RESULT: -7.332374595      0.000      0.000
REMARK  4 active torsions:
REMARK  status: ('A' for Active; 'I' for Inactive)
REMARK    1  A    between atoms: C3_5  and  N2_6
REMARK    2  A    between atoms: C4_11  and  N4_12
REMARK    3  A    between atoms: C5_15  and  C6_16
REMARK    4  A    between atoms: C6_16  and  N5_17
ROOT
HETATM    1  C1  UNL     1       2.668  13.725  26.990  1.00  0.00     0.070 C
HETATM    2  C2  UNL     1       2.902  14.664  25.869  1.00  0.00     0.038 A
HETATM    3  N1  UNL     1       2.706  15.963  26.064  1.00  0.00    -0.195 N
ATOM      4  H1  UNL     1       2.399  16.308  26.974  1.00  0.00     0.184 HD
HETATM    5  C3  UNL     1       2.919  16.822  25.041  1.00  0.00     0.677 A
HETATM    6  N3  UNL     1       3.323  16.341  23.855  1.00  0.00    -0.176 N
ATOM      7  H3  UNL     1       3.483  16.991  23.086  1.00  0.00     0.186 HD
HETATM    8  C4  UNL     1       3.526  15.000  23.648  1.00  0.00     0.128 A
HETATM    9  C5  UNL     1       3.323  14.106  24.647  1.00  0.00     0.046 A
ENDROOT
BRANCH   9  10
HETATM   10  C6  UNL     1       3.537  12.669  24.564  1.00  0.00     0.111 C
BRANCH  10  11
HETATM   11  N5  UNL     1       2.707  11.821  23.840  1.00  0.00    -0.329 N
HETATM   12  C7  UNL     1       2.986  11.224  22.524  1.00  0.00     0.150 C
HETATM   13  C8  UNL     1       1.605  11.564  21.898  1.00  0.00     0.142 C
HETATM   14  N6  UNL     1       0.756  11.170  22.996  1.00  0.00    -0.363 N
HETATM   15  C9  UNL     1       1.377  11.315  24.109  1.00  0.00     0.190 C
ATOM     16  H6  UNL     1      -0.199  10.826  22.901  1.00  0.00     0.162 HD
HETATM   17  N7  UNL     1       0.934  11.067  25.447  1.00  0.00    -0.063 NA
ENDBRANCH  10  11
ENDBRANCH   9  10
BRANCH   8  18
HETATM   18  N4  UNL     1       3.934  14.683  22.486  1.00  0.00    -0.384 N
ATOM     19  H42 UNL     1       3.340  14.683  21.656  1.00  0.00     0.157 HD
ATOM     20  H41 UNL     1       4.912  14.400  22.427  1.00  0.00     0.157 HD
ENDBRANCH   8  18
BRANCH   5  21
HETATM   21  N2  UNL     1       2.730  18.093  25.224  1.00  0.00    -0.234 N
ATOM     22  H22 UNL     1       2.427  18.459  26.126  1.00  0.00     0.174 HD
ATOM     23  H21 UNL     1       2.886  18.741  24.452  1.00  0.00     0.174 HD
ENDBRANCH   5  21
TORSDOF 4
ENDMDL