MODEL 3
REMARK VINA RESULT: -6.798473105      1.568      3.725
REMARK  9 active torsions:
REMARK  status: ('A' for Active; 'I' for Inactive)
REMARK    1  A    between atoms: C5_7  and  C6_8
REMARK    2  A    between atoms: N2_9  and  C7_11
REMARK    3  A    between atoms: C7_11  and  C8_12
REMARK    4  A    between atoms: C8_12  and  C9_13
REMARK    5  A    between atoms: C9_13  and  N3_14
REMARK    6  A    between atoms: N4_23  and  C18_25
REMARK    7  A    between atoms: C18_25  and  C19_26
REMARK    8  A    between atoms: C19_26  and  C20_27
REMARK    9  A    between atoms: C20_27  and  O1_28
ROOT
HETATM    1  C1  UNL     1     -11.350  49.129   2.819  1.00  0.00     0.056 C
HETATM    2  C2  UNL     1     -11.250  47.947   1.881  1.00  0.00    -0.018 A
HETATM    3  C3  UNL     1     -10.139  47.183   1.647  1.00  0.00     0.045 A
HETATM    4  C4  UNL     1     -10.261  46.167   0.764  1.00  0.00     0.053 A
HETATM    5  N1  UNL     1      -9.299  45.270   0.365  1.00  0.00    -0.354 N
ATOM      6  H1  UNL     1      -8.369  45.361   0.774  1.00  0.00     0.166 HD
HETATM    7  C5  UNL     1      -9.494  44.294  -0.513  1.00  0.00     0.050 A
HETATM    8  C16 UNL     1     -10.747  44.107  -1.116  1.00  0.00     0.061 A
HETATM    9  C17 UNL     1     -11.735  44.978  -0.747  1.00  0.00     0.049 A
HETATM   10  N4  UNL     1     -12.931  44.928  -1.216  1.00  0.00    -0.389 N
ATOM     11  H4  UNL     1     -13.615  45.611  -0.893  1.00  0.00     0.159 HD
HETATM   12  C21 UNL     1     -11.487  45.997   0.186  1.00  0.00     0.058 A
HETATM   13  S1  UNL     1     -12.427  47.245   0.880  1.00  0.00    -0.091 SA
ENDROOT
BRANCH   7  14
HETATM   14  C6  UNL     1      -8.421  43.379  -0.910  1.00  0.00     0.116 C
HETATM   15  N2  UNL     1      -7.725  42.662  -0.219  1.00  0.00    -0.377 N
ATOM     16  H2  UNL     1      -7.094  42.177  -0.858  1.00  0.00     0.164 HD
BRANCH  15  17
HETATM   17  C7  UNL     1      -7.413  42.215   1.041  1.00  0.00     0.062 C
BRANCH  17  18
HETATM   18  C8  UNL     1      -6.263  42.959   1.712  1.00  0.00     0.074 C
BRANCH  18  19
HETATM   19  C9  UNL     1      -6.842  43.889   2.719  1.00  0.00     0.277 C
BRANCH  19  20
HETATM   20  N3  UNL     1      -5.936  44.893   3.212  1.00  0.00     0.089 N
HETATM   21  C10 UNL     1      -4.649  44.765   2.594  1.00  0.00     0.272 C
HETATM   22  C11 UNL     1      -3.549  45.495   3.324  1.00  0.00     0.031 C
HETATM   23  C12 UNL     1      -3.474  45.118   4.786  1.00  0.00     0.007 C
HETATM   24  C13 UNL     1      -4.569  44.146   5.104  1.00  0.00     0.010 C
HETATM   25  C14 UNL     1      -4.645  43.942   6.598  1.00  0.00     0.011 C
HETATM   26  C15 UNL     1      -5.878  44.761   4.656  1.00  0.00     0.276 C
ENDBRANCH  19  20
ENDBRANCH  18  19
ENDBRANCH  17  18
ENDBRANCH  15  17
ENDBRANCH   7  14
BRANCH  10  27
HETATM   27  C18 UNL     1     -13.342  43.934  -2.188  1.00  0.00     0.122 C
BRANCH  27  28
HETATM   28  C19 UNL     1     -14.149  44.642  -3.253  1.00  0.00     0.045 C
BRANCH  28  29
HETATM   29  C20 UNL     1     -15.548  44.962  -2.773  1.00  0.00     0.165 C
BRANCH  29  30
HETATM   30  O1  UNL     1     -15.507  46.174  -2.112  1.00  0.00    -0.401 OA
ATOM     31  H1  UNL     1     -16.180  46.734  -2.481  1.00  0.00     0.209 HD
ENDBRANCH  29  30
ENDBRANCH  28  29
ENDBRANCH  27  28
ENDBRANCH  10  27
TORSDOF 9
ENDMDL