MODEL 3
REMARK VINA RESULT: -6.304487309      1.047      1.832
REMARK  11 active torsions:
REMARK  status: ('A' for Active; 'I' for Inactive)
REMARK    1  A    between atoms: N1_2  and  C2_3
REMARK    2  A    between atoms: N1_2  and  C19_25
REMARK    3  A    between atoms: C2_3  and  C3_4
REMARK    4  A    between atoms: C3_4  and  O1_5
REMARK    5  A    between atoms: O1_5  and  C4_6
REMARK    6  A    between atoms: C7_9  and  O2_10
REMARK    7  A    between atoms: C8_12  and  C9_13
REMARK    8  A    between atoms: C9_13  and  C10_14
REMARK    9  A    between atoms: C10_14  and  C11_15
REMARK   10  A    between atoms: C17_21  and  C18_22
REMARK   11  A    between atoms: C18_22  and  O3_23
ROOT
HETATM    1  C4  UNL     1      -9.021  47.994   1.387  1.00  0.00     0.128 C
HETATM    2  C5  UNL     1      -9.333  49.052   0.336  1.00  0.00     0.035 C
HETATM    3  C6  UNL     1     -10.454  49.915   0.853  1.00  0.00     0.034 C
HETATM    4  C7  UNL     1     -11.737  49.125   1.021  1.00  0.00     0.122 C
HETATM    5  C8  UNL     1     -11.400  47.631   0.968  1.00  0.00     0.023 C
HETATM    6  C17 UNL     1     -10.291  47.331   1.915  1.00  0.00     0.045 C
ENDROOT
BRANCH   1   7
HETATM    7  O1  UNL     1      -8.189  47.027   0.893  1.00  0.00    -0.384 OA
BRANCH   7   8
HETATM    8  C3  UNL     1      -8.216  45.794   1.456  1.00  0.00     0.198 C
BRANCH   8   9
HETATM    9  C2  UNL     1      -7.352  44.743   0.808  1.00  0.00     0.301 C
BRANCH   9  10
HETATM   10  N1  UNL     1      -7.551  43.515   1.552  1.00  0.00     0.115 N
HETATM   11  C1  UNL     1      -7.716  42.397   0.629  1.00  0.00     0.313 C
BRANCH  10  12
HETATM   12  C19 UNL     1      -6.435  43.205   2.413  1.00  0.00     0.358 C
HETATM   13  C20 UNL     1      -6.766  43.230   3.863  1.00  0.00     0.066 C
HETATM   14  C21 UNL     1      -5.450  43.657   4.476  1.00  0.00     0.030 C
HETATM   15  C22 UNL     1      -4.833  44.452   3.364  1.00  0.00     0.170 C
HETATM   16  O4  UNL     1      -5.399  44.066   2.184  1.00  0.00    -0.357 OA
ENDBRANCH  10  12
ENDBRANCH   9  10
ENDBRANCH   8   9
ENDBRANCH   7   8
ENDBRANCH   1   7
BRANCH   6  17
HETATM   17  C18 UNL     1     -10.544  47.681   3.343  1.00  0.00     0.171 C
BRANCH  17  18
HETATM   18  O3  UNL     1      -9.429  47.660   4.159  1.00  0.00    -0.400 OA
ATOM     19  H3  UNL     1      -9.545  48.061   5.012  1.00  0.00     0.209 HD
ENDBRANCH  17  18
ENDBRANCH   6  17
BRANCH   5  20
HETATM   20  C9  UNL     1     -12.652  46.865   1.165  1.00  0.00     0.008 C
BRANCH  20  21
HETATM   21  C10 UNL     1     -12.594  45.441   0.690  1.00  0.00     0.005 C
BRANCH  21  22
HETATM   22  C11 UNL     1     -11.875  45.315  -0.654  1.00  0.00    -0.014 C
HETATM   23  C12 UNL     1     -10.848  44.249  -0.499  1.00  0.00     0.004 C
HETATM   24  C13 UNL     1     -10.378  43.611  -1.764  1.00  0.00     0.000 C
HETATM   25  C14 UNL     1     -11.622  43.090  -2.494  1.00  0.00     0.000 C
HETATM   26  C15 UNL     1     -12.383  44.329  -2.920  1.00  0.00     0.000 C
HETATM   27  C16 UNL     1     -12.922  45.014  -1.703  1.00  0.00     0.004 C
ENDBRANCH  21  22
ENDBRANCH  20  21
ENDBRANCH   5  20
BRANCH   4  28
HETATM   28  O2  UNL     1     -12.593  49.447  -0.023  1.00  0.00    -0.395 OA
ATOM     29  H2  UNL     1     -13.488  49.319   0.270  1.00  0.00     0.210 HD
ENDBRANCH   4  28
TORSDOF 11
ENDMDL