MODEL 1
REMARK VINA RESULT: -7.696534224      0.000      0.000
REMARK  10 active torsions:
REMARK  status: ('A' for Active; 'I' for Inactive)
REMARK    1  A    between atoms: C4_6  and  C5_7
REMARK    2  A    between atoms: C6_8  and  C7_9
REMARK    3  A    between atoms: C7_9  and  C8_10
REMARK    4  A    between atoms: C8_10  and  C10_12
REMARK    5  A    between atoms: C10_12  and  O3_13
REMARK    6  A    between atoms: C10_12  and  C11_15
REMARK    7  A    between atoms: C12_17  and  C13_18
REMARK    8  A    between atoms: C13_18  and  O5_19
REMARK    9  A    between atoms: C13_18  and  C14_21
REMARK   10  A    between atoms: C14_21  and  C15_22
ROOT
HETATM    1  C1  UNL     1     -11.864  46.689   1.559  1.00  0.00     0.025 C
HETATM    2  C2  UNL     1     -12.349  45.903   0.647  1.00  0.00     0.017 C
HETATM    3  C3  UNL     1     -13.831  45.685   0.562  1.00  0.00     0.289 C
HETATM    4  O1  UNL     1     -14.699  45.935   1.421  1.00  0.00    -0.260 OA
HETATM    5  O2  UNL     1     -14.083  45.132  -0.687  1.00  0.00    -0.307 OA
HETATM    6  C4  UNL     1     -12.929  45.367  -1.509  1.00  0.00     0.165 C
HETATM    7  C12 UNL     1     -11.844  45.078  -0.440  1.00  0.00     0.086 C
ENDROOT
BRANCH   7   8
HETATM    8  C13 UNL     1     -10.558  45.358  -1.059  1.00  0.00     0.130 C
BRANCH   8   9
HETATM    9  O5  UNL     1     -10.285  46.744  -0.959  1.00  0.00    -0.395 OA
ATOM     10  H5  UNL     1     -10.889  47.222  -1.517  1.00  0.00     0.210 HD
ENDBRANCH   8   9
BRANCH   8  11
HETATM   11  C14 UNL     1      -9.348  44.610  -0.688  1.00  0.00     0.037 C
BRANCH  11  12
HETATM   12  C15 UNL     1      -9.492  43.765   0.554  1.00  0.00    -0.012 C
HETATM   13  C16 UNL     1      -9.232  44.515   1.816  1.00  0.00     0.005 C
HETATM   14  C17 UNL     1      -8.217  45.591   1.748  1.00  0.00     0.000 C
HETATM   15  C18 UNL     1      -6.787  45.137   1.704  1.00  0.00     0.000 C
HETATM   16  C19 UNL     1      -6.493  43.885   2.428  1.00  0.00     0.000 C
HETATM   17  C20 UNL     1      -6.518  42.622   1.661  1.00  0.00     0.000 C
HETATM   18  C21 UNL     1      -7.237  42.632   0.350  1.00  0.00     0.000 C
HETATM   19  C22 UNL     1      -8.712  42.469   0.464  1.00  0.00     0.005 C
ENDBRANCH  11  12
ENDBRANCH   8  11
ENDBRANCH   7   8
BRANCH   6  20
HETATM   20  C5  UNL     1     -12.821  44.435  -2.627  1.00  0.00     0.002 C
HETATM   21  C6  UNL     1     -13.817  44.231  -3.449  1.00  0.00    -0.028 C
BRANCH  21  22
HETATM   22  C7  UNL     1     -15.151  44.876  -3.387  1.00  0.00     0.034 C
BRANCH  22  23
HETATM   23  C8  UNL     1     -15.660  45.236  -4.764  1.00  0.00     0.020 C
HETATM   24  C9  UNL     1     -16.174  44.041  -5.522  1.00  0.00     0.013 C
BRANCH  23  25
HETATM   25  C10 UNL     1     -16.734  46.274  -4.726  1.00  0.00     0.183 C
BRANCH  25  26
HETATM   26  O3  UNL     1     -16.316  47.508  -5.192  1.00  0.00    -0.388 OA
ATOM     27  H3  UNL     1     -16.626  48.232  -4.663  1.00  0.00     0.210 HD
ENDBRANCH  25  26
BRANCH  25  28
HETATM   28  C11 UNL     1     -17.156  46.437  -3.301  1.00  0.00     0.263 C
HETATM   29  O4  UNL     1     -18.362  46.425  -3.091  1.00  0.00    -0.304 OA
ENDBRANCH  25  28
ENDBRANCH  23  25
ENDBRANCH  22  23
ENDBRANCH  21  22
ENDBRANCH   6  20
TORSDOF 10
ENDMDL