MODEL 3
REMARK VINA RESULT: -6.379056251      1.629      3.591
REMARK  9 active torsions:
REMARK  status: ('A' for Active; 'I' for Inactive)
REMARK    1  A    between atoms: C2_2  and  C3_3
REMARK    2  A    between atoms: C3_3  and  C4_4
REMARK    3  A    between atoms: C4_4  and  C5_5
REMARK    4  A    between atoms: C5_5  and  C6_6
REMARK    5  A    between atoms: C6_6  and  C7_7
REMARK    6  A    between atoms: N3_14  and  C11_15
REMARK    7  A    between atoms: C15_19  and  O1_20
REMARK    8  A    between atoms: C17_22  and  O2_23
REMARK    9  A    between atoms: C19_25  and  O3_26
ROOT
HETATM    1  C7  UNL     1     -13.290  44.684  -1.925  1.00  0.00     0.055 A
HETATM    2  N1  UNL     1     -13.315  45.752  -1.155  1.00  0.00    -0.353 N
ATOM      3  H1  UNL     1     -14.078  46.429  -1.127  1.00  0.00     0.166 HD
HETATM    4  C8  UNL     1     -12.182  45.827  -0.400  1.00  0.00     0.062 A
HETATM    5  C9  UNL     1     -11.415  44.724  -0.741  1.00  0.00     0.088 A
HETATM    6  C10 UNL     1     -12.097  43.999  -1.695  1.00  0.00     0.102 A
HETATM    7  N2  UNL     1     -11.707  42.801  -2.318  1.00  0.00    -0.098 NA
HETATM    8  N3  UNL     1     -10.131  44.502  -0.112  1.00  0.00    -0.343 N
HETATM    9  C13 UNL     1      -9.706  45.442   0.847  1.00  0.00     0.051 A
HETATM   10  C14 UNL     1      -8.505  45.318   1.494  1.00  0.00     0.070 A
HETATM   11  C15 UNL     1      -8.129  46.262   2.421  1.00  0.00     0.106 A
HETATM   12  C17 UNL     1      -8.927  47.346   2.732  1.00  0.00     0.136 A
HETATM   13  C19 UNL     1     -10.138  47.494   2.097  1.00  0.00     0.117 A
HETATM   14  C21 UNL     1     -10.514  46.529   1.154  1.00  0.00     0.029 A
HETATM   15  C22 UNL     1     -11.798  46.717   0.499  1.00  0.00     0.048 A
ENDROOT
BRANCH   1  16
HETATM   16  C6  UNL     1     -14.188  44.239  -2.809  1.00  0.00     0.005 C
BRANCH  16  17
HETATM   17  C5  UNL     1     -15.616  44.502  -2.488  1.00  0.00     0.029 C
BRANCH  17  18
HETATM   18  C4  UNL     1     -16.261  45.381  -3.537  1.00  0.00     0.004 C
BRANCH  18  19
HETATM   19  C3  UNL     1     -15.919  44.917  -4.922  1.00  0.00    -0.000 C
BRANCH  19  20
HETATM   20  C2  UNL     1     -15.983  46.021  -5.951  1.00  0.00    -0.005 C
HETATM   21  C1  UNL     1     -17.038  47.037  -5.637  1.00  0.00     0.005 C
ENDBRANCH  19  20
ENDBRANCH  18  19
ENDBRANCH  17  18
ENDBRANCH  16  17
ENDBRANCH   1  16
BRANCH   8  22
HETATM   22  C11 UNL     1      -9.314  43.387  -0.479  1.00  0.00     0.125 C
HETATM   23  C12 UNL     1      -8.363  43.825  -1.601  1.00  0.00     0.027 C
ENDBRANCH   8  22
BRANCH  13  24
HETATM   24  O3  UNL     1     -10.978  48.562   2.370  1.00  0.00    -0.352 OA
HETATM   25  C20 UNL     1     -10.728  49.799   1.699  1.00  0.00     0.210 C
ENDBRANCH  13  24
BRANCH  12  26
HETATM   26  O2  UNL     1      -8.484  48.267   3.685  1.00  0.00    -0.351 OA
HETATM   27  C18 UNL     1      -8.998  48.146   4.996  1.00  0.00     0.210 C
ENDBRANCH  12  26
BRANCH  11  28
HETATM   28  O1  UNL     1      -6.910  46.147   3.086  1.00  0.00    -0.353 OA
HETATM   29  C16 UNL     1      -5.907  45.271   2.552  1.00  0.00     0.210 C
ENDBRANCH  11  28
TORSDOF 9
ENDMDL