MODEL 5
REMARK VINA RESULT: -6.424991637      2.246      3.704
REMARK  9 active torsions:
REMARK  status: ('A' for Active; 'I' for Inactive)
REMARK    1  A    between atoms: C2_2  and  O1_3
REMARK    2  A    between atoms: O1_3  and  C3_4
REMARK    3  A    between atoms: N2_10  and  C7_12
REMARK    4  A    between atoms: C7_12  and  C8_13
REMARK    5  A    between atoms: C11_16  and  C13_18
REMARK    6  A    between atoms: C13_18  and  O2_19
REMARK    7  A    between atoms: O2_19  and  C14_20
REMARK    8  A    between atoms: C14_20  and  C15_21
REMARK    9  A    between atoms: C15_21  and  O3_24
ROOT
HETATM    1  C3  UNL     1     -12.445  44.904  -1.617  1.00  0.00     0.094 A
HETATM    2  C4  UNL     1     -12.054  44.075  -2.629  1.00  0.00     0.055 A
HETATM    3  C5  UNL     1     -10.968  43.260  -2.412  1.00  0.00     0.092 A
HETATM    4  N1  UNL     1     -10.291  43.261  -1.246  1.00  0.00    -0.351 N
ATOM      5  H1  UNL     1      -9.490  42.638  -1.136  1.00  0.00     0.166 HD
HETATM    6  C6  UNL     1     -10.641  44.058  -0.230  1.00  0.00     0.124 A
HETATM    7  N2  UNL     1     -10.032  44.096   0.894  1.00  0.00    -0.375 N
ATOM      8  H2  UNL     1     -10.344  44.726   1.633  1.00  0.00     0.161 HD
HETATM    9  C20 UNL     1     -11.744  44.895  -0.430  1.00  0.00     0.121 A
HETATM   10  C21 UNL     1     -12.132  45.753   0.641  1.00  0.00     0.106 C
HETATM   11  N3  UNL     1     -12.444  46.472   1.508  1.00  0.00    -0.191 NA
ENDROOT
BRANCH   1  12
HETATM   12  O1  UNL     1     -13.532  45.743  -1.787  1.00  0.00    -0.350 OA
BRANCH  12  13
HETATM   13  C2  UNL     1     -14.850  45.240  -1.733  1.00  0.00     0.171 C
HETATM   14  C1  UNL     1     -15.294  44.898  -3.150  1.00  0.00     0.034 C
ENDBRANCH  12  13
ENDBRANCH   1  12
BRANCH   7  15
HETATM   15  C7  UNL     1      -8.900  43.236   1.097  1.00  0.00     0.126 C
BRANCH  15  16
HETATM   16  C8  UNL     1      -7.591  43.992   0.991  1.00  0.00     0.003 C
HETATM   17  C9  UNL     1      -7.666  45.184   1.913  1.00  0.00     0.007 C
HETATM   18  C10 UNL     1      -6.246  45.641   2.117  1.00  0.00     0.012 C
HETATM   19  C11 UNL     1      -5.600  44.675   3.085  1.00  0.00    -0.022 C
HETATM   20  C12 UNL     1      -6.117  44.927   4.457  1.00  0.00     0.017 C
HETATM   21  C18 UNL     1      -5.900  43.233   2.691  1.00  0.00     0.012 C
HETATM   22  C19 UNL     1      -6.440  43.084   1.312  1.00  0.00     0.007 C
BRANCH  19  23
HETATM   23  C13 UNL     1      -4.122  44.857   2.927  1.00  0.00     0.176 C
BRANCH  23  24
HETATM   24  O2  UNL     1      -3.616  45.846   2.181  1.00  0.00    -0.387 OA
BRANCH  24  25
HETATM   25  C14 UNL     1      -2.352  45.717   1.729  1.00  0.00     0.204 C
BRANCH  25  26
HETATM   26  C15 UNL     1      -1.923  47.015   0.988  1.00  0.00     0.072 C
HETATM   27  C16 UNL     1      -1.280  46.666  -0.322  1.00  0.00     0.047 C
HETATM   28  C17 UNL     1      -3.155  47.840   0.805  1.00  0.00     0.047 C
BRANCH  26  29
HETATM   29  O3  UNL     1      -0.962  47.610   1.793  1.00  0.00    -0.388 OA
ATOM     30  H3  UNL     1      -1.429  48.236   2.334  1.00  0.00     0.210 HD
ENDBRANCH  26  29
ENDBRANCH  25  26
ENDBRANCH  24  25
ENDBRANCH  23  24
ENDBRANCH  19  23
ENDBRANCH  15  16
ENDBRANCH   7  15
TORSDOF 9
ENDMDL