MODEL 1
REMARK VINA RESULT: -6.507315115      0.000      0.000
REMARK  11 active torsions:
REMARK  status: ('A' for Active; 'I' for Inactive)
REMARK    1  A    between atoms: C2_2  and  C9_11
REMARK    2  A    between atoms: C3_3  and  C4_4
REMARK    3  A    between atoms: C5_5  and  C6_6
REMARK    4  A    between atoms: C6_6  and  O1_9
REMARK    5  A    between atoms: C9_11  and  C10_12
REMARK    6  A    between atoms: C10_12  and  S1_13
REMARK    7  A    between atoms: S1_13  and  C11_14
REMARK    8  A    between atoms: C11_14  and  N1_16
REMARK    9  A    between atoms: N2_19  and  C14_20
REMARK   10  A    between atoms: C14_20  and  C15_21
REMARK   11  A    between atoms: C15_21  and  C16_22
ROOT
HETATM    1  S1  UNL     1     -12.460  46.621   0.851  1.00  0.00    -0.100 SA
ENDROOT
BRANCH   1   2
HETATM    2  C10 UNL     1     -12.661  45.510  -0.548  1.00  0.00     0.086 C
BRANCH   2   3
HETATM    3  C9  UNL     1     -14.052  45.693  -1.125  1.00  0.00     0.044 C
BRANCH   3   4
HETATM    4  C2  UNL     1     -14.117  44.941  -2.377  1.00  0.00    -0.083 C
HETATM    5  C1  UNL     1     -12.866  44.157  -2.715  1.00  0.00     0.043 C
HETATM    6  C3  UNL     1     -15.150  44.909  -3.158  1.00  0.00     0.002 C
BRANCH   6   7
HETATM    7  C4  UNL     1     -16.371  45.614  -2.926  1.00  0.00    -0.001 C
HETATM    8  C5  UNL     1     -17.265  45.920  -3.856  1.00  0.00     0.010 C
BRANCH   8   9
HETATM    9  C6  UNL     1     -17.110  45.565  -5.265  1.00  0.00     0.068 C
HETATM   10  C7  UNL     1     -16.300  44.277  -5.370  1.00  0.00     0.050 C
HETATM   11  C8  UNL     1     -16.314  46.642  -6.001  1.00  0.00     0.050 C
BRANCH   9  12
HETATM   12  O1  UNL     1     -18.333  45.461  -5.905  1.00  0.00    -0.387 OA
ATOM     13  H1  UNL     1     -18.589  46.281  -6.311  1.00  0.00     0.211 HD
ENDBRANCH   9  12
ENDBRANCH   8   9
ENDBRANCH   6   7
ENDBRANCH   3   4
ENDBRANCH   2   3
ENDBRANCH   1   2
BRANCH   1  14
HETATM   14  C11 UNL     1     -10.820  46.464   1.508  1.00  0.00     0.136 C
HETATM   15  S2  UNL     1     -10.313  47.494   2.692  1.00  0.00    -0.053 SA
BRANCH  14  16
HETATM   16  N1  UNL     1      -9.912  45.470   1.086  1.00  0.00    -0.363 N
HETATM   17  C12 UNL     1      -8.929  45.761   0.087  1.00  0.00     0.154 C
HETATM   18  C13 UNL     1      -8.986  44.667  -0.957  1.00  0.00     0.292 C
HETATM   19  N2  UNL     1      -8.710  43.408  -0.307  1.00  0.00     0.092 N
HETATM   20  C17 UNL     1      -9.728  43.076   0.620  1.00  0.00     0.292 C
HETATM   21  C18 UNL     1      -9.965  44.154   1.661  1.00  0.00     0.154 C
BRANCH  19  22
HETATM   22  C14 UNL     1      -7.363  43.238   0.082  1.00  0.00     0.283 C
BRANCH  22  23
HETATM   23  C15 UNL     1      -7.211  42.248   1.188  1.00  0.00     0.143 C
BRANCH  23  24
HETATM   24  C16 UNL     1      -6.351  42.902   2.236  1.00  0.00     0.174 C
HETATM   25  O2  UNL     1      -5.200  43.304   1.992  1.00  0.00    -0.648 OA
HETATM   26  O3  UNL     1      -6.869  43.055   3.508  1.00  0.00    -0.648 OA
ENDBRANCH  23  24
ENDBRANCH  22  23
ENDBRANCH  19  22
ENDBRANCH  14  16
ENDBRANCH   1  14
TORSDOF 11
ENDMDL