MODEL 4
REMARK VINA RESULT: -5.901699112      2.193      6.420
REMARK  10 active torsions:
REMARK  status: ('A' for Active; 'I' for Inactive)
REMARK    1  A    between atoms: C2_2  and  C3_3
REMARK    2  A    between atoms: C3_3  and  C4_4
REMARK    3  A    between atoms: C4_4  and  C5_5
REMARK    4  A    between atoms: C5_5  and  O1_6
REMARK    5  A    between atoms: O1_6  and  C6_7
REMARK    6  A    between atoms: C6_7  and  O3_9
REMARK    7  A    between atoms: O3_9  and  C7_10
REMARK    8  A    between atoms: C7_10  and  C8_11
REMARK    9  A    between atoms: C12_15  and  C13_16
REMARK   10  A    between atoms: C19_24  and  O6_25
ROOT
HETATM    1  C8  UNL     1      -9.316  45.844  -0.240  1.00  0.00    -0.010 C
HETATM    2  C9  UNL     1      -9.785  47.202  -0.652  1.00  0.00     0.018 C
HETATM    3  C10 UNL     1      -9.711  44.746  -1.175  1.00  0.00     0.003 C
HETATM    4  C11 UNL     1      -8.702  43.608  -0.908  1.00  0.00     0.021 C
HETATM    5  C12 UNL     1      -8.768  43.149   0.510  1.00  0.00     0.088 C
HETATM    6  C14 UNL     1      -8.722  44.252   1.533  1.00  0.00     0.026 C
HETATM    7  C15 UNL     1      -9.643  45.418   1.143  1.00  0.00    -0.026 A
HETATM    8  C16 UNL     1     -10.144  46.259   2.209  1.00  0.00     0.016 A
HETATM    9  C17 UNL     1     -11.021  45.235   1.537  1.00  0.00    -0.002 A
HETATM   10  C18 UNL     1     -12.114  45.626   0.619  1.00  0.00     0.037 C
HETATM   11  C19 UNL     1     -12.233  44.808  -0.612  1.00  0.00     0.122 C
HETATM   12  C20 UNL     1     -11.037  44.180  -1.177  1.00  0.00     0.015 C
HETATM   13  C21 UNL     1     -11.421  43.924  -2.663  1.00  0.00     0.013 C
ENDROOT
BRANCH   1  14
HETATM   14  C7  UNL     1      -7.797  46.013  -0.311  1.00  0.00     0.191 C
BRANCH  14  15
HETATM   15  O3  UNL     1      -7.560  47.284   0.328  1.00  0.00    -0.297 OA
BRANCH  15  16
HETATM   16  C6  UNL     1      -6.554  47.478   1.240  1.00  0.00     0.406 C
HETATM   17  O2  UNL     1      -5.391  47.723   0.853  1.00  0.00    -0.230 OA
BRANCH  16  18
HETATM   18  O1  UNL     1      -6.851  47.399   2.580  1.00  0.00    -0.298 OA
BRANCH  18  19
HETATM   19  C5  UNL     1      -6.013  46.907   3.582  1.00  0.00     0.181 C
BRANCH  19  20
HETATM   20  C4  UNL     1      -6.046  45.405   3.632  1.00  0.00     0.031 C
BRANCH  20  21
HETATM   21  C3  UNL     1      -4.648  44.830   3.752  1.00  0.00     0.028 C
BRANCH  21  22
HETATM   22  C2  UNL     1      -3.949  44.823   2.454  1.00  0.00    -0.037 C
HETATM   23  C1  UNL     1      -2.725  45.289   2.351  1.00  0.00     0.007 C
ENDBRANCH  21  22
ENDBRANCH  20  21
ENDBRANCH  19  20
ENDBRANCH  18  19
ENDBRANCH  16  18
ENDBRANCH  15  16
ENDBRANCH  14  15
ENDBRANCH   1  14
BRANCH   5  24
HETATM   24  C13 UNL     1      -7.662  42.203   0.751  1.00  0.00     0.177 C
HETATM   25  O4  UNL     1      -7.741  41.011   0.382  1.00  0.00    -0.648 OA
HETATM   26  O5  UNL     1      -6.492  42.592   1.395  1.00  0.00    -0.648 OA
ENDBRANCH   5  24
BRANCH  11  27
HETATM   27  O6  UNL     1     -12.969  45.539  -1.581  1.00  0.00    -0.395 OA
ATOM     28  H6  UNL     1     -13.354  44.929  -2.199  1.00  0.00     0.210 HD
ENDBRANCH  11  27
TORSDOF 10
ENDMDL