MODEL 2
REMARK VINA RESULT: -6.612875622      3.329      7.388
REMARK  10 active torsions:
REMARK  status: ('A' for Active; 'I' for Inactive)
REMARK    1  A    between atoms: C2_2  and  C3_3
REMARK    2  A    between atoms: C3_3  and  C4_4
REMARK    3  A    between atoms: C4_4  and  C5_5
REMARK    4  A    between atoms: C6_6  and  C7_7
REMARK    5  A    between atoms: C8_8  and  C9_9
REMARK    6  A    between atoms: C9_9  and  C10_10
REMARK    7  A    between atoms: C13_13  and  O1_14
REMARK    8  A    between atoms: C14_16  and  O2_17
REMARK    9  A    between atoms: C16_20  and  O3_21
REMARK   10  A    between atoms: O3_21  and  C17_22
REMARK       I    between atoms: C17_22  and  N1_24
ROOT
HETATM    1  C10 UNL     1      -9.141  44.955  -0.359  1.00  0.00     0.125 C
HETATM    2  C11 UNL     1      -9.706  46.096   0.388  1.00  0.00     0.035 C
HETATM    3  C12 UNL     1      -8.759  47.049   1.013  1.00  0.00     0.037 C
HETATM    4  C13 UNL     1      -7.328  46.905   0.681  1.00  0.00     0.147 C
HETATM    5  C14 UNL     1      -6.540  45.929   1.465  1.00  0.00     0.155 C
HETATM    6  C15 UNL     1      -7.337  44.967   2.291  1.00  0.00     0.075 C
HETATM    7  C16 UNL     1      -6.429  44.141   3.167  1.00  0.00     0.142 C
HETATM    8  C20 UNL     1      -5.732  43.260   2.185  1.00  0.00     0.036 C
HETATM    9  C21 UNL     1      -6.878  42.792   1.312  1.00  0.00     0.035 C
HETATM   10  C22 UNL     1      -7.911  43.916   1.329  1.00  0.00     0.131 C
HETATM   11  O5  UNL     1      -7.955  44.442   0.065  1.00  0.00    -0.380 OA
ENDROOT
BRANCH   1  12
HETATM   12  C9  UNL     1     -10.235  43.872  -0.436  1.00  0.00     0.059 C
BRANCH  12  13
HETATM   13  C8  UNL     1     -10.264  43.298  -1.784  1.00  0.00    -0.024 C
HETATM   14  C7  UNL     1     -11.313  43.171  -2.519  1.00  0.00    -0.004 C
BRANCH  14  15
HETATM   15  C6  UNL     1     -12.635  43.581  -2.116  1.00  0.00    -0.004 C
HETATM   16  C5  UNL     1     -13.171  44.743  -2.539  1.00  0.00    -0.027 C
BRANCH  16  17
HETATM   17  C4  UNL     1     -14.525  45.091  -2.084  1.00  0.00     0.027 C
BRANCH  17  18
HETATM   18  C3  UNL     1     -15.547  44.526  -3.023  1.00  0.00     0.003 C
BRANCH  18  19
HETATM   19  C2  UNL     1     -15.227  44.933  -4.426  1.00  0.00    -0.004 C
HETATM   20  C1  UNL     1     -16.346  44.470  -5.359  1.00  0.00     0.005 C
ENDBRANCH  18  19
ENDBRANCH  17  18
ENDBRANCH  16  17
ENDBRANCH  14  15
ENDBRANCH  12  13
ENDBRANCH   1  12
BRANCH   4  21
HETATM   21  O1  UNL     1      -6.731  48.176   0.872  1.00  0.00    -0.393 OA
ATOM     22  H1  UNL     1      -6.499  48.504   0.011  1.00  0.00     0.210 HD
ENDBRANCH   4  21
BRANCH   5  23
HETATM   23  O2  UNL     1      -5.527  46.552   2.231  1.00  0.00    -0.392 OA
ATOM     24  H2  UNL     1      -5.258  46.019   2.969  1.00  0.00     0.210 HD
ENDBRANCH   5  23
BRANCH   7  25
HETATM   25  O3  UNL     1      -5.595  44.902   3.979  1.00  0.00    -0.298 OA
BRANCH  25  26
HETATM   26  C17 UNL     1      -5.694  44.932   5.358  1.00  0.00     0.362 C
HETATM   27  O4  UNL     1      -5.247  43.940   5.980  1.00  0.00    -0.238 OA
HETATM   28  N1  UNL     1      -6.276  46.042   6.039  1.00  0.00    -0.337 N
HETATM   29  C18 UNL     1      -6.338  45.989   7.483  1.00  0.00     0.154 C
HETATM   30  C19 UNL     1      -6.795  47.192   5.364  1.00  0.00     0.154 C
ENDBRANCH  25  26
ENDBRANCH   7  25
TORSDOF 10
ENDMDL