MODEL 3
REMARK VINA RESULT: -6.269042819      3.019      6.029
REMARK  11 active torsions:
REMARK  status: ('A' for Active; 'I' for Inactive)
REMARK    1  A    between atoms: C2_2  and  C3_3
REMARK    2  A    between atoms: C3_3  and  C4_4
REMARK    3  A    between atoms: C4_4  and  C5_5
REMARK    4  A    between atoms: C5_5  and  C6_6
REMARK    5  A    between atoms: C6_6  and  C7_7
REMARK       I    between atoms: C7_7  and  N1_9
REMARK    6  A    between atoms: N1_9  and  C8_11
REMARK    7  A    between atoms: C8_11  and  C9_12
REMARK    8  A    between atoms: C10_13  and  C11_14
REMARK    9  A    between atoms: C11_14  and  O2_15
REMARK   10  A    between atoms: O2_15  and  N2_16
REMARK   11  A    between atoms: C19_25  and  O3_26
ROOT
HETATM    1  N2  UNL     1      -6.430  42.673   1.283  1.00  0.00    -0.247 N
ATOM      2  H2  UNL     1      -6.044  41.739   1.420  1.00  0.00     0.196 HD
HETATM    3  C12 UNL     1      -6.258  43.546   2.212  1.00  0.00     0.138 C
HETATM    4  C13 UNL     1      -6.762  44.944   2.159  1.00  0.00     0.086 C
HETATM    5  C14 UNL     1      -5.608  45.834   2.579  1.00  0.00     0.016 C
HETATM    6  C15 UNL     1      -5.064  45.504   3.940  1.00  0.00     0.026 C
HETATM    7  C16 UNL     1      -5.596  44.183   4.399  1.00  0.00     0.135 C
HETATM    8  C17 UNL     1      -5.010  43.690   5.677  1.00  0.00     0.035 C
HETATM    9  C18 UNL     1      -3.934  44.631   6.208  1.00  0.00     0.035 C
HETATM   10  C19 UNL     1      -2.933  44.796   5.071  1.00  0.00     0.126 C
HETATM   11  C20 UNL     1      -3.581  45.630   3.994  1.00  0.00    -0.016 C
HETATM   12  C21 UNL     1      -2.883  45.321   2.698  1.00  0.00     0.018 C
HETATM   13  C22 UNL     1      -3.247  47.090   4.326  1.00  0.00     0.018 C
HETATM   14  O4  UNL     1      -5.557  43.192   3.359  1.00  0.00    -0.332 OA
ENDROOT
BRANCH   1  15
HETATM   15  O2  UNL     1      -7.103  42.930   0.125  1.00  0.00    -0.267 OA
BRANCH  15  16
HETATM   16  C11 UNL     1      -8.361  42.309  -0.070  1.00  0.00     0.294 C
BRANCH  16  17
HETATM   17  C10 UNL     1      -9.374  43.293   0.352  1.00  0.00    -0.076 C
HETATM   18  C9  UNL     1     -10.210  44.082   0.709  1.00  0.00    -0.085 C
BRANCH  18  19
HETATM   19  C8  UNL     1     -11.219  45.035   1.166  1.00  0.00     0.217 C
BRANCH  19  20
HETATM   20  N1  UNL     1     -12.100  45.398   0.063  1.00  0.00    -0.351 N
HETATM   21  C7  UNL     1     -13.462  45.663   0.219  1.00  0.00     0.218 C
HETATM   22  O1  UNL     1     -13.996  45.596   1.349  1.00  0.00    -0.274 OA
ATOM     23  H1  UNL     1     -11.699  45.464  -0.873  1.00  0.00     0.163 HD
BRANCH  21  24
HETATM   24  C6  UNL     1     -14.293  46.025  -0.946  1.00  0.00     0.103 C
BRANCH  24  25
HETATM   25  C5  UNL     1     -14.020  45.098  -2.103  1.00  0.00     0.009 C
BRANCH  25  26
HETATM   26  C4  UNL     1     -15.265  44.402  -2.561  1.00  0.00     0.000 C
BRANCH  26  27
HETATM   27  C3  UNL     1     -15.368  44.598  -4.078  1.00  0.00    -0.000 C
BRANCH  27  28
HETATM   28  C2  UNL     1     -16.413  45.675  -4.380  1.00  0.00    -0.005 C
HETATM   29  C1  UNL     1     -16.183  46.195  -5.772  1.00  0.00     0.005 C
ENDBRANCH  27  28
ENDBRANCH  26  27
ENDBRANCH  25  26
ENDBRANCH  24  25
ENDBRANCH  21  24
ENDBRANCH  19  20
ENDBRANCH  18  19
ENDBRANCH  16  17
ENDBRANCH  15  16
ENDBRANCH   1  15
BRANCH  10  30
HETATM   30  O3  UNL     1      -1.721  45.285   5.497  1.00  0.00    -0.395 OA
ATOM     31  H3  UNL     1      -1.070  44.603   5.615  1.00  0.00     0.210 HD
ENDBRANCH  10  30
TORSDOF 11
ENDMDL