MODEL 4
REMARK VINA RESULT: -6.353777290      1.852      5.171
REMARK  11 active torsions:
REMARK  status: ('A' for Active; 'I' for Inactive)
REMARK    1  A    between atoms: O1_2  and  C2_3
REMARK    2  A    between atoms: C2_3  and  C3_4
REMARK    3  A    between atoms: C5_6  and  N1_7
REMARK    4  A    between atoms: C7_9  and  C8_10
REMARK    5  A    between atoms: C8_10  and  C9_11
REMARK    6  A    between atoms: C9_11  and  C10_12
REMARK    7  A    between atoms: C10_12  and  C11_13
REMARK    8  A    between atoms: C11_13  and  C12_14
REMARK    9  A    between atoms: C12_14  and  C13_15
REMARK   10  A    between atoms: C13_15  and  C14_16
REMARK   11  A    between atoms: C21_27  and  O4_28
ROOT
HETATM    1  N1  UNL     1     -11.611  45.415   0.222  1.00  0.00    -0.304 N
HETATM    2  C6  UNL     1     -10.308  45.386  -0.097  1.00  0.00     0.109 A
HETATM    3  C7  UNL     1      -9.380  46.022   0.767  1.00  0.00     0.029 A
HETATM    4  C18 UNL     1      -9.895  46.630   1.873  1.00  0.00     0.257 A
HETATM    5  O2  UNL     1      -9.133  47.229   2.680  1.00  0.00    -0.267 OA
HETATM    6  N2  UNL     1     -11.218  46.635   2.158  1.00  0.00    -0.275 N
ATOM      7  H2  UNL     1     -11.560  47.101   2.999  1.00  0.00     0.173 HD
HETATM    8  C19 UNL     1     -12.076  46.026   1.329  1.00  0.00     0.329 A
HETATM    9  O3  UNL     1     -13.329  46.018   1.579  1.00  0.00    -0.246 OA
ENDROOT
BRANCH   1  10
HETATM   10  C5  UNL     1     -12.567  44.768  -0.650  1.00  0.00     0.097 C
HETATM   11  C4  UNL     1     -13.254  45.695  -1.609  1.00  0.00     0.035 C
HETATM   12  C3  UNL     1     -13.708  44.806  -2.751  1.00  0.00     0.040 C
HETATM   13  C21 UNL     1     -12.721  43.655  -2.784  1.00  0.00     0.126 C
HETATM   14  C20 UNL     1     -12.045  43.615  -1.428  1.00  0.00     0.058 C
BRANCH  12  15
HETATM   15  C2  UNL     1     -15.108  44.295  -2.536  1.00  0.00     0.174 C
BRANCH  15  16
HETATM   16  O1  UNL     1     -15.886  44.218  -3.654  1.00  0.00    -0.395 OA
HETATM   17  C1  UNL     1     -15.528  45.081  -4.680  1.00  0.00     0.201 C
ENDBRANCH  15  16
ENDBRANCH  12  15
BRANCH  13  18
HETATM   18  O4  UNL     1     -11.859  43.845  -3.837  1.00  0.00    -0.395 OA
ATOM     19  H4  UNL     1     -11.381  43.038  -3.989  1.00  0.00     0.210 HD
ENDBRANCH  13  18
ENDBRANCH   1  10
BRANCH   3  20
HETATM   20  C8  UNL     1      -7.989  45.842   0.375  1.00  0.00     0.073 C
BRANCH  20  21
HETATM   21  C9  UNL     1      -7.683  44.647  -0.399  1.00  0.00    -0.022 C
BRANCH  21  22
HETATM   22  C10 UNL     1      -7.844  43.307   0.028  1.00  0.00    -0.008 C
BRANCH  22  23
HETATM   23  C11 UNL     1      -7.149  42.446   0.722  1.00  0.00    -0.027 C
BRANCH  23  24
HETATM   24  C12 UNL     1      -6.744  42.738   2.145  1.00  0.00     0.028 C
BRANCH  24  25
HETATM   25  C13 UNL     1      -5.483  43.487   2.293  1.00  0.00     0.012 C
BRANCH  25  26
HETATM   26  C14 UNL     1      -5.288  44.337   3.486  1.00  0.00    -0.051 C
HETATM   27  C15 UNL     1      -5.363  43.647   4.814  1.00  0.00     0.014 C
HETATM   28  C16 UNL     1      -3.881  44.949   3.356  1.00  0.00     0.014 C
HETATM   29  C17 UNL     1      -6.230  45.521   3.543  1.00  0.00     0.014 C
ENDBRANCH  25  26
ENDBRANCH  24  25
ENDBRANCH  23  24
ENDBRANCH  22  23
ENDBRANCH  21  22
ENDBRANCH  20  21
ENDBRANCH   3  20
TORSDOF 11
ENDMDL