MODEL 4
REMARK VINA RESULT: -6.503084628      1.723      2.953
REMARK  8 active torsions:
REMARK  status: ('A' for Active; 'I' for Inactive)
REMARK    1  A    between atoms: C2_2  and  C3_3
REMARK    2  A    between atoms: C3_3  and  C4_4
REMARK    3  A    between atoms: C4_4  and  C5_5
REMARK    4  A    between atoms: C5_5  and  C6_6
REMARK    5  A    between atoms: N1_10  and  C10_11
REMARK    6  A    between atoms: C10_11  and  C11_12
REMARK    7  A    between atoms: C16_17  and  C17_18
REMARK    8  A    between atoms: C18_19  and  C19_20
ROOT
HETATM    1  C11 UNL     1     -10.720  45.600   0.546  1.00  0.00    -0.029 A
HETATM    2  C12 UNL     1     -11.957  45.889   0.017  1.00  0.00     0.015 A
HETATM    3  C13 UNL     1     -12.294  47.218  -0.128  1.00  0.00    -0.061 A
HETATM    4  C14 UNL     1     -13.637  47.563  -0.698  1.00  0.00     0.048 C
HETATM    5  C15 UNL     1     -11.420  48.211   0.247  1.00  0.00     0.018 A
HETATM    6  C16 UNL     1     -10.163  47.954   0.783  1.00  0.00    -0.028 A
HETATM    7  C23 UNL     1      -9.849  46.595   0.918  1.00  0.00     0.021 A
ENDROOT
BRANCH   6   8
HETATM    8  C17 UNL     1      -9.253  49.002   1.183  1.00  0.00    -0.035 C
HETATM    9  C18 UNL     1      -9.158  49.505   2.383  1.00  0.00     0.012 C
HETATM   10  C20 UNL     1      -8.194  50.608   2.733  1.00  0.00     0.157 C
HETATM   11  N6  UNL     1      -7.049  50.672   1.901  1.00  0.00    -0.417 N
HETATM   12  C21 UNL     1      -6.985  49.739   0.823  1.00  0.00     0.118 C
ATOM     13  H6  UNL     1      -6.306  51.352   2.064  1.00  0.00     0.153 HD
HETATM   14  C22 UNL     1      -8.329  49.579   0.145  1.00  0.00     0.059 C
BRANCH   9  15
HETATM   15  C19 UNL     1     -10.005  49.019   3.482  1.00  0.00     0.139 A
HETATM   16  N2  UNL     1     -11.152  49.595   3.927  1.00  0.00    -0.270 N
HETATM   17  N3  UNL     1     -11.618  48.862   4.926  1.00  0.00    -0.007 NA
ATOM     18  H2  UNL     1     -11.580  50.444   3.556  1.00  0.00     0.185 HD
HETATM   19  N4  UNL     1     -10.808  47.818   5.149  1.00  0.00    -0.007 NA
HETATM   20  N5  UNL     1      -9.826  47.939   4.249  1.00  0.00    -0.270 N
ATOM     21  H5  UNL     1      -9.043  47.292   4.159  1.00  0.00     0.185 HD
ENDBRANCH   9  15
ENDBRANCH   6   8
BRANCH   1  22
HETATM   22  C10 UNL     1     -10.316  44.184   0.723  1.00  0.00     0.311 C
BRANCH  22  23
HETATM   23  N1  UNL     1      -8.953  43.957   0.244  1.00  0.00     0.097 N
HETATM   24  C6  UNL     1      -9.039  42.908  -0.785  1.00  0.00     0.223 C
HETATM   25  C7  UNL     1      -7.741  42.222  -0.740  1.00  0.00     0.037 C
HETATM   26  C8  UNL     1      -7.138  42.519   0.600  1.00  0.00     0.032 C
HETATM   27  C9  UNL     1      -8.179  43.311   1.298  1.00  0.00     0.273 C
BRANCH  24  28
HETATM   28  C5  UNL     1      -9.460  43.473  -2.086  1.00  0.00     0.036 C
BRANCH  28  29
HETATM   29  C4  UNL     1     -10.756  43.062  -2.641  1.00  0.00     0.006 C
BRANCH  29  30
HETATM   30  C3  UNL     1     -11.658  44.082  -3.230  1.00  0.00     0.026 C
BRANCH  30  31
HETATM   31  C2  UNL     1     -13.073  43.747  -2.812  1.00  0.00    -0.037 C
HETATM   32  C1  UNL     1     -14.074  44.543  -3.019  1.00  0.00     0.007 C
ENDBRANCH  30  31
ENDBRANCH  29  30
ENDBRANCH  28  29
ENDBRANCH  24  28
ENDBRANCH  22  23
ENDBRANCH   1  22
TORSDOF 8
ENDMDL