MODEL 2
REMARK VINA RESULT: -7.460244202      3.491      7.973
REMARK  7 active torsions:
REMARK  status: ('A' for Active; 'I' for Inactive)
REMARK    1  A    between atoms: O1_2  and  C2_3
REMARK    2  A    between atoms: C7_8  and  O2_9
REMARK    3  A    between atoms: N1_16  and  C14_17
REMARK    4  A    between atoms: C14_17  and  C15_18
REMARK    5  A    between atoms: C15_18  and  C16_19
REMARK    6  A    between atoms: C17_20  and  C18_21
REMARK    7  A    between atoms: C18_21  and  C19_22
ROOT
HETATM    1  C2  UNL     1      -5.381  44.155   3.020  1.00  0.00     0.102 A
HETATM    2  C3  UNL     1      -5.755  43.071   2.257  1.00  0.00     0.047 A
HETATM    3  C4  UNL     1      -6.705  43.233   1.269  1.00  0.00    -0.047 A
HETATM    4  C5  UNL     1      -7.300  44.449   1.016  1.00  0.00    -0.023 A
HETATM    5  C6  UNL     1      -6.902  45.522   1.802  1.00  0.00     0.049 A
HETATM    6  C7  UNL     1      -5.968  45.400   2.785  1.00  0.00     0.102 A
HETATM    7  C9  UNL     1      -8.251  44.260  -0.080  1.00  0.00     0.074 C
HETATM    8  C10 UNL     1      -7.723  43.101  -0.839  1.00  0.00     0.038 C
HETATM    9  C11 UNL     1      -7.259  42.200   0.318  1.00  0.00     0.042 C
HETATM   10  C12 UNL     1      -9.609  43.856   0.508  1.00  0.00     0.049 C
HETATM   11  C13 UNL     1     -10.258  45.245   0.592  1.00  0.00     0.112 C
HETATM   12  N1  UNL     1      -9.874  45.762  -0.722  1.00  0.00    -0.230 NA
HETATM   13  N5  UNL     1      -8.508  45.431  -0.854  1.00  0.00    -0.149 NA
ENDROOT
BRANCH  12  14
HETATM   14  C14 UNL     1     -10.065  47.198  -0.814  1.00  0.00     0.136 C
BRANCH  14  15
HETATM   15  C15 UNL     1     -11.165  47.595   0.083  1.00  0.00    -0.011 C
BRANCH  15  16
HETATM   16  C16 UNL     1     -12.379  48.257  -0.369  1.00  0.00    -0.003 C
HETATM   17  C17 UNL     1     -13.644  47.704  -0.754  1.00  0.00     0.003 C
BRANCH  17  18
HETATM   18  C18 UNL     1     -14.039  46.886  -1.866  1.00  0.00     0.050 C
BRANCH  18  19
HETATM   19  C19 UNL     1     -13.570  45.561  -2.192  1.00  0.00     0.121 A
HETATM   20  N2  UNL     1     -12.268  45.222  -2.478  1.00  0.00    -0.330 N
HETATM   21  C20 UNL     1     -12.168  43.912  -2.646  1.00  0.00     0.093 A
ATOM     22  H2  UNL     1     -11.494  45.882  -2.552  1.00  0.00     0.168 HD
HETATM   23  C21 UNL     1     -10.997  43.052  -2.965  1.00  0.00     0.090 C
HETATM   24  N3  UNL     1     -13.404  43.419  -2.468  1.00  0.00    -0.288 N
HETATM   25  N4  UNL     1     -14.242  44.371  -2.200  1.00  0.00    -0.284 N
ATOM     26  H3  UNL     1     -13.650  42.432  -2.534  1.00  0.00     0.188 HD
ATOM     27  H4  UNL     1     -15.240  44.251  -2.025  1.00  0.00     0.188 HD
ENDBRANCH  18  19
ENDBRANCH  17  18
ENDBRANCH  15  16
ENDBRANCH  14  15
ENDBRANCH  12  14
BRANCH   6  28
HETATM   28  O2  UNL     1      -5.591  46.490   3.553  1.00  0.00    -0.353 OA
HETATM   29  C8  UNL     1      -6.529  47.088   4.412  1.00  0.00     0.210 C
ENDBRANCH   6  28
BRANCH   1  30
HETATM   30  O1  UNL     1      -4.444  44.084   4.022  1.00  0.00    -0.353 OA
HETATM   31  C1  UNL     1      -4.797  43.816   5.367  1.00  0.00     0.210 C
ENDBRANCH   1  30
TORSDOF 7
ENDMDL