MODEL 1
REMARK VINA RESULT: -7.336032227      0.000      0.000
REMARK  8 active torsions:
REMARK  status: ('A' for Active; 'I' for Inactive)
REMARK    1  A    between atoms: C2_2  and  C3_3
REMARK    2  A    between atoms: C3_3  and  O1_4
REMARK    3  A    between atoms: C3_3  and  C5_6
REMARK    4  A    between atoms: C5_6  and  O2_7
REMARK    5  A    between atoms: C5_6  and  C11_20
REMARK    6  A    between atoms: O2_7  and  C6_8
REMARK    7  A    between atoms: C6_8  and  C7_9
REMARK    8  A    between atoms: N4_24  and  C15_25
ROOT
HETATM    1  C5  UNL     1     -11.687  44.859  -1.338  1.00  0.00     0.164 C
ENDROOT
BRANCH   1   2
HETATM    2  C3  UNL     1     -11.730  46.351  -1.234  1.00  0.00     0.150 C
BRANCH   2   3
HETATM    3  C2  UNL     1     -13.072  46.785  -0.608  1.00  0.00     0.030 C
HETATM    4  C1  UNL     1     -13.613  45.761   0.333  1.00  0.00     0.007 C
ENDBRANCH   2   3
BRANCH   2   5
HETATM    5  O1  UNL     1     -11.660  47.020  -2.439  1.00  0.00    -0.388 OA
HETATM    6  C4  UNL     1     -11.057  48.252  -2.400  1.00  0.00     0.202 C
ENDBRANCH   2   5
ENDBRANCH   1   2
BRANCH   1   7
HETATM    7  O2  UNL     1     -12.075  44.486  -2.628  1.00  0.00    -0.375 OA
BRANCH   7   8
HETATM    8  C6  UNL     1     -13.108  43.623  -2.742  1.00  0.00     0.245 C
BRANCH   8   9
HETATM    9  C7  UNL     1     -14.366  44.153  -3.307  1.00  0.00     0.106 A
HETATM   10  N1  UNL     1     -14.563  44.244  -4.629  1.00  0.00    -0.331 N
HETATM   11  C8  UNL     1     -15.675  44.721  -5.188  1.00  0.00     0.101 A
ATOM     12  H1  UNL     1     -13.815  43.928  -5.247  1.00  0.00     0.168 HD
HETATM   13  N2  UNL     1     -15.765  44.767  -6.463  1.00  0.00    -0.385 N
HETATM   14  C9  UNL     1     -16.700  45.153  -4.387  1.00  0.00     0.065 A
ATOM     15  H22 UNL     1     -15.002  44.445  -7.060  1.00  0.00     0.157 HD
ATOM     16  H21 UNL     1     -16.616  45.132  -6.890  1.00  0.00     0.157 HD
HETATM   17  C10 UNL     1     -16.520  45.069  -3.020  1.00  0.00     0.093 A
HETATM   18  N3  UNL     1     -15.363  44.573  -2.515  1.00  0.00    -0.354 N
ATOM     19  H3  UNL     1     -15.247  44.519  -1.503  1.00  0.00     0.166 HD
ENDBRANCH   8   9
ENDBRANCH   7   8
ENDBRANCH   1   7
BRANCH   1  20
HETATM   20  C11 UNL     1     -10.424  44.180  -1.044  1.00  0.00     0.109 C
HETATM   21  C12 UNL     1      -9.219  44.538  -1.853  1.00  0.00     0.018 C
HETATM   22  C13 UNL     1      -8.260  43.351  -1.828  1.00  0.00     0.021 C
HETATM   23  C14 UNL     1      -8.338  42.595  -0.528  1.00  0.00     0.126 C
HETATM   24  N4  UNL     1      -8.705  43.526   0.538  1.00  0.00    -0.347 N
HETATM   25  C21 UNL     1      -9.981  44.163   0.375  1.00  0.00     0.227 C
HETATM   26  O3  UNL     1     -10.567  44.614   1.352  1.00  0.00    -0.273 OA
BRANCH  24  27
HETATM   27  C15 UNL     1      -7.852  43.793   1.678  1.00  0.00     0.087 C
HETATM   28  C16 UNL     1      -7.187  45.138   1.614  1.00  0.00     0.025 C
HETATM   29  C17 UNL     1      -5.686  45.066   1.725  1.00  0.00     0.002 C
HETATM   30  C18 UNL     1      -5.355  44.384   3.032  1.00  0.00     0.000 C
HETATM   31  C19 UNL     1      -5.880  42.968   2.943  1.00  0.00     0.002 C
HETATM   32  C20 UNL     1      -6.741  42.744   1.744  1.00  0.00     0.025 C
ENDBRANCH  24  27
ENDBRANCH   1  20
TORSDOF 8
ENDMDL