MODEL 3
REMARK VINA RESULT: -6.566644945      1.303      2.703
REMARK  11 active torsions:
REMARK  status: ('A' for Active; 'I' for Inactive)
REMARK    1  A    between atoms: C2_2  and  O2_4
REMARK    2  A    between atoms: O2_4  and  C3_5
REMARK    3  A    between atoms: C3_5  and  C4_6
REMARK    4  A    between atoms: C4_6  and  C7_9
REMARK    5  A    between atoms: C7_9  and  C8_10
REMARK    6  A    between atoms: C8_10  and  C9_11
REMARK    7  A    between atoms: C10_12  and  C11_13
REMARK    8  A    between atoms: C11_13  and  C12_14
REMARK    9  A    between atoms: C12_14  and  C13_15
REMARK   10  A    between atoms: C21_24  and  O4_26
REMARK   11  A    between atoms: C23_28  and  O5_29
ROOT
HETATM    1  C13 UNL     1     -11.576  44.583  -0.025  1.00  0.00    -0.043 C
HETATM    2  C14 UNL     1     -10.964  44.736  -1.421  1.00  0.00     0.033 C
HETATM    3  C15 UNL     1     -10.481  46.165  -1.534  1.00  0.00     0.088 C
HETATM    4  C16 UNL     1     -11.576  46.908  -2.253  1.00  0.00     0.135 C
HETATM    5  O3  UNL     1     -11.488  47.999  -2.746  1.00  0.00    -0.297 OA
HETATM    6  C17 UNL     1     -12.757  45.959  -2.191  1.00  0.00     0.100 C
HETATM    7  C18 UNL     1     -12.019  44.687  -2.489  1.00  0.00    -0.027 C
HETATM    8  C19 UNL     1     -12.800  43.456  -2.605  1.00  0.00     0.016 C
HETATM    9  C20 UNL     1     -11.316  44.927  -3.826  1.00  0.00     0.016 C
HETATM   10  C21 UNL     1     -13.402  46.063  -0.874  1.00  0.00     0.095 C
HETATM   11  C22 UNL     1     -13.828  47.516  -0.670  1.00  0.00     0.050 C
HETATM   12  C23 UNL     1     -12.558  45.590   0.311  1.00  0.00     0.182 C
ENDROOT
BRANCH   1  13
HETATM   13  C12 UNL     1     -10.537  44.074   0.876  1.00  0.00     0.006 C
BRANCH  13  14
HETATM   14  C11 UNL     1      -9.479  43.158   0.503  1.00  0.00     0.000 C
BRANCH  14  15
HETATM   15  C10 UNL     1      -8.135  43.187   1.048  1.00  0.00    -0.004 C
HETATM   16  C9  UNL     1      -7.001  42.719   0.660  1.00  0.00    -0.027 C
BRANCH  16  17
HETATM   17  C8  UNL     1      -5.757  42.936   1.483  1.00  0.00     0.028 C
BRANCH  17  18
HETATM   18  C7  UNL     1      -6.081  43.186   2.904  1.00  0.00     0.014 C
BRANCH  18  19
HETATM   19  C4  UNL     1      -5.386  44.421   3.501  1.00  0.00    -0.025 C
HETATM   20  C5  UNL     1      -4.816  44.181   4.844  1.00  0.00     0.017 C
HETATM   21  C6  UNL     1      -4.245  44.695   2.489  1.00  0.00     0.017 C
BRANCH  19  22
HETATM   22  C3  UNL     1      -6.335  45.575   3.454  1.00  0.00     0.187 C
BRANCH  22  23
HETATM   23  O2  UNL     1      -6.451  46.258   2.323  1.00  0.00    -0.321 OA
BRANCH  23  24
HETATM   24  C2  UNL     1      -7.414  46.595   1.474  1.00  0.00     0.254 C
HETATM   25  C1  UNL     1      -7.158  46.654  -0.016  1.00  0.00     0.126 C
HETATM   26  O1  UNL     1      -8.556  46.873   1.882  1.00  0.00    -0.266 OA
ENDBRANCH  23  24
ENDBRANCH  22  23
ENDBRANCH  19  22
ENDBRANCH  18  19
ENDBRANCH  17  18
ENDBRANCH  16  17
ENDBRANCH  14  15
ENDBRANCH  13  14
ENDBRANCH   1  13
BRANCH  12  27
HETATM   27  O5  UNL     1     -13.475  45.197   1.318  1.00  0.00    -0.388 OA
ATOM     28  H5  UNL     1     -13.547  45.810   2.041  1.00  0.00     0.210 HD
ENDBRANCH  12  27
BRANCH  10  29
HETATM   29  O4  UNL     1     -14.575  45.315  -0.875  1.00  0.00    -0.386 OA
ATOM     30  H4  UNL     1     -14.366  44.403  -1.039  1.00  0.00     0.210 HD
ENDBRANCH  10  29
TORSDOF 11
ENDMDL