MODEL 5
REMARK VINA RESULT: -5.643784689      2.318      6.655
REMARK  11 active torsions:
REMARK  status: ('A' for Active; 'I' for Inactive)
REMARK    1  A    between atoms: C2_2  and  O1_3
REMARK    2  A    between atoms: O1_3  and  C3_4
REMARK    3  A    between atoms: C3_4  and  C4_6
REMARK    4  A    between atoms: C4_6  and  N1_7
REMARK       I    between atoms: N1_7  and  C5_8
REMARK    5  A    between atoms: N1_7  and  C16_25
REMARK    6  A    between atoms: C5_8  and  C6_10
REMARK    7  A    between atoms: C6_10  and  C7_12
REMARK    8  A    between atoms: C7_12  and  O4_13
REMARK    9  A    between atoms: C7_12  and  C8_15
REMARK   10  A    between atoms: C8_15  and  O5_17
REMARK   11  A    between atoms: C8_15  and  C10_19
ROOT
HETATM    1  C6  UNL     1      -9.814  47.664   0.947  1.00  0.00     0.182 C
HETATM    2  S1  UNL     1      -9.986  49.112   2.053  1.00  0.00    -0.080 SA
ENDROOT
BRANCH   1   3
HETATM    3  C5  UNL     1     -11.226  47.161   0.792  1.00  0.00     0.238 C
HETATM    4  N1  UNL     1     -12.113  47.603  -0.191  1.00  0.00    -0.333 N
HETATM    5  O3  UNL     1     -11.585  46.291   1.626  1.00  0.00    -0.272 OA
BRANCH   4   6
HETATM    6  C4  UNL     1     -13.457  47.005  -0.185  1.00  0.00     0.237 C
BRANCH   6   7
HETATM    7  C3  UNL     1     -13.629  45.957  -1.194  1.00  0.00     0.276 C
HETATM    8  O2  UNL     1     -14.246  46.122  -2.250  1.00  0.00    -0.263 OA
BRANCH   7   9
HETATM    9  O1  UNL     1     -13.073  44.710  -0.964  1.00  0.00    -0.321 OA
BRANCH   9  10
HETATM   10  C2  UNL     1     -11.918  44.271  -1.692  1.00  0.00     0.174 C
HETATM   11  C1  UNL     1     -12.293  43.092  -2.561  1.00  0.00     0.034 C
ENDBRANCH   9  10
ENDBRANCH   7   9
ENDBRANCH   6   7
ENDBRANCH   4   6
BRANCH   4  12
HETATM   12  C16 UNL     1     -11.853  48.546  -1.243  1.00  0.00     0.032 A
HETATM   13  C17 UNL     1     -11.144  47.944  -2.473  1.00  0.00     0.039 C
HETATM   14  C18 UNL     1     -11.680  49.990  -1.020  1.00  0.00     0.033 A
HETATM   15  C19 UNL     1     -12.966  49.501  -1.627  1.00  0.00     0.033 A
ENDBRANCH   4  12
ENDBRANCH   1   3
BRANCH   1  16
HETATM   16  C7  UNL     1      -8.929  46.593   1.524  1.00  0.00     0.176 C
BRANCH  16  17
HETATM   17  O4  UNL     1      -8.577  46.934   2.797  1.00  0.00    -0.391 OA
ATOM     18  H4  UNL     1      -9.009  46.352   3.411  1.00  0.00     0.210 HD
ENDBRANCH  16  17
BRANCH  16  19
HETATM   19  C8  UNL     1      -7.974  45.919   0.648  1.00  0.00     0.085 C
HETATM   20  C9  UNL     1      -8.049  46.624  -0.743  1.00  0.00     0.049 C
BRANCH  19  21
HETATM   21  O5  UNL     1      -6.679  46.279   1.090  1.00  0.00    -0.387 OA
ATOM     22  H5  UNL     1      -6.561  47.199   0.886  1.00  0.00     0.210 HD
ENDBRANCH  19  21
BRANCH  19  23
HETATM   23  C10 UNL     1      -8.015  44.497   0.345  1.00  0.00     0.022 C
HETATM   24  C11 UNL     1      -7.152  43.522   1.038  1.00  0.00     0.007 C
HETATM   25  C12 UNL     1      -7.024  42.277   0.131  1.00  0.00     0.000 C
HETATM   26  C13 UNL     1      -8.282  42.012  -0.633  1.00  0.00     0.000 C
HETATM   27  C14 UNL     1      -8.364  43.071  -1.710  1.00  0.00     0.000 C
HETATM   28  C15 UNL     1      -7.715  44.308  -1.157  1.00  0.00     0.007 C
ENDBRANCH  19  23
ENDBRANCH  16  19
ENDBRANCH   1  16
TORSDOF 11
ENDMDL