MODEL 4
REMARK VINA RESULT: -6.797289761      3.072      9.540
REMARK  9 active torsions:
REMARK  status: ('A' for Active; 'I' for Inactive)
REMARK    1  A    between atoms: C2_2  and  C3_3
REMARK    2  A    between atoms: C3_3  and  N1_4
REMARK    3  A    between atoms: C4_5  and  C5_6
REMARK    4  A    between atoms: C5_6  and  C6_7
REMARK    5  A    between atoms: C9_11  and  C10_12
REMARK    6  A    between atoms: C13_15  and  N3_16
REMARK    7  A    between atoms: N3_16  and  C14_18
REMARK    8  A    between atoms: C14_18  and  C15_19
REMARK    9  A    between atoms: C15_19  and  C16_20
ROOT
HETATM    1  C6  UNL     1     -10.773  43.772  -2.975  1.00  0.00    -0.010 C
HETATM    2  C7  UNL     1     -11.847  44.087  -3.658  1.00  0.00     0.090 C
HETATM    3  C8  UNL     1     -13.143  43.958  -3.065  1.00  0.00     0.087 C
HETATM    4  N2  UNL     1     -14.195  43.848  -2.597  1.00  0.00    -0.192 NA
ENDROOT
BRANCH   1   5
HETATM    5  C5  UNL     1     -10.813  43.281  -1.601  1.00  0.00     0.085 C
BRANCH   5   6
HETATM    6  C4  UNL     1     -10.057  44.108  -0.617  1.00  0.00     0.024 A
HETATM    7  N1  UNL     1     -10.609  45.142   0.050  1.00  0.00    -0.335 N
HETATM    8  C22 UNL     1      -9.624  45.643   0.820  1.00  0.00     0.123 A
HETATM    9  C12 UNL     1      -8.464  44.955   0.658  1.00  0.00     0.060 A
HETATM   10  N7  UNL     1      -9.677  46.682   1.666  1.00  0.00    -0.338 N
HETATM   11  C9  UNL     1      -8.724  43.943  -0.279  1.00  0.00    -0.018 A
HETATM   12  C13 UNL     1      -7.355  45.357   1.388  1.00  0.00     0.116 A
HETATM   13  N6  UNL     1      -7.447  46.398   2.222  1.00  0.00    -0.338 N
HETATM   14  C21 UNL     1      -8.619  47.083   2.374  1.00  0.00     0.183 A
ATOM     15  H6  UNL     1      -6.625  46.687   2.753  1.00  0.00     0.168 HD
ATOM     16  H7  UNL     1     -10.558  47.184   1.772  1.00  0.00     0.168 HD
BRANCH   7  17
HETATM   17  C3  UNL     1     -11.963  45.644  -0.005  1.00  0.00     0.130 C
BRANCH  17  18
HETATM   18  C2  UNL     1     -12.110  46.817  -0.973  1.00  0.00     0.016 C
HETATM   19  C1  UNL     1     -13.592  47.093  -1.118  1.00  0.00     0.006 C
ENDBRANCH  17  18
ENDBRANCH   7  17
BRANCH  11  20
HETATM   20  C10 UNL     1      -7.747  42.965  -0.727  1.00  0.00     0.037 C
HETATM   21  C11 UNL     1      -7.753  41.668   0.021  1.00  0.00     0.010 C
ENDBRANCH  11  20
BRANCH  12  22
HETATM   22  N3  UNL     1      -6.234  44.735   1.286  1.00  0.00    -0.375 N
ATOM     23  H3  UNL     1      -5.919  44.542   0.335  1.00  0.00     0.161 HD
BRANCH  22  24
HETATM   24  C14 UNL     1      -5.384  44.284   2.321  1.00  0.00     0.127 C
BRANCH  24  25
HETATM   25  C15 UNL     1      -6.220  43.674   3.458  1.00  0.00     0.078 C
BRANCH  25  26
HETATM   26  C16 UNL     1      -5.479  43.876   4.757  1.00  0.00     0.034 A
HETATM   27  N4  UNL     1      -4.690  42.975   5.346  1.00  0.00    -0.348 N
HETATM   28  C17 UNL     1      -4.199  43.484   6.503  1.00  0.00     0.077 A
ATOM     29  H4  UNL     1      -4.487  42.045   4.981  1.00  0.00     0.167 HD
HETATM   30  C18 UNL     1      -3.286  42.765   7.430  1.00  0.00     0.089 C
HETATM   31  N5  UNL     1      -4.703  44.729   6.620  1.00  0.00    -0.348 N
HETATM   32  C19 UNL     1      -5.493  44.990   5.557  1.00  0.00     0.029 A
ATOM     33  H5  UNL     1      -4.517  45.371   7.391  1.00  0.00     0.167 HD
HETATM   34  C20 UNL     1      -6.256  46.234   5.257  1.00  0.00     0.070 C
ENDBRANCH  25  26
ENDBRANCH  24  25
ENDBRANCH  22  24
ENDBRANCH  12  22
ENDBRANCH   5   6
ENDBRANCH   1   5
TORSDOF 9
ENDMDL