MODEL 5
REMARK VINA RESULT: -6.231303884      1.834      4.369
REMARK  10 active torsions:
REMARK  status: ('A' for Active; 'I' for Inactive)
REMARK    1  A    between atoms: C1_2  and  C2_4
REMARK    2  A    between atoms: C2_4  and  C3_5
REMARK    3  A    between atoms: C3_5  and  C4_6
REMARK    4  A    between atoms: C4_6  and  O3_7
REMARK    5  A    between atoms: O3_7  and  C5_8
REMARK    6  A    between atoms: C5_8  and  C6_10
REMARK    7  A    between atoms: C9_13  and  C10_14
REMARK    8  A    between atoms: C10_14  and  O5_15
REMARK    9  A    between atoms: C10_14  and  C11_17
REMARK   10  A    between atoms: C11_17  and  C12_18
ROOT
HETATM    1  C10 UNL     1     -11.886  45.692  -0.821  1.00  0.00     0.132 C
ENDROOT
BRANCH   1   2
HETATM    2  C9  UNL     1     -12.514  45.630  -2.155  1.00  0.00     0.029 C
HETATM    3  C6  UNL     1     -12.191  44.575  -3.145  1.00  0.00     0.092 C
HETATM    4  C7  UNL     1     -13.659  44.770  -3.630  1.00  0.00     0.015 C
HETATM    5  C8  UNL     1     -13.935  44.994  -2.132  1.00  0.00     0.009 C
BRANCH   3   6
HETATM    6  C5  UNL     1     -12.061  43.167  -2.784  1.00  0.00     0.263 C
HETATM    7  O4  UNL     1     -12.894  42.408  -2.285  1.00  0.00    -0.265 OA
BRANCH   6   8
HETATM    8  O3  UNL     1     -10.800  42.593  -3.041  1.00  0.00    -0.321 OA
BRANCH   8   9
HETATM    9  C4  UNL     1      -9.567  43.150  -2.779  1.00  0.00     0.179 C
BRANCH   9  10
HETATM   10  C3  UNL     1      -9.220  43.043  -1.322  1.00  0.00     0.037 C
BRANCH  10  11
HETATM   11  C2  UNL     1      -7.750  43.339  -1.073  1.00  0.00     0.115 C
BRANCH  11  12
HETATM   12  C1  UNL     1      -7.253  42.389  -0.053  1.00  0.00     0.172 C
HETATM   13  O1  UNL     1      -7.713  41.204   0.031  1.00  0.00    -0.648 OA
HETATM   14  O2  UNL     1      -6.278  42.787   0.820  1.00  0.00    -0.648 OA
ENDBRANCH  11  12
ENDBRANCH  10  11
ENDBRANCH   9  10
ENDBRANCH   8   9
ENDBRANCH   6   8
ENDBRANCH   3   6
ENDBRANCH   1   2
BRANCH   1  15
HETATM   15  O5  UNL     1     -12.590  45.141   0.224  1.00  0.00    -0.394 OA
ATOM     16  H5  UNL     1     -12.283  45.340   1.101  1.00  0.00     0.210 HD
ENDBRANCH   1  15
BRANCH   1  17
HETATM   17  C11 UNL     1     -11.334  47.072  -0.562  1.00  0.00    -0.006 C
HETATM   18  C18 UNL     1     -11.413  47.878  -1.850  1.00  0.00     0.039 C
HETATM   19  C19 UNL     1     -11.913  49.303  -1.593  1.00  0.00     0.168 C
HETATM   20  O6  UNL     1     -11.208  49.819  -0.521  1.00  0.00    -0.391 OA
HETATM   21  C20 UNL     1     -11.441  49.184   0.672  1.00  0.00     0.168 C
HETATM   22  C21 UNL     1     -12.120  47.845   0.461  1.00  0.00     0.039 C
BRANCH  17  23
HETATM   23  C12 UNL     1      -9.896  47.051  -0.153  1.00  0.00    -0.003 C
HETATM   24  C13 UNL     1      -9.531  45.995   0.859  1.00  0.00     0.005 C
HETATM   25  C14 UNL     1      -8.242  46.535   1.512  1.00  0.00     0.000 C
HETATM   26  C15 UNL     1      -7.156  46.697   0.477  1.00  0.00     0.000 C
HETATM   27  C16 UNL     1      -7.593  47.280  -0.817  1.00  0.00     0.000 C
HETATM   28  C17 UNL     1      -8.935  46.801  -1.306  1.00  0.00     0.005 C
ENDBRANCH  17  23
ENDBRANCH   1  17
TORSDOF 10
ENDMDL