MODEL 5
REMARK VINA RESULT: -6.674325673      4.008     10.039
REMARK  8 active torsions:
REMARK  status: ('A' for Active; 'I' for Inactive)
REMARK    1  A    between atoms: C2_2  and  O1_3
REMARK    2  A    between atoms: O1_3  and  C3_4
REMARK    3  A    between atoms: C8_9  and  O2_10
REMARK    4  A    between atoms: O2_10  and  C9_11
REMARK    5  A    between atoms: C12_17  and  C14_19
REMARK    6  A    between atoms: C14_19  and  N2_20
REMARK    7  A    between atoms: N2_20  and  C15_22
REMARK    8  A    between atoms: C15_22  and  C16_23
ROOT
HETATM    1  C3  UNL     1     -12.322  44.764  -2.125  1.00  0.00     0.102 A
HETATM    2  C4  UNL     1     -11.149  44.139  -2.434  1.00  0.00     0.047 A
HETATM    3  C5  UNL     1     -10.196  43.814  -1.454  1.00  0.00    -0.047 A
HETATM    4  C6  UNL     1     -10.512  44.160  -0.176  1.00  0.00    -0.024 A
HETATM    5  C7  UNL     1     -11.701  44.798   0.171  1.00  0.00     0.049 A
HETATM    6  C8  UNL     1     -12.620  45.108  -0.797  1.00  0.00     0.102 A
HETATM    7  C11 UNL     1      -9.743  43.949   1.062  1.00  0.00     0.272 C
HETATM    8  N1  UNL     1      -8.314  44.107   0.922  1.00  0.00    -0.061 N
ATOM      9  H11 UNL     1      -7.865  44.135   1.838  1.00  0.00     0.278 HD
ATOM     10  H12 UNL     1      -8.088  45.045   0.592  1.00  0.00     0.278 HD
HETATM   11  C12 UNL     1      -7.706  43.128   0.097  1.00  0.00     0.138 C
HETATM   12  C13 UNL     1      -8.264  41.736   0.328  1.00  0.00     0.048 C
HETATM   13  C22 UNL     1      -7.716  43.452  -1.360  1.00  0.00     0.045 C
HETATM   14  C23 UNL     1      -9.024  43.142  -2.023  1.00  0.00     0.042 C
ENDROOT
BRANCH  11  15
HETATM   15  C14 UNL     1      -6.215  43.037   0.522  1.00  0.00     0.157 C
BRANCH  15  16
HETATM   16  N2  UNL     1      -6.100  42.729   1.900  1.00  0.00    -0.399 N
ATOM     17  H2  UNL     1      -6.628  41.962   2.315  1.00  0.00     0.158 HD
BRANCH  16  18
HETATM   18  C15 UNL     1      -5.244  43.509   2.662  1.00  0.00     0.060 C
BRANCH  18  19
HETATM   19  C16 UNL     1      -5.737  44.088   3.939  1.00  0.00     0.027 C
HETATM   20  C17 UNL     1      -4.971  43.764   5.160  1.00  0.00     0.040 C
HETATM   21  C18 UNL     1      -4.853  45.001   6.045  1.00  0.00     0.272 C
HETATM   22  N3  UNL     1      -6.062  45.750   6.158  1.00  0.00     0.084 N
HETATM   23  C19 UNL     1      -5.856  46.823   7.112  1.00  0.00     0.309 C
HETATM   24  C20 UNL     1      -6.541  46.260   4.889  1.00  0.00     0.272 C
HETATM   25  C21 UNL     1      -5.859  45.596   3.716  1.00  0.00     0.040 C
ENDBRANCH  18  19
ENDBRANCH  16  18
ENDBRANCH  15  16
ENDBRANCH  11  15
BRANCH   6  26
HETATM   26  O2  UNL     1     -13.827  45.733  -0.575  1.00  0.00    -0.349 OA
BRANCH  26  27
HETATM   27  C9  UNL     1     -13.909  47.079  -0.234  1.00  0.00     0.171 C
HETATM   28  C10 UNL     1     -13.743  48.052  -1.360  1.00  0.00     0.034 C
ENDBRANCH  26  27
ENDBRANCH   6  26
BRANCH   1  29
HETATM   29  O1  UNL     1     -13.263  45.080  -3.100  1.00  0.00    -0.349 OA
BRANCH  29  30
HETATM   30  C2  UNL     1     -14.115  44.103  -3.666  1.00  0.00     0.171 C
HETATM   31  C1  UNL     1     -15.536  44.466  -3.304  1.00  0.00     0.034 C
ENDBRANCH  29  30
ENDBRANCH   1  29
TORSDOF 8
ENDMDL