MODEL 3
REMARK VINA RESULT: -5.083487056      3.141      6.156
REMARK  9 active torsions:
REMARK  status: ('A' for Active; 'I' for Inactive)
REMARK    1  A    between atoms: C2_2  and  N1_3
REMARK    2  A    between atoms: N1_3  and  C3_4
REMARK       I    between atoms: N1_3  and  C9_12
REMARK    3  A    between atoms: C3_4  and  C4_5
REMARK    4  A    between atoms: C4_5  and  N2_6
REMARK    5  A    between atoms: C9_12  and  C10_14
REMARK    6  A    between atoms: C11_17  and  N4_18
REMARK    7  A    between atoms: C12_22  and  C13_23
REMARK    8  A    between atoms: C13_23  and  C15_25
REMARK    9  A    between atoms: C13_23  and  C17_27
ROOT
HETATM    1  C10 UNL     1      -7.328  46.270   2.284  1.00  0.00     0.117 A
HETATM    2  N3  UNL     1      -8.080  47.217   2.832  1.00  0.00    -0.332 N
ATOM      3  H3  UNL     1      -8.776  47.701   2.265  1.00  0.00     0.168 HD
HETATM    4  C11 UNL     1      -7.932  47.537   4.110  1.00  0.00     0.143 A
HETATM    5  S2  UNL     1      -6.703  46.498   4.603  1.00  0.00    -0.056 SA
HETATM    6  C12 UNL     1      -6.404  45.656   3.113  1.00  0.00     0.027 A
ENDROOT
BRANCH   1   7
HETATM    7  C9  UNL     1      -7.421  45.887   0.879  1.00  0.00     0.271 C
HETATM    8  N1  UNL     1      -8.242  44.949   0.219  1.00  0.00    -0.345 N
HETATM    9  O1  UNL     1      -6.649  46.469   0.019  1.00  0.00    -0.266 OA
BRANCH   8  10
HETATM   10  C2  UNL     1      -8.021  44.863  -1.281  1.00  0.00     0.121 C
HETATM   11  C1  UNL     1      -8.032  43.426  -1.719  1.00  0.00     0.026 C
ENDBRANCH   8  10
BRANCH   8  12
HETATM   12  C3  UNL     1      -9.231  44.053   0.685  1.00  0.00     0.156 C
BRANCH  12  13
HETATM   13  C4  UNL     1     -10.540  44.652   1.076  1.00  0.00     0.292 C
BRANCH  13  14
HETATM   14  N2  UNL     1     -11.261  45.321   0.012  1.00  0.00     0.091 N
HETATM   15  C5  UNL     1     -12.580  45.740   0.503  1.00  0.00     0.282 C
HETATM   16  C6  UNL     1     -12.954  46.989  -0.253  1.00  0.00     0.104 C
HETATM   17  S1  UNL     1     -12.104  46.941  -1.869  1.00  0.00    -0.166 SA
HETATM   18  C7  UNL     1     -11.893  45.183  -2.290  1.00  0.00     0.104 C
HETATM   19  C8  UNL     1     -11.569  44.360  -1.065  1.00  0.00     0.282 C
ENDBRANCH  13  14
ENDBRANCH  12  13
ENDBRANCH   8  12
ENDBRANCH   1   7
BRANCH   6  20
HETATM   20  C13 UNL     1      -5.356  44.667   3.037  1.00  0.00    -0.009 C
HETATM   21  C14 UNL     1      -4.685  44.497   4.390  1.00  0.00     0.021 C
BRANCH  20  22
HETATM   22  C15 UNL     1      -4.332  44.707   1.974  1.00  0.00     0.010 C
HETATM   23  C16 UNL     1      -3.017  45.148   2.643  1.00  0.00     0.006 C
ENDBRANCH  20  22
BRANCH  20  24
HETATM   24  C17 UNL     1      -6.030  43.274   2.806  1.00  0.00     0.010 C
HETATM   25  C18 UNL     1      -5.781  42.681   1.482  1.00  0.00     0.006 C
ENDBRANCH  20  24
ENDBRANCH   6  20
BRANCH   4  26
HETATM   26  N4  UNL     1      -8.592  48.442   4.807  1.00  0.00    -0.380 N
ATOM     27  H42 UNL     1      -9.524  48.825   4.650  1.00  0.00     0.158 HD
ATOM     28  H41 UNL     1      -8.288  48.938   5.644  1.00  0.00     0.158 HD
ENDBRANCH   4  26
TORSDOF 9
ENDMDL