MODEL 4
REMARK VINA RESULT: -6.635719358      3.330      5.848
REMARK  9 active torsions:
REMARK  status: ('A' for Active; 'I' for Inactive)
REMARK    1  A    between atoms: C7_11  and  C8_12
REMARK    2  A    between atoms: C8_12  and  C9_13
REMARK    3  A    between atoms: C9_13  and  O2_14
REMARK    4  A    between atoms: O2_14  and  C10_15
REMARK    5  A    between atoms: C10_15  and  C11_16
REMARK    6  A    between atoms: C11_16  and  O3_17
REMARK    7  A    between atoms: C11_16  and  C12_19
REMARK    8  A    between atoms: C12_19  and  C13_20
REMARK    9  A    between atoms: C13_20  and  C14_21
ROOT
HETATM    1  C1  UNL     1     -11.893  46.736  -2.303  1.00  0.00     0.055 C
HETATM    2  C2  UNL     1     -11.773  45.340  -1.782  1.00  0.00     0.122 C
HETATM    3  C3  UNL     1     -11.802  44.429  -2.935  1.00  0.00     0.091 C
HETATM    4  N1  UNL     1     -11.812  43.702  -3.833  1.00  0.00    -0.195 NA
HETATM    5  N2  UNL     1     -12.888  45.062  -0.899  1.00  0.00    -0.339 N
ATOM      6  H2  UNL     1     -13.753  44.671  -1.273  1.00  0.00     0.164 HD
HETATM    7  C4  UNL     1     -12.770  45.334   0.489  1.00  0.00     0.218 C
HETATM    8  O1  UNL     1     -13.795  45.202   1.200  1.00  0.00    -0.274 OA
HETATM    9  C5  UNL     1     -11.517  45.763   1.147  1.00  0.00     0.103 C
HETATM   10  C6  UNL     1     -10.402  45.991   0.153  1.00  0.00     0.017 C
HETATM   11  C7  UNL     1     -10.499  45.080  -1.035  1.00  0.00     0.030 C
ENDROOT
BRANCH  11  12
HETATM   12  C8  UNL     1     -10.415  43.625  -0.705  1.00  0.00     0.034 C
BRANCH  12  13
HETATM   13  C9  UNL     1      -9.032  43.072  -1.170  1.00  0.00     0.168 C
BRANCH  13  14
HETATM   14  O2  UNL     1      -8.522  42.444  -0.077  1.00  0.00    -0.389 OA
BRANCH  14  15
HETATM   15  C10 UNL     1      -7.178  42.372   0.064  1.00  0.00     0.199 C
BRANCH  15  16
HETATM   16  C11 UNL     1      -6.632  42.943   1.323  1.00  0.00     0.142 C
BRANCH  16  17
HETATM   17  O3  UNL     1      -5.229  43.151   1.231  1.00  0.00    -0.393 OA
ATOM     18  H3  UNL     1      -4.862  43.409   2.069  1.00  0.00     0.210 HD
ENDBRANCH  16  17
BRANCH  16  19
HETATM   19  C12 UNL     1      -7.238  44.283   1.594  1.00  0.00     0.034 C
BRANCH  19  20
HETATM   20  C13 UNL     1      -6.394  45.474   1.667  1.00  0.00     0.012 C
BRANCH  20  21
HETATM   21  C14 UNL     1      -6.632  46.637   0.784  1.00  0.00    -0.039 C
HETATM   22  C15 UNL     1      -7.419  47.727   1.488  1.00  0.00     0.014 C
HETATM   23  C16 UNL     1      -7.491  48.967   0.657  1.00  0.00    -0.013 C
HETATM   24  C17 UNL     1      -8.124  48.614  -0.660  1.00  0.00     0.009 C
HETATM   25  C21 UNL     1      -6.101  49.545   0.504  1.00  0.00     0.009 C
HETATM   26  C18 UNL     1      -7.200  47.691  -1.380  1.00  0.00    -0.013 C
HETATM   27  C19 UNL     1      -5.826  48.272  -1.585  1.00  0.00     0.009 C
HETATM   28  C23 UNL     1      -7.032  46.385  -0.625  1.00  0.00     0.014 C
HETATM   29  C20 UNL     1      -5.260  48.523  -0.196  1.00  0.00    -0.013 C
HETATM   30  C22 UNL     1      -5.200  47.277   0.636  1.00  0.00     0.014 C
ENDBRANCH  20  21
ENDBRANCH  19  20
ENDBRANCH  16  19
ENDBRANCH  15  16
ENDBRANCH  14  15
ENDBRANCH  13  14
ENDBRANCH  12  13
ENDBRANCH  11  12
TORSDOF 9
ENDMDL