MODEL 1
REMARK VINA RESULT: -6.954222594      0.000      0.000
REMARK  11 active torsions:
REMARK  status: ('A' for Active; 'I' for Inactive)
REMARK    1  A    between atoms: C2_2  and  C3_3
REMARK    2  A    between atoms: C3_3  and  O1_4
REMARK    3  A    between atoms: O1_4  and  C4_5
REMARK    4  A    between atoms: C12_13  and  C13_14
REMARK    5  A    between atoms: C13_14  and  C14_15
REMARK    6  A    between atoms: C19_20  and  C20_21
REMARK    7  A    between atoms: C20_21  and  O2_22
REMARK    8  A    between atoms: C20_21  and  C21_24
REMARK    9  A    between atoms: C21_24  and  N1_25
REMARK   10  A    between atoms: N1_25  and  C22_27
REMARK   11  A    between atoms: C25_30  and  O3_31
ROOT
HETATM    1  C14 UNL     1      -6.973  46.636   0.912  1.00  0.00    -0.057 A
HETATM    2  C15 UNL     1      -6.847  47.456  -0.217  1.00  0.00     0.007 A
HETATM    3  C16 UNL     1      -7.909  48.094  -0.807  1.00  0.00     0.008 A
HETATM    4  C17 UNL     1      -9.179  47.929  -0.271  1.00  0.00    -0.053 A
HETATM    5  C18 UNL     1     -10.357  48.624  -0.910  1.00  0.00     0.049 C
HETATM    6  C19 UNL     1      -9.341  47.131   0.835  1.00  0.00    -0.018 A
HETATM    7  C28 UNL     1      -8.250  46.508   1.398  1.00  0.00     0.017 A
ENDROOT
BRANCH   1   8
HETATM    8  C13 UNL     1      -5.776  45.956   1.466  1.00  0.00     0.044 C
BRANCH   8   9
HETATM    9  C12 UNL     1      -6.150  45.039   2.542  1.00  0.00     0.004 C
HETATM   10  C7  UNL     1      -5.169  44.833   3.637  1.00  0.00    -0.010 C
HETATM   11  C4  UNL     1      -5.153  45.927   4.709  1.00  0.00     0.130 C
HETATM   12  C6  UNL     1      -3.735  45.096   3.445  1.00  0.00     0.015 C
HETATM   13  C8  UNL     1      -5.450  43.496   4.255  1.00  0.00     0.013 C
HETATM   14  C5  UNL     1      -3.699  45.569   4.911  1.00  0.00     0.034 C
HETATM   15  C9  UNL     1      -6.650  42.979   3.503  1.00  0.00     0.005 C
HETATM   16  C10 UNL     1      -6.444  43.628   2.115  1.00  0.00    -0.013 C
HETATM   17  C11 UNL     1      -5.319  42.904   1.465  1.00  0.00     0.010 C
BRANCH  11  18
HETATM   18  O1  UNL     1      -5.999  45.728   5.782  1.00  0.00    -0.381 OA
BRANCH  18  19
HETATM   19  C3  UNL     1      -6.639  46.952   6.088  1.00  0.00     0.194 C
BRANCH  19  20
HETATM   20  C2  UNL     1      -7.573  47.364   5.016  1.00  0.00    -0.011 C
HETATM   21  C1  UNL     1      -7.597  48.586   4.538  1.00  0.00     0.009 C
ENDBRANCH  19  20
ENDBRANCH  18  19
ENDBRANCH  11  18
ENDBRANCH   8   9
ENDBRANCH   1   8
BRANCH   6  22
HETATM   22  C20 UNL     1     -10.729  46.973   1.373  1.00  0.00     0.189 C
BRANCH  22  23
HETATM   23  O2  UNL     1     -10.737  47.282   2.745  1.00  0.00    -0.386 OA
ATOM     24  H2  UNL     1     -11.630  47.269   3.067  1.00  0.00     0.210 HD
ENDBRANCH  22  23
BRANCH  22  25
HETATM   25  C21 UNL     1     -11.261  45.604   1.161  1.00  0.00     0.092 C
BRANCH  25  26
HETATM   26  N1  UNL     1     -11.219  45.174  -0.157  1.00  0.00    -0.395 N
ATOM     27  H1  UNL     1     -11.895  45.598  -0.792  1.00  0.00     0.159 HD
BRANCH  26  28
HETATM   28  C22 UNL     1     -10.371  44.243  -0.704  1.00  0.00     0.081 C
HETATM   29  C23 UNL     1      -9.782  43.170   0.139  1.00  0.00     0.027 C
HETATM   30  C24 UNL     1      -8.497  42.663  -0.492  1.00  0.00     0.034 C
HETATM   31  C25 UNL     1      -8.403  42.884  -1.958  1.00  0.00     0.118 C
HETATM   32  C26 UNL     1      -9.677  42.993  -2.709  1.00  0.00     0.034 C
HETATM   33  C27 UNL     1     -10.850  43.568  -1.991  1.00  0.00     0.027 C
BRANCH  31  34
HETATM   34  O3  UNL     1      -7.511  43.945  -2.278  1.00  0.00    -0.396 OA
ATOM     35  H3  UNL     1      -7.724  44.347  -3.111  1.00  0.00     0.210 HD
ENDBRANCH  31  34
ENDBRANCH  26  28
ENDBRANCH  25  26
ENDBRANCH  22  25
ENDBRANCH   6  22
TORSDOF 11
ENDMDL