MODEL 4
REMARK VINA RESULT: -6.338348046      0.575      1.254
REMARK  12 active torsions:
REMARK  status: ('A' for Active; 'I' for Inactive)
REMARK    1  A    between atoms: C2_2  and  N1_3
REMARK    2  A    between atoms: N1_3  and  C3_4
REMARK    3  A    between atoms: N1_3  and  C5_6
REMARK    4  A    between atoms: C5_6  and  C6_7
REMARK    5  A    between atoms: C7_8  and  C8_9
REMARK    6  A    between atoms: C8_9  and  N2_11
REMARK    7  A    between atoms: N2_11  and  C10_13
REMARK    8  A    between atoms: C11_16  and  N4_17
REMARK    9  A    between atoms: N4_17  and  C12_19
REMARK   10  A    between atoms: C12_19  and  C13_20
REMARK   11  A    between atoms: C14_21  and  C15_22
REMARK   12  A    between atoms: C15_22  and  C18_25
ROOT
HETATM    1  C10 UNL     1      -9.547  44.035   0.770  1.00  0.00     0.683 A
HETATM    2  N3  UNL     1      -8.458  43.722   1.482  1.00  0.00    -0.177 N
ATOM      3  H3  UNL     1      -8.465  43.935   2.479  1.00  0.00     0.185 HD
HETATM    4  C11 UNL     1      -7.355  43.147   0.972  1.00  0.00     0.122 A
HETATM    5  C25 UNL     1      -7.330  42.854  -0.376  1.00  0.00     0.123 A
HETATM    6  C26 UNL     1      -8.460  43.178  -1.123  1.00  0.00     0.263 A
HETATM    7  O1  UNL     1      -8.423  42.906  -2.354  1.00  0.00    -0.268 OA
HETATM    8  N5  UNL     1      -9.529  43.749  -0.568  1.00  0.00    -0.156 N
ATOM      9  H5  UNL     1     -10.341  43.974  -1.144  1.00  0.00     0.187 HD
ENDROOT
BRANCH   4  10
HETATM   10  N4  UNL     1      -6.227  42.837   1.806  1.00  0.00    -0.365 N
ATOM     11  H4  UNL     1      -6.257  42.011   2.405  1.00  0.00     0.162 HD
BRANCH  10  12
HETATM   12  C12 UNL     1      -5.056  43.674   1.809  1.00  0.00     0.215 C
BRANCH  12  13
HETATM   13  C13 UNL     1      -5.404  45.097   1.799  1.00  0.00    -0.086 C
HETATM   14  C14 UNL     1      -5.704  46.278   1.813  1.00  0.00    -0.095 C
BRANCH  14  15
HETATM   15  C15 UNL     1      -6.069  47.695   1.856  1.00  0.00     0.020 C
HETATM   16  C16 UNL     1      -7.315  47.888   2.632  1.00  0.00     0.029 C
HETATM   17  C17 UNL     1      -4.946  48.464   2.569  1.00  0.00     0.029 C
BRANCH  15  18
HETATM   18  C18 UNL     1      -6.102  48.192   0.444  1.00  0.00     0.005 C
HETATM   19  C19 UNL     1      -6.584  47.223  -0.562  1.00  0.00     0.006 C
HETATM   20  C20 UNL     1      -8.047  47.077  -0.724  1.00  0.00     0.000 C
HETATM   21  C21 UNL     1      -8.817  48.315  -0.981  1.00  0.00     0.000 C
HETATM   22  C22 UNL     1      -8.097  49.342  -1.801  1.00  0.00     0.000 C
HETATM   23  C23 UNL     1      -6.888  49.909  -1.140  1.00  0.00     0.000 C
HETATM   24  C24 UNL     1      -6.753  49.563   0.321  1.00  0.00     0.006 C
ENDBRANCH  15  18
ENDBRANCH  14  15
ENDBRANCH  12  13
ENDBRANCH  10  12
ENDBRANCH   4  10
BRANCH   1  25
HETATM   25  N2  UNL     1     -10.605  44.571   1.237  1.00  0.00    -0.218 N
ATOM     26  H2  UNL     1     -11.096  44.065   1.975  1.00  0.00     0.178 HD
BRANCH  25  27
HETATM   27  C8  UNL     1     -11.172  45.836   0.810  1.00  0.00     0.118 C
HETATM   28  C9  UNL     1     -10.839  46.937   1.800  1.00  0.00     0.037 C
BRANCH  27  29
HETATM   29  C7  UNL     1     -12.647  45.688   0.776  1.00  0.00    -0.004 C
HETATM   30  C6  UNL     1     -13.297  45.588  -0.364  1.00  0.00     0.001 C
BRANCH  30  31
HETATM   31  C5  UNL     1     -12.578  45.618  -1.656  1.00  0.00     0.299 C
BRANCH  31  32
HETATM   32  N1  UNL     1     -13.435  44.978  -2.644  1.00  0.00     0.091 N
BRANCH  32  33
HETATM   33  C2  UNL     1     -13.067  43.632  -2.941  1.00  0.00     0.268 C
HETATM   34  C1  UNL     1     -11.623  43.472  -3.344  1.00  0.00     0.037 C
ENDBRANCH  32  33
BRANCH  32  35
HETATM   35  C3  UNL     1     -14.841  45.141  -2.359  1.00  0.00     0.268 C
HETATM   36  C4  UNL     1     -15.610  44.351  -3.401  1.00  0.00     0.037 C
ENDBRANCH  32  35
ENDBRANCH  31  32
ENDBRANCH  30  31
ENDBRANCH  27  29
ENDBRANCH  25  27
ENDBRANCH   1  25
TORSDOF 12
ENDMDL