MODEL 3
REMARK VINA RESULT: -7.744004460      2.560      3.639
REMARK  8 active torsions:
REMARK  status: ('A' for Active; 'I' for Inactive)
REMARK    1  A    between atoms: O1_2  and  C2_3
REMARK    2  A    between atoms: C4_5  and  C5_6
REMARK    3  A    between atoms: C8_9  and  N1_10
REMARK       I    between atoms: N1_10  and  C9_11
REMARK    4  A    between atoms: N1_10  and  C13_17
REMARK    5  A    between atoms: C9_11  and  C10_13
REMARK    6  A    between atoms: C10_13  and  C11_14
REMARK    7  A    between atoms: C11_14  and  C12_15
REMARK    8  A    between atoms: C22_26  and  N2_27
ROOT
HETATM    1  C5  UNL     1      -7.688  43.454   1.055  1.00  0.00     0.021 C
HETATM    2  C6  UNL     1      -6.665  42.478   0.509  1.00  0.00     0.011 C
HETATM    3  C7  UNL     1      -5.544  42.681   1.539  1.00  0.00     0.026 C
HETATM    4  C8  UNL     1      -5.470  44.189   1.584  1.00  0.00     0.088 C
HETATM    5  C19 UNL     1      -6.872  44.676   1.472  1.00  0.00     0.034 C
ENDROOT
BRANCH   1   6
HETATM    6  C4  UNL     1      -8.772  43.767   0.125  1.00  0.00    -0.051 A
HETATM    7  C3  UNL     1      -9.877  44.470   0.585  1.00  0.00     0.046 A
HETATM    8  C2  UNL     1     -10.926  44.794  -0.238  1.00  0.00     0.095 A
HETATM    9  C22 UNL     1     -10.921  44.424  -1.576  1.00  0.00     0.068 A
HETATM   10  C21 UNL     1      -9.837  43.729  -2.043  1.00  0.00     0.033 A
HETATM   11  C20 UNL     1      -8.784  43.409  -1.205  1.00  0.00     0.010 A
BRANCH   8  12
HETATM   12  O1  UNL     1     -12.008  45.496   0.263  1.00  0.00    -0.354 OA
HETATM   13  C1  UNL     1     -11.923  46.851   0.616  1.00  0.00     0.210 C
ENDBRANCH   8  12
BRANCH   9  14
HETATM   14  N2  UNL     1     -12.029  44.784  -2.363  1.00  0.00    -0.331 N
HETATM   15  C23 UNL     1     -12.959  43.999  -2.749  1.00  0.00     0.201 C
HETATM   16  N3  UNL     1     -14.016  44.494  -3.539  1.00  0.00    -0.066 NA
HETATM   17  N4  UNL     1     -12.926  42.639  -2.385  1.00  0.00    -0.066 NA
ATOM     18  H2  UNL     1     -12.097  45.760  -2.651  1.00  0.00     0.168 HD
ENDBRANCH   9  14
ENDBRANCH   1   6
BRANCH   4  19
HETATM   19  N1  UNL     1      -4.751  44.660   2.747  1.00  0.00    -0.343 N
HETATM   20  C9  UNL     1      -5.177  44.226   4.028  1.00  0.00     0.220 C
HETATM   21  O2  UNL     1      -6.151  43.460   4.203  1.00  0.00    -0.273 OA
BRANCH  20  22
HETATM   22  C10 UNL     1      -4.455  44.681   5.266  1.00  0.00     0.103 C
BRANCH  22  23
HETATM   23  C11 UNL     1      -4.039  43.492   6.085  1.00  0.00     0.020 C
BRANCH  23  24
HETATM   24  C12 UNL     1      -4.032  43.938   7.549  1.00  0.00     0.086 C
HETATM   25  S1  UNL     1      -3.616  42.604   8.671  1.00  0.00    -0.098 SA
ENDBRANCH  23  24
ENDBRANCH  22  23
ENDBRANCH  20  22
BRANCH  19  26
HETATM   26  C13 UNL     1      -3.616  45.560   2.640  1.00  0.00     0.087 C
HETATM   27  C14 UNL     1      -3.984  46.934   2.194  1.00  0.00     0.025 C
HETATM   28  C15 UNL     1      -3.412  47.301   0.842  1.00  0.00     0.002 C
HETATM   29  C16 UNL     1      -1.904  47.282   0.852  1.00  0.00     0.000 C
HETATM   30  C17 UNL     1      -1.452  46.062   1.600  1.00  0.00     0.002 C
HETATM   31  C18 UNL     1      -2.575  45.021   1.677  1.00  0.00     0.025 C
ENDBRANCH  19  26
ENDBRANCH   4  19
TORSDOF 8
ENDMDL