MODEL 2
REMARK VINA RESULT: -6.540048479      1.184      1.938
REMARK  12 active torsions:
REMARK  status: ('A' for Active; 'I' for Inactive)
REMARK    1  A    between atoms: C2_2  and  C3_3
REMARK    2  A    between atoms: C4_4  and  C5_5
REMARK    3  A    between atoms: C5_5  and  O1_6
REMARK    4  A    between atoms: C8_10  and  C9_11
REMARK    5  A    between atoms: C9_11  and  C11_13
REMARK    6  A    between atoms: C11_13  and  C12_14
REMARK    7  A    between atoms: C13_17  and  N1_18
REMARK    8  A    between atoms: N1_18  and  C14_21
REMARK    9  A    between atoms: C14_21  and  C15_22
REMARK   10  A    between atoms: C15_22  and  C16_23
REMARK   11  A    between atoms: C16_23  and  N2_24
REMARK   12  A    between atoms: N2_24  and  C18_26
ROOT
HETATM    1  C5  UNL     1     -12.968  44.149  -2.422  1.00  0.00     0.141 C
HETATM    2  C6  UNL     1     -13.123  44.778  -1.115  1.00  0.00     0.020 C
HETATM    3  C7  UNL     1     -12.226  45.481  -0.457  1.00  0.00    -0.020 C
HETATM    4  C8  UNL     1     -10.845  45.735  -1.009  1.00  0.00     0.043 C
HETATM    5  C13 UNL     1     -10.640  44.728  -2.088  1.00  0.00     0.198 C
HETATM    6  C26 UNL     1     -11.741  44.703  -3.131  1.00  0.00     0.089 C
ENDROOT
BRANCH   5   7
HETATM    7  N1  UNL     1     -10.647  43.411  -1.478  1.00  0.00    -0.070 N
ATOM      8  H12 UNL     1     -11.541  43.225  -1.022  1.00  0.00     0.277 HD
ATOM      9  H11 UNL     1     -10.668  42.680  -2.189  1.00  0.00     0.277 HD
BRANCH   7  10
HETATM   10  C14 UNL     1      -9.584  43.215  -0.592  1.00  0.00     0.234 C
BRANCH  10  11
HETATM   11  C15 UNL     1      -8.223  43.264  -1.262  1.00  0.00     0.057 C
BRANCH  11  12
HETATM   12  C16 UNL     1      -7.397  44.161  -0.366  1.00  0.00     0.274 C
BRANCH  12  13
HETATM   13  N2  UNL     1      -6.536  43.550   0.560  1.00  0.00     0.088 N
HETATM   14  C17 UNL     1      -6.644  42.117   0.684  1.00  0.00     0.310 C
BRANCH  13  15
HETATM   15  C18 UNL     1      -6.577  44.201   1.874  1.00  0.00     0.222 C
HETATM   16  C19 UNL     1      -6.366  45.678   1.672  1.00  0.00     0.036 C
HETATM   17  C20 UNL     1      -6.972  46.542   2.752  1.00  0.00     0.002 C
HETATM   18  C21 UNL     1      -5.969  46.763   3.876  1.00  0.00     0.000 C
HETATM   19  C22 UNL     1      -6.226  45.702   4.912  1.00  0.00     0.000 C
HETATM   20  C23 UNL     1      -5.165  44.636   4.879  1.00  0.00     0.000 C
HETATM   21  C24 UNL     1      -5.736  43.460   4.111  1.00  0.00     0.002 C
HETATM   22  C25 UNL     1      -5.409  43.650   2.655  1.00  0.00     0.036 C
ENDBRANCH  13  15
ENDBRANCH  12  13
ENDBRANCH  11  12
ENDBRANCH  10  11
ENDBRANCH   7  10
ENDBRANCH   5   7
BRANCH   4  23
HETATM   23  C9  UNL     1     -10.790  47.175  -1.439  1.00  0.00     0.001 C
HETATM   24  C10 UNL     1      -9.381  47.746  -1.288  1.00  0.00     0.011 C
BRANCH  23  25
HETATM   25  C11 UNL     1     -11.635  47.955  -0.432  1.00  0.00     0.118 C
BRANCH  25  26
HETATM   26  C12 UNL     1     -11.641  49.398  -0.657  1.00  0.00     0.172 C
HETATM   27  O2  UNL     1     -11.969  49.931  -1.734  1.00  0.00    -0.648 OA
HETATM   28  O3  UNL     1     -11.243  50.201   0.421  1.00  0.00    -0.648 OA
ENDBRANCH  25  26
ENDBRANCH  23  25
ENDBRANCH   4  23
BRANCH   1  29
HETATM   29  C4  UNL     1     -14.123  44.450  -3.270  1.00  0.00    -0.064 C
HETATM   30  C3  UNL     1     -15.098  44.698  -3.947  1.00  0.00    -0.103 C
BRANCH  30  31
HETATM   31  C2  UNL     1     -16.315  45.014  -4.742  1.00  0.00     0.089 C
HETATM   32  C1  UNL     1     -16.252  44.274  -6.034  1.00  0.00     0.018 C
ENDBRANCH  30  31
ENDBRANCH   1  29
BRANCH   1  33
HETATM   33  O1  UNL     1     -12.853  42.738  -2.261  1.00  0.00    -0.374 OA
ATOM     34  H1  UNL     1     -12.063  42.435  -2.693  1.00  0.00     0.212 HD
ENDBRANCH   1  33
TORSDOF 12
ENDMDL