MODEL 4
REMARK VINA RESULT: -6.737170244      2.809      4.548
REMARK  10 active torsions:
REMARK  status: ('A' for Active; 'I' for Inactive)
REMARK    1  A    between atoms: C6_6  and  C8_8
REMARK    2  A    between atoms: C8_8  and  C9_9
REMARK    3  A    between atoms: C9_9  and  O1_10
REMARK    4  A    between atoms: C9_9  and  N1_12
REMARK    5  A    between atoms: N1_12  and  C10_14
REMARK    6  A    between atoms: C10_14  and  C11_15
REMARK    7  A    between atoms: C11_15  and  C12_16
REMARK    8  A    between atoms: C12_16  and  C13_17
REMARK       I    between atoms: C13_17  and  N2_19
REMARK    9  A    between atoms: C21_28  and  C22_29
REMARK   10  A    between atoms: C22_29  and  C23_30
ROOT
HETATM    1  C1  UNL     1      -7.380  43.167  -0.809  1.00  0.00     0.011 C
HETATM    2  C2  UNL     1      -8.318  43.141   0.339  1.00  0.00    -0.006 C
HETATM    3  C3  UNL     1      -9.722  43.476   0.010  1.00  0.00     0.006 C
HETATM    4  C4  UNL     1      -9.916  44.877  -0.535  1.00  0.00     0.015 C
HETATM    5  C5  UNL     1      -9.920  45.759   0.654  1.00  0.00     0.037 C
HETATM    6  C6  UNL     1     -10.307  47.204   0.392  1.00  0.00    -0.029 C
HETATM    7  C7  UNL     1     -10.066  47.398  -1.138  1.00  0.00     0.016 C
HETATM    8  C17 UNL     1      -9.532  48.065   1.246  1.00  0.00     0.011 C
HETATM    9  C18 UNL     1      -8.562  48.439   2.219  1.00  0.00     0.009 C
HETATM   10  C19 UNL     1      -7.855  47.144   2.738  1.00  0.00     0.055 C
HETATM   11  S1  UNL     1      -7.887  45.765   1.222  1.00  0.00    -0.248 SA
HETATM   12  C20 UNL     1      -6.639  46.306  -0.366  1.00  0.00     0.069 C
HETATM   13  C21 UNL     1      -7.794  43.841   1.606  1.00  0.00     0.043 C
ENDROOT
BRANCH   6  14
HETATM   14  C8  UNL     1     -11.788  47.416   0.488  1.00  0.00     0.063 C
BRANCH  14  15
HETATM   15  C9  UNL     1     -12.581  47.564  -0.739  1.00  0.00     0.217 C
BRANCH  15  16
HETATM   16  O1  UNL     1     -13.238  48.769  -0.939  1.00  0.00    -0.377 OA
ATOM     17  H1  UNL     1     -14.102  48.868  -0.558  1.00  0.00     0.212 HD
ENDBRANCH  15  16
BRANCH  15  18
HETATM   18  N1  UNL     1     -13.621  46.575  -0.868  1.00  0.00    -0.377 N
ATOM     19  H1  UNL     1     -14.602  46.838  -0.770  1.00  0.00     0.161 HD
BRANCH  18  20
HETATM   20  C10 UNL     1     -13.261  45.245  -1.132  1.00  0.00     0.058 C
BRANCH  20  21
HETATM   21  C11 UNL     1     -13.061  44.987  -2.600  1.00  0.00     0.053 C
BRANCH  21  22
HETATM   22  C12 UNL     1     -13.956  43.876  -3.108  1.00  0.00     0.108 C
BRANCH  22  23
HETATM   23  C13 UNL     1     -15.314  44.443  -3.299  1.00  0.00     0.220 C
HETATM   24  O2  UNL     1     -16.014  44.792  -2.310  1.00  0.00    -0.273 OA
HETATM   25  N2  UNL     1     -15.853  44.604  -4.595  1.00  0.00    -0.344 N
HETATM   26  C14 UNL     1     -15.676  44.448  -6.032  1.00  0.00     0.151 A
HETATM   27  C15 UNL     1     -16.927  45.017  -5.491  1.00  0.00     0.101 A
HETATM   28  C16 UNL     1     -17.149  46.487  -5.712  1.00  0.00     0.034 C
ENDBRANCH  22  23
ENDBRANCH  21  22
ENDBRANCH  20  21
ENDBRANCH  18  20
ENDBRANCH  15  18
ENDBRANCH  14  15
ENDBRANCH   6  14
BRANCH  13  29
HETATM   29  C22 UNL     1      -6.466  43.322   1.987  1.00  0.00     0.127 C
BRANCH  29  30
HETATM   30  C23 UNL     1      -5.687  44.171   2.867  1.00  0.00     0.173 C
HETATM   31  O3  UNL     1      -4.634  44.757   2.573  1.00  0.00    -0.648 OA
HETATM   32  O4  UNL     1      -6.170  44.347   4.179  1.00  0.00    -0.648 OA
ENDBRANCH  29  30
ENDBRANCH  13  29
TORSDOF 10
ENDMDL