MODEL 2
REMARK VINA RESULT: -6.155786051      1.999      6.858
REMARK  11 active torsions:
REMARK  status: ('A' for Active; 'I' for Inactive)
REMARK    1  A    between atoms: C3_3  and  C5_5
REMARK    2  A    between atoms: C5_5  and  C6_6
REMARK    3  A    between atoms: C6_6  and  C7_7
REMARK    4  A    between atoms: C7_7  and  C8_8
REMARK       I    between atoms: C8_8  and  N1_10
REMARK    5  A    between atoms: N1_10  and  C9_12
REMARK    6  A    between atoms: C9_12  and  C11_14
REMARK    7  A    between atoms: C11_14  and  C12_16
REMARK    8  A    between atoms: C12_16  and  N2_17
REMARK    9  A    between atoms: C12_16  and  C18_26
REMARK       I    between atoms: N2_17  and  C13_19
REMARK   10  A    between atoms: C13_19  and  O4_21
REMARK   11  A    between atoms: O4_21  and  C14_22
ROOT
HETATM    1  C1  UNL     1     -14.766  44.561  -3.125  1.00  0.00     0.012 C
HETATM    2  C2  UNL     1     -13.582  44.643  -2.908  1.00  0.00    -0.113 C
HETATM    3  C3  UNL     1     -12.107  44.771  -2.625  1.00  0.00     0.061 C
HETATM    4  C4  UNL     1     -11.483  43.922  -3.706  1.00  0.00     0.023 C
ENDROOT
BRANCH   3   5
HETATM    5  C5  UNL     1     -11.942  44.303  -1.237  1.00  0.00     0.027 C
BRANCH   5   6
HETATM    6  C6  UNL     1     -10.576  44.327  -0.612  1.00  0.00    -0.031 C
HETATM    7  C21 UNL     1      -9.901  45.614  -0.995  1.00  0.00     0.010 C
HETATM    8  C22 UNL     1      -8.472  45.587  -1.325  1.00  0.00     0.001 C
HETATM    9  C23 UNL     1      -7.721  44.413  -0.754  1.00  0.00     0.000 C
HETATM   10  C24 UNL     1      -8.414  43.198  -1.338  1.00  0.00     0.001 C
HETATM   11  C25 UNL     1      -9.767  43.105  -0.700  1.00  0.00     0.010 C
BRANCH   6  12
HETATM   12  C7  UNL     1     -10.875  44.498   0.897  1.00  0.00     0.112 C
BRANCH  12  13
HETATM   13  C8  UNL     1     -11.163  45.854   1.319  1.00  0.00     0.218 C
HETATM   14  O1  UNL     1     -12.238  46.497   1.189  1.00  0.00    -0.274 OA
HETATM   15  N1  UNL     1     -10.123  46.567   1.962  1.00  0.00    -0.350 N
ATOM     16  H1  UNL     1      -9.233  46.085   2.088  1.00  0.00     0.163 HD
BRANCH  15  17
HETATM   17  C9  UNL     1     -10.221  47.926   2.455  1.00  0.00     0.152 C
HETATM   18  C10 UNL     1     -10.212  48.943   1.357  1.00  0.00     0.040 C
BRANCH  17  19
HETATM   19  C11 UNL     1      -9.281  48.163   3.566  1.00  0.00     0.172 C
HETATM   20  O2  UNL     1      -9.762  48.462   4.680  1.00  0.00    -0.293 OA
BRANCH  19  21
HETATM   21  C12 UNL     1      -7.815  48.087   3.517  1.00  0.00     0.162 C
BRANCH  21  22
HETATM   22  N2  UNL     1      -7.379  46.742   3.913  1.00  0.00    -0.325 N
HETATM   23  C13 UNL     1      -6.517  46.497   5.006  1.00  0.00     0.362 C
HETATM   24  O3  UNL     1      -6.105  47.479   5.673  1.00  0.00    -0.238 OA
ATOM     25  H2  UNL     1      -7.715  45.944   3.374  1.00  0.00     0.165 HD
BRANCH  23  26
HETATM   26  O4  UNL     1      -6.095  45.260   5.394  1.00  0.00    -0.294 OA
BRANCH  26  27
HETATM   27  C14 UNL     1      -5.231  44.413   4.729  1.00  0.00     0.061 C
HETATM   28  C15 UNL     1      -4.384  43.619   5.721  1.00  0.00     0.046 C
HETATM   29  C16 UNL     1      -4.258  45.225   3.909  1.00  0.00     0.046 C
HETATM   30  C17 UNL     1      -5.885  43.409   3.827  1.00  0.00     0.046 C
ENDBRANCH  26  27
ENDBRANCH  23  26
ENDBRANCH  21  22
BRANCH  21  31
HETATM   31  C18 UNL     1      -7.272  48.291   2.107  1.00  0.00     0.008 C
HETATM   32  C19 UNL     1      -6.416  49.531   1.988  1.00  0.00     0.012 C
HETATM   33  C20 UNL     1      -6.579  47.114   1.517  1.00  0.00     0.012 C
ENDBRANCH  21  31
ENDBRANCH  19  21
ENDBRANCH  17  19
ENDBRANCH  15  17
ENDBRANCH  12  13
ENDBRANCH   6  12
ENDBRANCH   5   6
ENDBRANCH   3   5
TORSDOF 11
ENDMDL