MODEL 1
REMARK VINA RESULT: -6.933156782      0.000      0.000
REMARK  10 active torsions:
REMARK  status: ('A' for Active; 'I' for Inactive)
REMARK    1  A    between atoms: C2_2  and  O2_4
REMARK    2  A    between atoms: O2_4  and  C3_5
REMARK    3  A    between atoms: C9_11  and  C10_12
REMARK    4  A    between atoms: C11_13  and  C12_14
REMARK    5  A    between atoms: C13_15  and  O3_16
REMARK    6  A    between atoms: C16_20  and  C17_21
REMARK    7  A    between atoms: C17_21  and  C18_22
REMARK    8  A    between atoms: C18_22  and  C19_23
REMARK    9  A    between atoms: C19_23  and  N1_24
REMARK       I    between atoms: N1_24  and  C20_26
REMARK   10  A    between atoms: N3_28  and  C21_30
ROOT
HETATM    1  C12 UNL     1      -5.471  45.344   2.806  1.00  0.00     0.041 C
HETATM    2  C13 UNL     1      -5.428  45.534   4.313  1.00  0.00     0.126 C
HETATM    3  C14 UNL     1      -4.954  44.126   4.708  1.00  0.00     0.033 C
HETATM    4  C15 UNL     1      -5.873  43.246   3.908  1.00  0.00     0.008 C
HETATM    5  C16 UNL     1      -6.183  44.007   2.657  1.00  0.00    -0.004 C
ENDROOT
BRANCH   1   6
HETATM    6  C11 UNL     1      -6.121  46.428   2.074  1.00  0.00    -0.023 C
HETATM    7  C10 UNL     1      -7.335  46.439   1.560  1.00  0.00    -0.024 C
BRANCH   7   8
HETATM    8  C9  UNL     1      -7.862  47.618   0.836  1.00  0.00     0.022 C
HETATM    9  C6  UNL     1      -9.359  47.689   0.857  1.00  0.00    -0.040 C
HETATM   10  C5  UNL     1      -9.949  48.168  -0.454  1.00  0.00     0.012 C
HETATM   11  C7  UNL     1     -10.004  46.365   1.236  1.00  0.00     0.015 C
HETATM   12  C8  UNL     1      -9.820  48.686   1.923  1.00  0.00     0.015 C
HETATM   13  C4  UNL     1      -9.103  49.351  -0.896  1.00  0.00     0.034 C
HETATM   14  C3  UNL     1      -7.801  48.776  -1.390  1.00  0.00     0.136 C
HETATM   15  C24 UNL     1      -7.271  47.658  -0.552  1.00  0.00     0.019 C
HETATM   16  C25 UNL     1      -7.337  46.302  -1.228  1.00  0.00     0.013 C
BRANCH  14  17
HETATM   17  O2  UNL     1      -6.828  49.746  -1.702  1.00  0.00    -0.316 OA
BRANCH  17  18
HETATM   18  C2  UNL     1      -5.712  49.550  -2.476  1.00  0.00     0.255 C
HETATM   19  C1  UNL     1      -4.425  49.038  -1.945  1.00  0.00     0.126 C
HETATM   20  O1  UNL     1      -5.797  49.820  -3.680  1.00  0.00    -0.266 OA
ENDBRANCH  17  18
ENDBRANCH  14  17
ENDBRANCH   7   8
ENDBRANCH   1   6
BRANCH   2  21
HETATM   21  O3  UNL     1      -6.708  45.648   4.825  1.00  0.00    -0.395 OA
ATOM     22  H3  UNL     1      -6.684  45.702   5.772  1.00  0.00     0.210 HD
ENDBRANCH   2  21
BRANCH   5  23
HETATM   23  C17 UNL     1      -5.686  43.321   1.425  1.00  0.00     0.007 C
BRANCH  23  24
HETATM   24  C18 UNL     1      -6.637  42.239   0.962  1.00  0.00     0.020 C
BRANCH  24  25
HETATM   25  C19 UNL     1      -7.324  42.618  -0.307  1.00  0.00     0.122 C
BRANCH  25  26
HETATM   26  N1  UNL     1      -8.729  42.867  -0.196  1.00  0.00    -0.365 N
HETATM   27  C20 UNL     1      -9.547  43.343  -1.253  1.00  0.00     0.184 C
HETATM   28  N2  UNL     1      -8.996  43.427  -2.559  1.00  0.00    -0.064 NA
HETATM   29  N3  UNL     1     -10.770  43.713  -1.081  1.00  0.00    -0.361 N
ATOM     30  H3  UNL     1     -11.194  43.670  -0.154  1.00  0.00     0.162 HD
ATOM     31  H1  UNL     1      -9.173  42.691   0.705  1.00  0.00     0.162 HD
BRANCH  29  32
HETATM   32  C21 UNL     1     -11.541  44.191  -2.219  1.00  0.00     0.076 C
HETATM   33  C22 UNL     1     -12.278  45.460  -1.774  1.00  0.00     0.032 C
HETATM   34  C23 UNL     1     -12.537  43.143  -2.655  1.00  0.00     0.032 C
ENDBRANCH  29  32
ENDBRANCH  25  26
ENDBRANCH  24  25
ENDBRANCH  23  24
ENDBRANCH   5  23
TORSDOF 10
ENDMDL