MODEL 3
REMARK VINA RESULT: -6.348688216      2.480      5.950
REMARK  12 active torsions:
REMARK  status: ('A' for Active; 'I' for Inactive)
REMARK    1  A    between atoms: O1_2  and  C2_3
REMARK       I    between atoms: C2_3  and  N1_5
REMARK    2  A    between atoms: N1_5  and  C3_7
REMARK    3  A    between atoms: C3_7  and  O3_8
REMARK    4  A    between atoms: C3_7  and  C4_10
REMARK    5  A    between atoms: C4_10  and  N2_11
REMARK    6  A    between atoms: C4_10  and  C12_20
REMARK    7  A    between atoms: N2_11  and  C5_13
REMARK    8  A    between atoms: C12_20  and  C13_21
REMARK    9  A    between atoms: C12_20  and  N3_28
REMARK   10  A    between atoms: C13_21  and  C14_22
REMARK       I    between atoms: N3_28  and  C20_30
REMARK   11  A    between atoms: C20_30  and  C21_32
REMARK   12  A    between atoms: C21_32  and  C22_33
ROOT
HETATM    1  C4  UNL     1      -8.872  47.631   1.357  1.00  0.00     0.175 C
ENDROOT
BRANCH   1   2
HETATM    2  C3  UNL     1      -9.044  48.877   2.079  1.00  0.00     0.144 C
BRANCH   2   3
HETATM    3  N1  UNL     1     -10.058  49.816   2.193  1.00  0.00    -0.285 N
HETATM    4  C2  UNL     1     -11.082  49.636   3.208  1.00  0.00     0.366 C
HETATM    5  O2  UNL     1     -11.903  50.539   3.422  1.00  0.00    -0.238 OA
ATOM      6  H1  UNL     1     -10.084  50.624   1.571  1.00  0.00     0.173 HD
BRANCH   4   7
HETATM    7  O1  UNL     1     -11.159  48.444   3.933  1.00  0.00    -0.309 OA
HETATM    8  C1  UNL     1     -10.829  48.318   5.286  1.00  0.00     0.215 C
ENDBRANCH   4   7
ENDBRANCH   2   3
BRANCH   2   9
HETATM    9  O3  UNL     1      -7.962  49.205   2.795  1.00  0.00    -0.348 OA
ATOM     10  H3  UNL     1      -7.192  48.714   2.534  1.00  0.00     0.219 HD
ENDBRANCH   2   9
ENDBRANCH   1   2
BRANCH   1  11
HETATM   11  N2  UNL     1      -9.866  46.653   1.679  1.00  0.00    -0.404 N
ATOM     12  H2  UNL     1      -9.578  46.004   2.411  1.00  0.00     0.154 HD
BRANCH  11  13
HETATM   13  C5  UNL     1     -11.099  46.418   1.212  1.00  0.00     0.077 C
HETATM   14  C6  UNL     1     -11.592  45.059   0.872  1.00  0.00     0.025 C
HETATM   15  C7  UNL     1     -11.323  44.631  -0.546  1.00  0.00     0.006 C
HETATM   16  C8  UNL     1     -12.015  45.486  -1.565  1.00  0.00    -0.019 C
HETATM   17  C9  UNL     1     -13.188  44.846  -2.232  1.00  0.00     0.010 C
HETATM   18  C10 UNL     1     -12.415  46.822  -0.919  1.00  0.00     0.006 C
HETATM   19  C11 UNL     1     -11.246  47.265  -0.120  1.00  0.00     0.025 C
ENDBRANCH  11  13
ENDBRANCH   1  11
BRANCH   1  20
HETATM   20  C12 UNL     1      -7.526  46.974   1.482  1.00  0.00     0.115 C
BRANCH  20  21
HETATM   21  C13 UNL     1      -7.282  46.270   0.143  1.00  0.00     0.032 C
BRANCH  21  22
HETATM   22  C14 UNL     1      -7.760  44.901  -0.054  1.00  0.00    -0.013 C
HETATM   23  C15 UNL     1      -6.551  43.926   0.294  1.00  0.00     0.005 C
HETATM   24  C16 UNL     1      -7.216  42.656   0.785  1.00  0.00     0.000 C
HETATM   25  C17 UNL     1      -8.356  42.285  -0.160  1.00  0.00     0.000 C
HETATM   26  C18 UNL     1      -8.089  42.904  -1.501  1.00  0.00     0.000 C
HETATM   27  C19 UNL     1      -8.075  44.424  -1.461  1.00  0.00     0.005 C
ENDBRANCH  21  22
ENDBRANCH  20  21
BRANCH  20  28
HETATM   28  N3  UNL     1      -7.377  46.095   2.601  1.00  0.00    -0.354 N
HETATM   29  C20 UNL     1      -6.342  46.322   3.586  1.00  0.00     0.218 C
HETATM   30  O4  UNL     1      -5.612  47.307   3.411  1.00  0.00    -0.274 OA
ATOM     31  H3  UNL     1      -8.008  45.300   2.705  1.00  0.00     0.162 HD
BRANCH  29  32
HETATM   32  C21 UNL     1      -6.173  45.422   4.720  1.00  0.00     0.106 C
BRANCH  32  33
HETATM   33  C22 UNL     1      -5.146  44.370   4.637  1.00  0.00    -0.014 C
HETATM   34  C23 UNL     1      -5.603  43.105   4.030  1.00  0.00     0.010 C
HETATM   35  C24 UNL     1      -4.521  44.106   6.017  1.00  0.00     0.010 C
ENDBRANCH  32  33
ENDBRANCH  29  32
ENDBRANCH  20  28
ENDBRANCH   1  20
TORSDOF 12
ENDMDL