MODEL 1
REMARK VINA RESULT: -7.399006290      0.000      0.000
REMARK  11 active torsions:
REMARK  status: ('A' for Active; 'I' for Inactive)
REMARK    1  A    between atoms: C2_2  and  C3_3
REMARK    2  A    between atoms: C3_3  and  C4_4
REMARK    3  A    between atoms: C4_4  and  N1_5
REMARK       I    between atoms: N1_5  and  C5_7
REMARK    4  A    between atoms: C5_7  and  C6_9
REMARK    5  A    between atoms: C6_9  and  N2_10
REMARK    6  A    between atoms: C6_9  and  C14_22
REMARK       I    between atoms: N2_10  and  C7_12
REMARK       I    between atoms: C7_12  and  N3_14
REMARK    7  A    between atoms: N3_14  and  C8_16
REMARK    8  A    between atoms: C14_22  and  O4_24
REMARK    9  A    between atoms: O4_24  and  C15_25
REMARK   10  A    between atoms: C15_25  and  C18_28
REMARK   11  A    between atoms: C19_29  and  C20_30
ROOT
HETATM    1  C6  UNL     1     -11.675  45.438  -0.714  1.00  0.00     0.278 C
ENDROOT
BRANCH   1   2
HETATM    2  C5  UNL     1     -13.134  45.389  -0.926  1.00  0.00     0.250 C
HETATM    3  N1  UNL     1     -13.668  45.312  -2.218  1.00  0.00    -0.359 N
ATOM      4  H1  UNL     1     -13.011  45.292  -2.998  1.00  0.00     0.162 HD
HETATM    5  O1  UNL     1     -13.895  45.417   0.065  1.00  0.00    -0.271 OA
BRANCH   3   6
HETATM    6  C4  UNL     1     -15.068  45.258  -2.529  1.00  0.00     0.122 C
BRANCH   6   7
HETATM    7  C3  UNL     1     -15.402  44.232  -3.586  1.00  0.00     0.019 C
BRANCH   7   8
HETATM    8  C2  UNL     1     -16.236  44.965  -4.644  1.00  0.00    -0.003 C
HETATM    9  C1  UNL     1     -15.996  44.358  -6.012  1.00  0.00     0.005 C
ENDBRANCH   7   8
ENDBRANCH   6   7
ENDBRANCH   3   6
ENDBRANCH   1   2
BRANCH   1  10
HETATM   10  N2  UNL     1     -11.354  45.565   0.710  1.00  0.00    -0.321 N
HETATM   11  C7  UNL     1     -10.747  46.741   1.207  1.00  0.00     0.317 C
HETATM   12  O2  UNL     1     -10.488  47.671   0.409  1.00  0.00    -0.247 OA
HETATM   13  N3  UNL     1     -10.415  46.917   2.572  1.00  0.00    -0.339 N
ATOM     14  H3  UNL     1     -10.622  46.164   3.229  1.00  0.00     0.164 HD
ATOM     15  H2  UNL     1     -11.570  44.799   1.347  1.00  0.00     0.165 HD
BRANCH  13  16
HETATM   16  C8  UNL     1      -9.792  48.128   3.071  1.00  0.00     0.086 C
HETATM   17  C9  UNL     1      -8.309  47.988   3.232  1.00  0.00     0.025 C
HETATM   18  C10 UNL     1      -7.844  47.771   4.633  1.00  0.00     0.002 C
HETATM   19  C11 UNL     1      -8.529  48.624   5.657  1.00  0.00     0.000 C
HETATM   20  C12 UNL     1      -9.633  49.473   5.084  1.00  0.00     0.002 C
HETATM   21  C13 UNL     1     -10.532  48.543   4.295  1.00  0.00     0.025 C
ENDBRANCH  13  16
ENDBRANCH   1  10
BRANCH   1  22
HETATM   22  C14 UNL     1     -10.995  44.191  -1.187  1.00  0.00     0.292 C
HETATM   23  O3  UNL     1     -11.319  43.618  -2.257  1.00  0.00    -0.262 OA
BRANCH  22  24
HETATM   24  O4  UNL     1      -9.970  43.609  -0.461  1.00  0.00    -0.305 OA
BRANCH  24  25
HETATM   25  C15 UNL     1      -8.649  43.787  -0.838  1.00  0.00     0.081 C
HETATM   26  C16 UNL     1      -8.244  45.234  -0.999  1.00  0.00     0.051 C
HETATM   27  C17 UNL     1      -8.478  43.144  -2.220  1.00  0.00     0.051 C
BRANCH  25  28
HETATM   28  C18 UNL     1      -7.669  43.146   0.057  1.00  0.00     0.007 C
HETATM   29  C19 UNL     1      -6.932  43.847   0.904  1.00  0.00    -0.023 C
BRANCH  29  30
HETATM   30  C20 UNL     1      -5.948  43.199   1.803  1.00  0.00     0.008 C
HETATM   31  C21 UNL     1      -4.678  43.995   1.922  1.00  0.00     0.008 C
HETATM   32  C22 UNL     1      -4.682  44.638   3.292  1.00  0.00     0.001 C
HETATM   33  C23 UNL     1      -6.147  44.540   3.730  1.00  0.00     0.001 C
HETATM   34  C24 UNL     1      -6.500  43.160   3.211  1.00  0.00     0.008 C
ENDBRANCH  29  30
ENDBRANCH  25  28
ENDBRANCH  24  25
ENDBRANCH  22  24
ENDBRANCH   1  22
TORSDOF 11
ENDMDL