MODEL 5
REMARK VINA RESULT: -6.631350999      0.828      1.355
REMARK  10 active torsions:
REMARK  status: ('A' for Active; 'I' for Inactive)
REMARK    1  A    between atoms: C2_2  and  C3_3
REMARK    2  A    between atoms: C3_3  and  C5_5
REMARK    3  A    between atoms: C3_3  and  N1_8
REMARK    4  A    between atoms: C5_5  and  O1_6
REMARK       I    between atoms: N1_8  and  C6_10
REMARK    5  A    between atoms: C6_10  and  C7_12
REMARK    6  A    between atoms: C7_12  and  C8_13
REMARK    7  A    between atoms: C14_19  and  C15_20
REMARK    8  A    between atoms: C15_20  and  C16_21
REMARK    9  A    between atoms: C16_21  and  C17_22
REMARK   10  A    between atoms: C20_26  and  C21_27
ROOT
HETATM    1  C8  UNL     1      -8.941  44.245  -1.393  1.00  0.00    -0.000 C
HETATM    2  C9  UNL     1      -8.361  45.593  -0.881  1.00  0.00     0.006 C
HETATM    3  C10 UNL     1      -9.326  46.705  -0.927  1.00  0.00     0.014 C
HETATM    4  C11 UNL     1      -9.894  46.907   0.435  1.00  0.00    -0.015 C
HETATM    5  C12 UNL     1      -8.899  47.602   1.341  1.00  0.00     0.020 C
HETATM    6  C13 UNL     1     -11.227  47.592   0.361  1.00  0.00    -0.061 C
HETATM    7  C14 UNL     1     -11.693  48.807   0.185  1.00  0.00    -0.022 C
HETATM    8  C19 UNL     1     -11.858  46.259   0.577  1.00  0.00     0.082 C
HETATM    9  S1  UNL     1     -12.393  45.575  -0.975  1.00  0.00    -0.143 SA
HETATM   10  C20 UNL     1     -11.487  44.054  -1.341  1.00  0.00     0.153 C
HETATM   11  C22 UNL     1     -10.179  43.896  -0.657  1.00  0.00     0.015 C
HETATM   12  C23 UNL     1     -10.151  44.408   0.744  1.00  0.00     0.013 C
HETATM   13  C24 UNL     1     -10.552  45.760   1.064  1.00  0.00     0.016 C
ENDROOT
BRANCH   1  14
HETATM   14  C7  UNL     1      -7.787  43.315  -1.226  1.00  0.00     0.108 C
BRANCH  14  15
HETATM   15  C6  UNL     1      -7.176  43.168   0.077  1.00  0.00     0.218 C
HETATM   16  N1  UNL     1      -6.766  44.311   0.866  1.00  0.00    -0.347 N
ATOM     17  H1  UNL     1      -6.917  45.243   0.480  1.00  0.00     0.163 HD
HETATM   18  O2  UNL     1      -6.949  42.064   0.635  1.00  0.00    -0.274 OA
BRANCH  16  19
HETATM   19  C3  UNL     1      -6.159  44.202   2.159  1.00  0.00     0.068 C
HETATM   20  C4  UNL     1      -6.196  45.575   2.803  1.00  0.00     0.045 C
BRANCH  19  21
HETATM   21  C2  UNL     1      -4.708  43.899   1.941  1.00  0.00    -0.004 C
HETATM   22  C1  UNL     1      -3.759  44.813   1.960  1.00  0.00     0.009 C
ENDBRANCH  19  21
BRANCH  19  23
HETATM   23  C5  UNL     1      -6.780  43.157   3.021  1.00  0.00     0.199 C
BRANCH  23  24
HETATM   24  O1  UNL     1      -5.938  43.001   4.147  1.00  0.00    -0.398 OA
ATOM     25  H1  UNL     1      -5.806  42.068   4.265  1.00  0.00     0.209 HD
ENDBRANCH  23  24
ENDBRANCH  19  23
ENDBRANCH  16  19
ENDBRANCH  14  15
ENDBRANCH   1  14
BRANCH  10  26
HETATM   26  C21 UNL     1     -11.498  43.883  -2.804  1.00  0.00     0.187 C
HETATM   27  O3  UNL     1     -11.414  42.729  -3.356  1.00  0.00    -0.647 OA
HETATM   28  O4  UNL     1     -11.601  44.946  -3.715  1.00  0.00    -0.647 OA
ENDBRANCH  10  26
BRANCH   7  29
HETATM   29  C15 UNL     1     -10.831  49.999  -0.019  1.00  0.00     0.027 C
BRANCH  29  30
HETATM   30  C16 UNL     1     -11.171  50.986   1.073  1.00  0.00     0.003 C
BRANCH  30  31
HETATM   31  C17 UNL     1     -11.428  50.369   2.406  1.00  0.00    -0.004 C
HETATM   32  C18 UNL     1     -10.259  50.419   3.358  1.00  0.00     0.005 C
ENDBRANCH  30  31
ENDBRANCH  29  30
ENDBRANCH   7  29
TORSDOF 10
ENDMDL