MODEL 3
REMARK VINA RESULT: -7.240508216      3.135      5.987
REMARK  11 active torsions:
REMARK  status: ('A' for Active; 'I' for Inactive)
REMARK    1  A    between atoms: N1_2  and  C2_5
REMARK    2  A    between atoms: C2_5  and  C4_7
REMARK       I    between atoms: C4_7  and  N2_9
REMARK    3  A    between atoms: C6_11  and  C7_12
REMARK    4  A    between atoms: C7_12  and  C8_13
REMARK    5  A    between atoms: C17_22  and  C18_23
REMARK       I    between atoms: C18_23  and  N3_25
REMARK    6  A    between atoms: N3_25  and  C19_27
REMARK    7  A    between atoms: C19_27  and  C20_28
REMARK    8  A    between atoms: C19_27  and  C24_35
REMARK    9  A    between atoms: C20_28  and  C21_30
REMARK   10  A    between atoms: C21_30  and  C22_31
REMARK   11  A    between atoms: C22_31  and  C23_32
ROOT
HETATM    1  C4  UNL     1       5.922  34.973   1.187  1.00  0.00     0.251 C
HETATM    2  O1  UNL     1       5.227  35.940   1.690  1.00  0.00    -0.271 OA
HETATM    3  N2  UNL     1       7.300  35.187   0.995  1.00  0.00    -0.337 N
HETATM    4  C5  UNL     1       8.214  34.231   0.404  1.00  0.00     0.132 C
HETATM    5  C6  UNL     1       9.360  34.400   1.340  1.00  0.00     0.015 C
HETATM    6  C16 UNL     1       9.556  35.854   1.333  1.00  0.00     0.042 C
HETATM    7  C17 UNL     1       8.090  36.352   1.333  1.00  0.00     0.179 C
ENDROOT
BRANCH   7   8
HETATM    8  C18 UNL     1       7.918  37.494   0.449  1.00  0.00     0.241 C
HETATM    9  O2  UNL     1       8.686  38.497   0.678  1.00  0.00    -0.271 OA
HETATM   10  N3  UNL     1       7.010  37.568  -0.588  1.00  0.00    -0.347 N
ATOM     11  H3  UNL     1       6.410  36.761  -0.756  1.00  0.00     0.163 HD
BRANCH  10  12
HETATM   12  C19 UNL     1       6.851  38.741  -1.469  1.00  0.00     0.161 C
BRANCH  12  13
HETATM   13  C20 UNL     1       7.855  38.728  -2.526  1.00  0.00     0.150 C
HETATM   14  O3  UNL     1       8.279  39.839  -2.914  1.00  0.00    -0.296 OA
BRANCH  13  15
HETATM   15  C21 UNL     1       8.428  37.558  -3.197  1.00  0.00     0.089 C
BRANCH  15  16
HETATM   16  C22 UNL     1       9.875  37.311  -2.777  1.00  0.00     0.107 C
BRANCH  16  17
HETATM   17  C23 UNL     1      10.576  36.620  -3.851  1.00  0.00     0.231 C
HETATM   18  N4  UNL     1      11.572  35.639  -3.607  1.00  0.00    -0.062 NA
HETATM   19  O4  UNL     1      10.280  36.913  -5.060  1.00  0.00    -0.277 OA
ENDBRANCH  16  17
ENDBRANCH  15  16
ENDBRANCH  13  15
ENDBRANCH  12  13
BRANCH  12  20
HETATM   20  C24 UNL     1       5.414  38.721  -1.888  1.00  0.00    -0.024 C
HETATM   21  C25 UNL     1       5.234  38.550  -3.372  1.00  0.00     0.017 C
HETATM   22  C26 UNL     1       4.618  37.675  -1.116  1.00  0.00     0.017 C
HETATM   23  C27 UNL     1       4.787  40.068  -1.511  1.00  0.00     0.017 C
ENDBRANCH  12  20
ENDBRANCH  10  12
ENDBRANCH   7   8
BRANCH   1  24
HETATM   24  C2  UNL     1       5.236  33.714   0.846  1.00  0.00     0.272 C
HETATM   25  C3  UNL     1       5.095  32.908   2.140  1.00  0.00     0.050 C
BRANCH  24  26
HETATM   26  N1  UNL     1       3.877  34.053   0.420  1.00  0.00    -0.067 N
HETATM   27  C1  UNL     1       2.995  33.225   1.210  1.00  0.00     0.267 C
ATOM     28  H12 UNL     1       3.730  33.961  -0.584  1.00  0.00     0.277 HD
ATOM     29  H11 UNL     1       3.667  35.048   0.485  1.00  0.00     0.277 HD
ENDBRANCH  24  26
ENDBRANCH   1  24
BRANCH   5  30
HETATM   30  C7  UNL     1      10.445  33.426   1.344  1.00  0.00    -0.025 A
HETATM   31  C11 UNL     1      10.129  32.356   0.272  1.00  0.00     0.012 A
HETATM   32  C12 UNL     1      11.439  32.561  -0.385  1.00  0.00     0.010 A
HETATM   33  C13 UNL     1      11.738  33.642   0.644  1.00  0.00    -0.039 A
HETATM   34  C14 UNL     1      13.010  33.277   1.355  1.00  0.00     0.015 C
HETATM   35  C15 UNL     1      11.979  34.946  -0.074  1.00  0.00     0.015 C
BRANCH  30  36
HETATM   36  C8  UNL     1      10.527  32.691   2.661  1.00  0.00    -0.013 C
HETATM   37  C9  UNL     1      10.549  31.205   2.635  1.00  0.00     0.010 C
HETATM   38  C10 UNL     1       9.675  33.212   3.773  1.00  0.00     0.010 C
ENDBRANCH  30  36
ENDBRANCH   5  30
TORSDOF 11
ENDMDL