MODEL 5
REMARK VINA RESULT: -7.247470556      3.532      7.794
REMARK  11 active torsions:
REMARK  status: ('A' for Active; 'I' for Inactive)
REMARK    1  A    between atoms: C2_2  and  C3_3
REMARK    2  A    between atoms: C2_2  and  C21_36
REMARK    3  A    between atoms: C3_3  and  C4_4
REMARK    4  A    between atoms: C4_4  and  N1_5
REMARK    5  A    between atoms: C4_4  and  C5_9
REMARK       I    between atoms: C5_9  and  N2_11
REMARK    6  A    between atoms: C9_15  and  C10_16
REMARK       I    between atoms: C10_16  and  N3_18
REMARK    7  A    between atoms: N3_18  and  C11_20
REMARK    8  A    between atoms: C11_20  and  C12_21
REMARK    9  A    between atoms: C11_20  and  C16_29
REMARK   10  A    between atoms: C12_21  and  C13_22
REMARK   11  A    between atoms: C16_29  and  C17_31
ROOT
HETATM    1  C5  UNL     1      10.296  35.465  -0.394  1.00  0.00     0.251 C
HETATM    2  O1  UNL     1       9.265  34.843  -0.668  1.00  0.00    -0.271 OA
HETATM    3  N2  UNL     1      10.295  36.753   0.181  1.00  0.00    -0.337 N
HETATM    4  C6  UNL     1      11.579  37.517   0.415  1.00  0.00     0.127 C
HETATM    5  C7  UNL     1      11.391  37.955   1.841  1.00  0.00     0.022 C
HETATM    6  C8  UNL     1       9.913  38.199   1.973  1.00  0.00     0.037 C
HETATM    7  C9  UNL     1       9.315  37.654   0.659  1.00  0.00     0.179 C
ENDROOT
BRANCH   7   8
HETATM    8  C10 UNL     1       7.952  37.203   0.904  1.00  0.00     0.241 C
HETATM    9  O2  UNL     1       7.452  36.922   1.987  1.00  0.00    -0.271 OA
HETATM   10  N3  UNL     1       7.094  37.072  -0.247  1.00  0.00    -0.347 N
ATOM     11  H3  UNL     1       7.443  37.290  -1.180  1.00  0.00     0.163 HD
BRANCH  10  12
HETATM   12  C11 UNL     1       5.672  36.608  -0.054  1.00  0.00     0.160 C
BRANCH  12  13
HETATM   13  C12 UNL     1       5.810  35.126  -0.282  1.00  0.00     0.091 C
BRANCH  13  14
HETATM   14  C13 UNL     1       5.499  34.217   0.826  1.00  0.00     0.028 A
HETATM   15  C14 UNL     1       4.324  33.539   1.061  1.00  0.00     0.114 A
HETATM   16  N4  UNL     1       4.481  32.830   2.176  1.00  0.00    -0.360 N
HETATM   17  C15 UNL     1       5.718  33.048   2.636  1.00  0.00     0.180 A
ATOM     18  H4  UNL     1       3.779  32.225   2.605  1.00  0.00     0.166 HD
HETATM   19  N5  UNL     1       6.347  33.895   1.816  1.00  0.00    -0.354 N
ATOM     20  H5  UNL     1       7.303  34.236   1.924  1.00  0.00     0.166 HD
ENDBRANCH  13  14
ENDBRANCH  12  13
BRANCH  12  21
HETATM   21  C16 UNL     1       4.952  37.295  -1.149  1.00  0.00     0.154 C
HETATM   22  O3  UNL     1       3.706  37.335  -0.993  1.00  0.00    -0.295 OA
BRANCH  21  23
HETATM   23  C17 UNL     1       5.548  37.890  -2.353  1.00  0.00     0.067 C
HETATM   24  C18 UNL     1       5.078  37.127  -3.569  1.00  0.00     0.023 C
HETATM   25  C19 UNL     1       5.791  37.730  -4.759  1.00  0.00     0.075 C
HETATM   26  S1  UNL     1       5.698  39.504  -4.351  1.00  0.00    -0.168 SA
HETATM   27  C20 UNL     1       5.257  39.310  -2.551  1.00  0.00     0.086 C
ENDBRANCH  21  23
ENDBRANCH  12  21
ENDBRANCH  10  12
ENDBRANCH   7   8
BRANCH   1  28
HETATM   28  C4  UNL     1      11.598  34.761  -0.711  1.00  0.00     0.278 C
BRANCH  28  29
HETATM   29  C3  UNL     1      11.396  33.283  -0.473  1.00  0.00     0.076 C
BRANCH  29  30
HETATM   30  C2  UNL     1      11.794  32.801   0.853  1.00  0.00    -0.083 C
HETATM   31  C1  UNL     1      13.044  32.719   1.224  1.00  0.00     0.015 C
BRANCH  30  32
HETATM   32  C21 UNL     1      10.732  32.372   1.833  1.00  0.00     0.014 C
HETATM   33  C22 UNL     1      11.249  31.152   2.531  1.00  0.00     0.009 C
HETATM   34  C23 UNL     1      10.366  30.832   3.725  1.00  0.00     0.001 C
HETATM   35  C24 UNL     1       9.066  31.604   3.640  1.00  0.00     0.000 C
HETATM   36  C25 UNL     1       9.369  33.066   3.792  1.00  0.00     0.001 C
HETATM   37  C26 UNL     1      10.417  33.465   2.789  1.00  0.00     0.009 C
ENDBRANCH  30  32
ENDBRANCH  29  30
ENDBRANCH  28  29
BRANCH  28  38
HETATM   38  N1  UNL     1      11.893  34.968  -2.146  1.00  0.00    -0.066 N
ATOM     39  H13 UNL     1      12.845  34.697  -2.393  1.00  0.00     0.275 HD
ATOM     40  H12 UNL     1      11.400  34.308  -2.747  1.00  0.00     0.275 HD
ATOM     41  H11 UNL     1      11.688  35.939  -2.381  1.00  0.00     0.275 HD
ENDBRANCH  28  38
ENDBRANCH   1  28
TORSDOF 11
ENDMDL