MODEL 5
REMARK VINA RESULT: -6.383131655      1.054      1.502
REMARK  12 active torsions:
REMARK  status: ('A' for Active; 'I' for Inactive)
REMARK    1  A    between atoms: C2_2  and  C4_4
REMARK    2  A    between atoms: C4_4  and  C5_5
REMARK    3  A    between atoms: C5_5  and  N1_6
REMARK    4  A    between atoms: C5_5  and  C11_15
REMARK       I    between atoms: N1_6  and  C6_8
REMARK    5  A    between atoms: C6_8  and  O2_10
REMARK    6  A    between atoms: O2_10  and  C7_11
REMARK       I    between atoms: C11_15  and  N2_17
REMARK    7  A    between atoms: N2_17  and  C12_19
REMARK    8  A    between atoms: C12_19  and  C13_20
REMARK    9  A    between atoms: C12_19  and  C17_24
REMARK   10  A    between atoms: C13_20  and  C14_21
REMARK       I    between atoms: C17_24  and  N3_26
REMARK   11  A    between atoms: C21_31  and  C22_32
REMARK       I    between atoms: C22_32  and  N4_34
REMARK   12  A    between atoms: N4_34  and  C23_36
ROOT
HETATM    1  C12 UNL     1      10.213  33.453   1.301  1.00  0.00     0.177 C
ENDROOT
BRANCH   1   2
HETATM    2  N2  UNL     1       8.834  33.421   0.726  1.00  0.00    -0.346 N
HETATM    3  C11 UNL     1       8.070  34.613   0.730  1.00  0.00     0.241 C
HETATM    4  O3  UNL     1       8.582  35.654   1.205  1.00  0.00    -0.271 OA
ATOM      5  H2  UNL     1       8.451  32.559   0.339  1.00  0.00     0.163 HD
BRANCH   3   6
HETATM    6  C5  UNL     1       6.681  34.678   0.196  1.00  0.00     0.179 C
BRANCH   6   7
HETATM    7  C4  UNL     1       5.873  33.457   0.401  1.00  0.00     0.038 C
BRANCH   7   8
HETATM    8  C2  UNL     1       4.863  33.483   1.483  1.00  0.00    -0.020 C
HETATM    9  C1  UNL     1       3.442  33.316   0.962  1.00  0.00     0.009 C
HETATM   10  C3  UNL     1       5.056  32.576   2.637  1.00  0.00     0.009 C
ENDBRANCH   7   8
ENDBRANCH   6   7
BRANCH   6  11
HETATM   11  N1  UNL     1       6.659  35.137  -1.166  1.00  0.00    -0.324 N
HETATM   12  C6  UNL     1       5.539  35.827  -1.705  1.00  0.00     0.362 C
HETATM   13  O1  UNL     1       4.562  36.040  -0.968  1.00  0.00    -0.238 OA
ATOM     14  H1  UNL     1       7.469  34.964  -1.762  1.00  0.00     0.165 HD
BRANCH  12  15
HETATM   15  O2  UNL     1       5.515  36.260  -3.007  1.00  0.00    -0.294 OA
BRANCH  15  16
HETATM   16  C7  UNL     1       5.761  37.590  -3.414  1.00  0.00     0.061 C
HETATM   17  C8  UNL     1       4.836  38.013  -4.533  1.00  0.00     0.046 C
HETATM   18  C9  UNL     1       7.166  37.606  -4.021  1.00  0.00     0.046 C
HETATM   19  C10 UNL     1       5.718  38.590  -2.311  1.00  0.00     0.046 C
ENDBRANCH  15  16
ENDBRANCH  12  15
ENDBRANCH   6  11
ENDBRANCH   3   6
ENDBRANCH   1   2
BRANCH   1  20
HETATM   20  C13 UNL     1      10.316  32.078   1.930  1.00  0.00     0.038 C
BRANCH  20  21
HETATM   21  C14 UNL     1       9.825  31.912   3.305  1.00  0.00    -0.020 C
HETATM   22  C15 UNL     1       8.431  31.402   3.468  1.00  0.00     0.009 C
HETATM   23  C16 UNL     1      10.735  30.862   3.974  1.00  0.00     0.009 C
ENDBRANCH  20  21
ENDBRANCH   1  20
BRANCH   1  24
HETATM   24  C17 UNL     1      11.160  33.627   0.195  1.00  0.00     0.243 C
HETATM   25  O4  UNL     1      11.134  32.699  -0.691  1.00  0.00    -0.271 OA
HETATM   26  N3  UNL     1      12.083  34.693   0.009  1.00  0.00    -0.333 N
HETATM   27  C18 UNL     1      12.991  34.616  -1.117  1.00  0.00     0.153 C
HETATM   28  C21 UNL     1      12.133  35.855   0.864  1.00  0.00     0.203 C
HETATM   29  C19 UNL     1      14.372  34.904  -0.552  1.00  0.00     0.187 C
HETATM   30  O5  UNL     1      14.375  34.970   0.826  1.00  0.00    -0.387 OA
HETATM   31  C20 UNL     1      13.589  35.947   1.384  1.00  0.00     0.202 C
BRANCH  28  32
HETATM   32  C22 UNL     1      11.917  37.150   0.181  1.00  0.00     0.243 C
HETATM   33  O6  UNL     1      12.790  38.037   0.049  1.00  0.00    -0.271 OA
HETATM   34  N4  UNL     1      10.639  37.429  -0.371  1.00  0.00    -0.355 N
ATOM     35  H4  UNL     1       9.913  36.718  -0.291  1.00  0.00     0.162 HD
BRANCH  34  36
HETATM   36  C23 UNL     1      10.311  38.665  -1.040  1.00  0.00     0.076 C
HETATM   37  C24 UNL     1       8.981  39.210  -0.661  1.00  0.00     0.032 C
HETATM   38  C25 UNL     1      10.430  38.589  -2.550  1.00  0.00     0.032 C
ENDBRANCH  34  36
ENDBRANCH  28  32
ENDBRANCH   1  24
TORSDOF 12
ENDMDL