MODEL 2
REMARK VINA RESULT: -7.043036260      3.445      7.642
REMARK  11 active torsions:
REMARK  status: ('A' for Active; 'I' for Inactive)
REMARK    1  A    between atoms: C2_2  and  C3_3
REMARK    2  A    between atoms: C3_3  and  N1_4
REMARK       I    between atoms: N2_11  and  C10_12
REMARK       I    between atoms: C10_12  and  N4_16
REMARK    3  A    between atoms: N4_16  and  C11_18
REMARK    4  A    between atoms: N5_22  and  C15_23
REMARK    5  A    between atoms: C17_25  and  N6_26
REMARK    6  A    between atoms: N6_26  and  C18_28
REMARK    7  A    between atoms: C18_28  and  C19_29
REMARK    8  A    between atoms: C19_29  and  C20_30
REMARK    9  A    between atoms: C20_30  and  C21_31
REMARK   10  A    between atoms: C21_31  and  C22_32
REMARK   11  A    between atoms: C22_32  and  O1_33
ROOT
HETATM    1  C11 UNL     1       8.412  32.352   2.437  1.00  0.00     0.203 C
HETATM    2  C12 UNL     1       8.514  31.192   3.361  1.00  0.00     0.049 C
HETATM    3  C13 UNL     1       9.924  30.694   3.168  1.00  0.00     0.024 C
HETATM    4  C14 UNL     1      10.660  31.997   2.933  1.00  0.00     0.127 C
HETATM    5  N5  UNL     1       9.729  32.829   2.187  1.00  0.00    -0.345 N
ENDROOT
BRANCH   1   6
HETATM    6  N4  UNL     1       7.457  33.343   2.859  1.00  0.00    -0.205 N
HETATM    7  C10 UNL     1       6.089  33.375   2.566  1.00  0.00     0.671 C
HETATM    8  N2  UNL     1       5.552  34.440   1.815  1.00  0.00    -0.218 N
HETATM    9  N3  UNL     1       5.308  32.454   2.973  1.00  0.00    -0.235 N
HETATM   10  C9  UNL     1       5.901  35.813   2.226  1.00  0.00     0.143 C
HETATM   11  C25 UNL     1       4.691  34.330   0.674  1.00  0.00     0.143 C
HETATM   12  C8  UNL     1       6.760  36.321   1.059  1.00  0.00     0.052 C
HETATM   13  C7  UNL     1       5.946  36.254  -0.245  1.00  0.00     0.039 C
HETATM   14  N1  UNL     1       6.035  37.510  -0.845  1.00  0.00    -0.364 N
HETATM   15  C6  UNL     1       6.666  35.314  -1.218  1.00  0.00     0.036 C
HETATM   16  C26 UNL     1       4.594  35.670  -0.026  1.00  0.00     0.052 C
HETATM   17  C4  UNL     1       7.145  37.610  -1.706  1.00  0.00     0.064 C
HETATM   18  C5  UNL     1       7.774  36.226  -1.764  1.00  0.00     0.047 C
ATOM     19  H32 UNL     1       4.311  32.476   2.760  1.00  0.00     0.174 HD
ATOM     20  H31 UNL     1       5.697  31.683   3.517  1.00  0.00     0.174 HD
ATOM     21  H4  UNL     1       7.817  34.105   3.433  1.00  0.00     0.179 HD
BRANCH  14  22
HETATM   22  C3  UNL     1       4.999  38.421  -0.888  1.00  0.00     0.063 C
BRANCH  22  23
HETATM   23  C2  UNL     1       5.117  39.524  -1.918  1.00  0.00     0.040 C
HETATM   24  C1  UNL     1       4.671  40.862  -1.322  1.00  0.00     0.010 C
ENDBRANCH  22  23
ENDBRANCH  14  22
ENDBRANCH   1   6
BRANCH   5  25
HETATM   25  C15 UNL     1      10.134  33.906   1.369  1.00  0.00     0.109 A
HETATM   26  C16 UNL     1      10.204  35.174   1.867  1.00  0.00     0.096 A
HETATM   27  C17 UNL     1      10.605  36.251   1.053  1.00  0.00     0.105 A
HETATM   28  N7  UNL     1      10.898  35.925  -0.208  1.00  0.00    -0.339 N
HETATM   29  C24 UNL     1      10.827  34.661  -0.704  1.00  0.00     0.183 A
ATOM     30  H7  UNL     1      11.192  36.670  -0.839  1.00  0.00     0.168 HD
HETATM   31  N8  UNL     1      10.447  33.673   0.096  1.00  0.00    -0.339 N
ATOM     32  H8  UNL     1      10.395  32.723  -0.268  1.00  0.00     0.168 HD
BRANCH  27  33
HETATM   33  N6  UNL     1      10.670  37.425   1.519  1.00  0.00    -0.373 N
ATOM     34  H6  UNL     1      10.327  37.572   2.468  1.00  0.00     0.161 HD
BRANCH  33  35
HETATM   35  C18 UNL     1      11.199  38.592   0.802  1.00  0.00     0.148 C
BRANCH  35  36
HETATM   36  C19 UNL     1      10.060  39.422   0.349  1.00  0.00    -0.008 C
BRANCH  36  37
HETATM   37  C20 UNL     1       8.784  39.468   1.054  1.00  0.00    -0.004 C
BRANCH  37  38
HETATM   38  C21 UNL     1       8.504  40.250   2.250  1.00  0.00    -0.001 C
BRANCH  38  39
HETATM   39  C22 UNL     1       9.415  41.274   2.782  1.00  0.00     0.194 C
BRANCH  39  40
HETATM   40  O1  UNL     1      10.205  41.032   3.849  1.00  0.00    -0.392 OA
HETATM   41  C23 UNL     1      11.554  41.147   3.502  1.00  0.00     0.201 C
ENDBRANCH  39  40
ENDBRANCH  38  39
ENDBRANCH  37  38
ENDBRANCH  36  37
ENDBRANCH  35  36
ENDBRANCH  33  35
ENDBRANCH  27  33
ENDBRANCH   5  25
TORSDOF 11
ENDMDL