MODEL 5
REMARK VINA RESULT: -6.514719541      0.985      1.350
REMARK  13 active torsions:
REMARK  status: ('A' for Active; 'I' for Inactive)
REMARK    1  A    between atoms: C2_2  and  O1_3
REMARK    2  A    between atoms: O1_3  and  C3_4
REMARK    3  A    between atoms: C3_4  and  C4_6
REMARK    4  A    between atoms: C4_6  and  N1_7
REMARK    5  A    between atoms: C4_6  and  C24_38
REMARK       I    between atoms: N1_7  and  C5_9
REMARK    6  A    between atoms: C5_9  and  C6_11
REMARK    7  A    between atoms: C6_11  and  C7_12
REMARK    8  A    between atoms: C6_11  and  N2_16
REMARK    9  A    between atoms: C7_12  and  C8_13
REMARK       I    between atoms: N2_16  and  C11_18
REMARK   10  A    between atoms: C11_18  and  C12_20
REMARK       I    between atoms: N3_26  and  C18_27
REMARK   11  A    between atoms: C18_27  and  C19_29
REMARK   12  A    between atoms: C19_29  and  N4_30
REMARK   13  A    between atoms: C19_29  and  C20_34
ROOT
HETATM    1  N2  UNL     1       7.363  35.278   1.329  1.00  0.00    -0.346 N
ATOM      2  H2  UNL     1       7.685  36.073   1.881  1.00  0.00     0.163 HD
HETATM    3  C11 UNL     1       6.747  35.571   0.106  1.00  0.00     0.241 C
HETATM    4  O4  UNL     1       6.344  34.632  -0.627  1.00  0.00    -0.271 OA
ENDROOT
BRANCH   1   5
HETATM    5  C6  UNL     1       7.590  33.979   1.884  1.00  0.00     0.177 C
BRANCH   5   6
HETATM    6  C5  UNL     1       9.057  33.758   2.136  1.00  0.00     0.241 C
HETATM    7  N1  UNL     1       9.561  32.455   2.132  1.00  0.00    -0.345 N
ATOM      8  H1  UNL     1       8.910  31.690   1.954  1.00  0.00     0.163 HD
HETATM    9  O3  UNL     1       9.796  34.728   2.343  1.00  0.00    -0.271 OA
BRANCH   7  10
HETATM   10  C4  UNL     1      10.963  32.120   2.367  1.00  0.00     0.187 C
BRANCH  10  11
HETATM   11  C3  UNL     1      11.085  30.824   3.082  1.00  0.00     0.282 C
HETATM   12  O2  UNL     1      11.401  29.788   2.450  1.00  0.00    -0.263 OA
BRANCH  11  13
HETATM   13  O1  UNL     1      10.859  30.730   4.438  1.00  0.00    -0.320 OA
BRANCH  13  14
HETATM   14  C2  UNL     1      10.885  29.483   5.105  1.00  0.00     0.174 C
HETATM   15  C1  UNL     1      11.744  29.627   6.339  1.00  0.00     0.034 C
ENDBRANCH  13  14
ENDBRANCH  11  13
ENDBRANCH  10  11
BRANCH  10  16
HETATM   16  C24 UNL     1      11.625  31.989   1.031  1.00  0.00     0.010 C
HETATM   17  C25 UNL     1      12.655  33.068   0.819  1.00  0.00     0.012 C
HETATM   18  C26 UNL     1      10.683  31.873  -0.126  1.00  0.00     0.012 C
ENDBRANCH  10  16
ENDBRANCH   7  10
ENDBRANCH   5   6
BRANCH   5  19
HETATM   19  C7  UNL     1       6.778  33.624   3.089  1.00  0.00     0.038 C
BRANCH  19  20
HETATM   20  C8  UNL     1       5.773  32.532   2.906  1.00  0.00    -0.020 C
HETATM   21  C9  UNL     1       6.294  31.189   2.530  1.00  0.00     0.009 C
HETATM   22  C10 UNL     1       4.740  32.908   1.845  1.00  0.00     0.009 C
ENDBRANCH  19  20
ENDBRANCH   5  19
ENDBRANCH   1   5
BRANCH   3  23
HETATM   23  C12 UNL     1       6.513  36.937  -0.428  1.00  0.00     0.179 C
HETATM   24  C13 UNL     1       5.068  36.990  -0.939  1.00  0.00     0.035 C
HETATM   25  C14 UNL     1       4.796  38.323  -1.606  1.00  0.00     0.008 C
HETATM   26  C15 UNL     1       5.646  38.390  -2.836  1.00  0.00    -0.000 C
HETATM   27  C16 UNL     1       4.787  38.139  -4.058  1.00  0.00     0.011 C
HETATM   28  C17 UNL     1       6.755  37.341  -2.827  1.00  0.00     0.131 C
HETATM   29  N3  UNL     1       7.379  37.327  -1.487  1.00  0.00    -0.337 N
HETATM   30  C18 UNL     1       8.733  37.706  -1.413  1.00  0.00     0.252 C
HETATM   31  O5  UNL     1       9.327  37.959  -2.521  1.00  0.00    -0.271 OA
BRANCH  30  32
HETATM   32  C19 UNL     1       9.548  37.840  -0.194  1.00  0.00     0.282 C
BRANCH  32  33
HETATM   33  N4  UNL     1      10.955  37.945  -0.673  1.00  0.00    -0.066 N
ATOM     34  H43 UNL     1      11.348  37.060  -0.991  1.00  0.00     0.275 HD
ATOM     35  H42 UNL     1      11.053  38.443  -1.558  1.00  0.00     0.275 HD
ATOM     36  H41 UNL     1      11.470  38.371   0.098  1.00  0.00     0.275 HD
ENDBRANCH  32  33
BRANCH  32  37
HETATM   37  C20 UNL     1       9.346  39.164   0.518  1.00  0.00    -0.014 C
HETATM   38  C21 UNL     1       8.408  40.108  -0.119  1.00  0.00     0.017 C
HETATM   39  C22 UNL     1      10.685  39.876   0.709  1.00  0.00     0.017 C
HETATM   40  C23 UNL     1       8.816  38.838   1.913  1.00  0.00     0.017 C
ENDBRANCH  32  37
ENDBRANCH  30  32
ENDBRANCH   3  23
TORSDOF 13
ENDMDL