MODEL 3
REMARK VINA RESULT: -7.143158217      1.563      2.352
REMARK  12 active torsions:
REMARK  status: ('A' for Active; 'I' for Inactive)
REMARK    1  A    between atoms: C2_2  and  C3_3
REMARK    2  A    between atoms: C3_3  and  N1_4
REMARK    3  A    between atoms: C3_3  and  C19_28
REMARK       I    between atoms: N1_4  and  C4_5
REMARK    4  A    between atoms: C4_5  and  C5_7
REMARK    5  A    between atoms: C5_7  and  C6_8
REMARK    6  A    between atoms: C6_8  and  N2_10
REMARK       I    between atoms: N2_10  and  C8_12
REMARK    7  A    between atoms: C8_12  and  C9_14
REMARK    8  A    between atoms: C9_14  and  C10_15
REMARK    9  A    between atoms: C9_14  and  N3_19
REMARK   10  A    between atoms: C10_15  and  C11_16
REMARK       I    between atoms: N3_19  and  C14_21
REMARK   11  A    between atoms: C14_21  and  O4_23
REMARK   12  A    between atoms: O4_23  and  C15_24
REMARK       I    between atoms: C19_28  and  N4_30
ROOT
HETATM    1  C6  UNL     1       6.567  33.406   2.114  1.00  0.00     0.090 C
HETATM    2  C7  UNL     1       6.283  34.742   2.803  1.00  0.00     0.032 C
ENDROOT
BRANCH   1   3
HETATM    3  C5  UNL     1       6.084  33.520   0.714  1.00  0.00     0.143 C
BRANCH   3   4
HETATM    4  C4  UNL     1       7.033  34.326  -0.172  1.00  0.00     0.289 C
HETATM    5  N1  UNL     1       6.919  35.646  -0.344  1.00  0.00    -0.400 NA
HETATM    6  O1  UNL     1       7.917  33.570  -0.706  1.00  0.00    -0.258 OA
BRANCH   5   7
HETATM    7  C3  UNL     1       6.801  37.034  -0.526  1.00  0.00     0.258 C
BRANCH   7   8
HETATM    8  C2  UNL     1       5.857  37.263  -1.700  1.00  0.00     0.045 C
HETATM    9  C1  UNL     1       4.437  37.325  -1.181  1.00  0.00     0.009 C
ENDBRANCH   7   8
BRANCH   7  10
HETATM   10  C19 UNL     1       8.151  37.555  -0.989  1.00  0.00     0.255 C
HETATM   11  O5  UNL     1       8.532  37.281  -2.154  1.00  0.00    -0.270 OA
HETATM   12  N4  UNL     1       8.986  38.323  -0.154  1.00  0.00    -0.349 N
HETATM   13  C20 UNL     1      10.274  38.769  -0.655  1.00  0.00     0.126 C
HETATM   14  C24 UNL     1       8.676  38.711   1.204  1.00  0.00     0.126 C
HETATM   15  C21 UNL     1      11.297  37.848   0.040  1.00  0.00     0.029 C
HETATM   16  C22 UNL     1      10.747  37.436   1.375  1.00  0.00    -0.037 A
HETATM   17  C23 UNL     1       9.968  38.554   2.020  1.00  0.00     0.029 C
HETATM   18  C25 UNL     1      11.322  36.344   2.177  1.00  0.00     0.010 A
HETATM   19  C26 UNL     1      10.029  36.077   1.429  1.00  0.00     0.010 A
ENDBRANCH   7  10
ENDBRANCH   5   7
ENDBRANCH   3   4
ENDBRANCH   1   3
BRANCH   1  20
HETATM   20  N2  UNL     1       7.964  33.102   2.181  1.00  0.00    -0.355 N
HETATM   21  C8  UNL     1       8.499  31.822   2.566  1.00  0.00     0.240 C
HETATM   22  O2  UNL     1       7.682  30.908   2.912  1.00  0.00    -0.271 OA
ATOM     23  H2  UNL     1       8.624  33.841   1.941  1.00  0.00     0.162 HD
BRANCH  21  24
HETATM   24  C9  UNL     1       9.925  31.524   2.568  1.00  0.00     0.179 C
BRANCH  24  25
HETATM   25  C10 UNL     1      10.915  32.580   2.293  1.00  0.00     0.038 C
BRANCH  25  26
HETATM   26  C11 UNL     1      11.543  32.718   0.977  1.00  0.00    -0.020 C
HETATM   27  C12 UNL     1      11.302  31.627  -0.013  1.00  0.00     0.009 C
HETATM   28  C13 UNL     1      13.081  32.819   1.152  1.00  0.00     0.009 C
ENDBRANCH  25  26
ENDBRANCH  24  25
BRANCH  24  29
HETATM   29  N3  UNL     1      10.290  30.724   3.737  1.00  0.00    -0.324 N
HETATM   30  C14 UNL     1      10.913  29.491   3.613  1.00  0.00     0.362 C
HETATM   31  O3  UNL     1      11.228  28.905   2.568  1.00  0.00    -0.238 OA
ATOM     32  H3  UNL     1      10.081  31.083   4.670  1.00  0.00     0.165 HD
BRANCH  30  33
HETATM   33  O4  UNL     1      11.237  28.808   4.788  1.00  0.00    -0.294 OA
BRANCH  33  34
HETATM   34  C15 UNL     1      12.428  28.950   5.471  1.00  0.00     0.061 C
HETATM   35  C16 UNL     1      13.540  29.562   4.675  1.00  0.00     0.046 C
HETATM   36  C17 UNL     1      12.848  27.603   6.026  1.00  0.00     0.046 C
HETATM   37  C18 UNL     1      12.181  29.854   6.675  1.00  0.00     0.046 C
ENDBRANCH  33  34
ENDBRANCH  30  33
ENDBRANCH  24  29
ENDBRANCH  21  24
ENDBRANCH   1  20
TORSDOF 12
ENDMDL