MODEL 2
REMARK VINA RESULT: -6.940023649      1.746      5.957
REMARK  11 active torsions:
REMARK  status: ('A' for Active; 'I' for Inactive)
REMARK    1  A    between atoms: C2_2  and  O1_3
REMARK    2  A    between atoms: O1_3  and  C3_4
REMARK    3  A    between atoms: C3_4  and  C4_6
REMARK    4  A    between atoms: N1_10  and  C8_11
REMARK    5  A    between atoms: C8_11  and  O3_12
REMARK    6  A    between atoms: C9_14  and  N2_15
REMARK    7  A    between atoms: C9_14  and  C19_31
REMARK       I    between atoms: N2_15  and  C10_17
REMARK    8  A    between atoms: C10_17  and  C11_19
REMARK       I    between atoms: N3_23  and  C15_24
REMARK    9  A    between atoms: C15_24  and  C16_26
REMARK   10  A    between atoms: C16_26  and  C17_27
REMARK   11  A    between atoms: C17_27  and  C18_28
ROOT
HETATM    1  C8  UNL     1       9.667  35.743  -1.135  1.00  0.00     0.162 C
HETATM    2  C9  UNL     1       8.481  36.560  -1.028  1.00  0.00     0.067 C
ENDROOT
BRANCH   2   3
HETATM    3  N2  UNL     1       7.610  36.026  -0.009  1.00  0.00    -0.325 N
HETATM    4  C10 UNL     1       6.340  35.480  -0.183  1.00  0.00     0.245 C
HETATM    5  O4  UNL     1       5.875  35.437  -1.357  1.00  0.00    -0.271 OA
ATOM      6  H2  UNL     1       7.964  36.052   0.947  1.00  0.00     0.169 HD
BRANCH   4   7
HETATM    7  C11 UNL     1       5.459  34.935   0.860  1.00  0.00     0.179 C
HETATM    8  C12 UNL     1       4.045  34.708   0.381  1.00  0.00     0.037 C
HETATM    9  C13 UNL     1       3.660  33.466   1.153  1.00  0.00     0.022 C
HETATM   10  C14 UNL     1       4.965  32.662   1.001  1.00  0.00     0.127 C
HETATM   11  N3  UNL     1       5.908  33.681   1.415  1.00  0.00    -0.339 N
HETATM   12  C15 UNL     1       7.040  33.446   2.224  1.00  0.00     0.221 C
HETATM   13  O5  UNL     1       7.826  34.378   2.573  1.00  0.00    -0.273 OA
BRANCH  12  14
HETATM   14  C16 UNL     1       7.383  32.078   2.720  1.00  0.00     0.113 C
BRANCH  14  15
HETATM   15  C17 UNL     1       8.388  32.106   3.823  1.00  0.00     0.122 C
BRANCH  15  16
HETATM   16  C18 UNL     1       9.547  31.272   3.389  1.00  0.00     0.172 C
HETATM   17  O6  UNL     1       9.363  30.103   2.922  1.00  0.00    -0.648 OA
HETATM   18  O7  UNL     1      10.862  31.710   3.469  1.00  0.00    -0.648 OA
ENDBRANCH  15  16
ENDBRANCH  14  15
ENDBRANCH  12  14
ENDBRANCH   4   7
ENDBRANCH   2   3
BRANCH   2  19
HETATM   19  C19 UNL     1       8.498  38.028  -1.215  1.00  0.00     0.040 C
HETATM   20  C20 UNL     1       7.358  38.505  -2.070  1.00  0.00     0.011 C
HETATM   21  C21 UNL     1       6.266  39.232  -1.386  1.00  0.00     0.001 C
HETATM   22  C22 UNL     1       6.551  40.728  -1.580  1.00  0.00     0.000 C
HETATM   23  C23 UNL     1       8.024  40.880  -1.207  1.00  0.00     0.000 C
HETATM   24  C24 UNL     1       8.180  40.172   0.105  1.00  0.00     0.001 C
HETATM   25  C25 UNL     1       8.682  38.793   0.063  1.00  0.00     0.011 C
ENDBRANCH   2  19
BRANCH   1  26
HETATM   26  N1  UNL     1      11.038  35.950  -1.206  1.00  0.00    -0.346 N
HETATM   27  C4  UNL     1      12.147  35.771  -0.352  1.00  0.00     0.186 C
HETATM   28  C5  UNL     1      13.084  36.939  -0.646  1.00  0.00     0.037 C
HETATM   29  C6  UNL     1      12.590  37.575  -1.900  1.00  0.00     0.022 C
HETATM   30  C7  UNL     1      11.675  36.520  -2.454  1.00  0.00     0.126 C
BRANCH  27  31
HETATM   31  C3  UNL     1      12.942  34.543  -0.692  1.00  0.00     0.281 C
HETATM   32  O2  UNL     1      14.176  34.544  -0.867  1.00  0.00    -0.263 OA
BRANCH  31  33
HETATM   33  O1  UNL     1      12.246  33.356  -0.815  1.00  0.00    -0.320 OA
BRANCH  33  34
HETATM   34  C2  UNL     1      12.213  32.409   0.246  1.00  0.00     0.174 C
HETATM   35  C1  UNL     1      11.149  31.395  -0.055  1.00  0.00     0.034 C
ENDBRANCH  33  34
ENDBRANCH  31  33
ENDBRANCH  27  31
ENDBRANCH   1  26
BRANCH   1  36
HETATM   36  O3  UNL     1       9.369  34.451  -1.171  1.00  0.00    -0.345 OA
ATOM     37  H3  UNL     1       8.897  34.224  -1.964  1.00  0.00     0.219 HD
ENDBRANCH   1  36
TORSDOF 11
ENDMDL