MODEL 3
REMARK VINA RESULT: -6.842654669      1.593      2.309
REMARK  13 active torsions:
REMARK  status: ('A' for Active; 'I' for Inactive)
REMARK       I    between atoms: C2_2  and  N1_4
REMARK    1  A    between atoms: N1_4  and  C3_6
REMARK    2  A    between atoms: C3_6  and  C4_7
REMARK    3  A    between atoms: C3_6  and  C23_36
REMARK    4  A    between atoms: C4_7  and  O2_8
REMARK    5  A    between atoms: C4_7  and  N2_10
REMARK    6  A    between atoms: C5_11  and  C6_12
REMARK    7  A    between atoms: C6_12  and  C7_13
REMARK    8  A    between atoms: C6_12  and  N3_17
REMARK    9  A    between atoms: C7_13  and  C8_14
REMARK       I    between atoms: N3_17  and  C11_19
REMARK   10  A    between atoms: C11_19  and  C12_21
REMARK   11  A    between atoms: C12_21  and  O4_22
REMARK   12  A    between atoms: C12_21  and  C13_24
REMARK   13  A    between atoms: C13_24  and  N4_25
ROOT
HETATM    1  N2  UNL     1       7.629  35.845   0.966  1.00  0.00    -0.339 N
HETATM    2  C5  UNL     1       8.428  34.664   0.684  1.00  0.00     0.119 C
HETATM    3  C19 UNL     1       9.065  34.807  -0.665  1.00  0.00     0.103 C
HETATM    4  S1  UNL     1       9.693  36.524  -0.463  1.00  0.00    -0.136 SA
HETATM    5  C20 UNL     1       8.325  37.050   0.687  1.00  0.00     0.076 C
HETATM    6  C21 UNL     1       7.540  38.052  -0.163  1.00  0.00     0.050 C
HETATM    7  C22 UNL     1       8.946  37.794   1.796  1.00  0.00     0.050 C
ENDROOT
BRANCH   2   8
HETATM    8  C6  UNL     1       9.503  34.394   1.749  1.00  0.00     0.108 C
BRANCH   8   9
HETATM    9  C7  UNL     1       8.887  33.537   2.803  1.00  0.00     0.031 C
BRANCH   9  10
HETATM   10  C8  UNL     1       9.155  32.091   2.815  1.00  0.00    -0.021 C
HETATM   11  C9  UNL     1       7.973  31.195   2.990  1.00  0.00     0.009 C
HETATM   12  C10 UNL     1      10.194  31.831   3.925  1.00  0.00     0.009 C
ENDBRANCH   9  10
ENDBRANCH   8   9
BRANCH   8  13
HETATM   13  N3  UNL     1      10.632  33.763   1.105  1.00  0.00    -0.352 N
HETATM   14  C11 UNL     1      11.976  34.094   1.427  1.00  0.00     0.248 C
HETATM   15  O3  UNL     1      12.198  34.947   2.314  1.00  0.00    -0.271 OA
ATOM     16  H3  UNL     1      10.458  33.055   0.393  1.00  0.00     0.163 HD
BRANCH  14  17
HETATM   17  C12 UNL     1      13.136  33.463   0.742  1.00  0.00     0.238 C
BRANCH  17  18
HETATM   18  O4  UNL     1      12.599  32.685  -0.313  1.00  0.00    -0.384 OA
ATOM     19  H4  UNL     1      12.679  33.212  -1.100  1.00  0.00     0.210 HD
ENDBRANCH  17  18
BRANCH  17  20
HETATM   20  C13 UNL     1      14.098  34.426   0.166  1.00  0.00     0.313 C
BRANCH  20  21
HETATM   21  N4  UNL     1      15.328  34.566   0.869  1.00  0.00     0.091 N
HETATM   22  C14 UNL     1      15.507  35.928   1.365  1.00  0.00     0.272 C
HETATM   23  C15 UNL     1      16.689  35.988   2.289  1.00  0.00     0.030 C
HETATM   24  C16 UNL     1      17.722  34.930   1.958  1.00  0.00     0.003 C
HETATM   25  C17 UNL     1      17.115  33.582   2.201  1.00  0.00     0.030 C
HETATM   26  C18 UNL     1      15.636  33.583   1.837  1.00  0.00     0.272 C
ENDBRANCH  20  21
ENDBRANCH  17  20
ENDBRANCH  14  17
ENDBRANCH   8  13
ENDBRANCH   2   8
BRANCH   1  27
HETATM   27  C4  UNL     1       6.281  35.747   1.413  1.00  0.00     0.139 C
BRANCH  27  28
HETATM   28  C3  UNL     1       5.083  35.270   0.735  1.00  0.00     0.162 C
BRANCH  28  29
HETATM   29  N1  UNL     1       5.320  35.339  -0.749  1.00  0.00    -0.349 N
HETATM   30  C2  UNL     1       4.795  36.397  -1.520  1.00  0.00     0.214 C
HETATM   31  C1  UNL     1       5.024  36.471  -2.973  1.00  0.00     0.117 C
HETATM   32  O1  UNL     1       4.111  37.302  -0.937  1.00  0.00    -0.274 OA
ATOM     33  H1  UNL     1       5.870  34.610  -1.204  1.00  0.00     0.163 HD
ENDBRANCH  28  29
BRANCH  28  34
HETATM   34  C23 UNL     1       4.740  33.811   0.984  1.00  0.00     0.008 C
HETATM   35  C24 UNL     1       5.250  33.257   2.263  1.00  0.00     0.012 C
HETATM   36  C25 UNL     1       3.317  33.432   0.766  1.00  0.00     0.012 C
ENDBRANCH  28  34
ENDBRANCH  27  28
BRANCH  27  37
HETATM   37  O2  UNL     1       6.138  36.165   2.656  1.00  0.00    -0.348 OA
ATOM     38  H2  UNL     1       6.929  36.244   3.176  1.00  0.00     0.219 HD
ENDBRANCH  27  37
ENDBRANCH   1  27
TORSDOF 13
ENDMDL