MODEL 1
REMARK VINA RESULT: -7.301336505      0.000      0.000
REMARK  12 active torsions:
REMARK  status: ('A' for Active; 'I' for Inactive)
REMARK    1  A    between atoms: C2_2  and  C3_3
REMARK    2  A    between atoms: C3_3  and  C5_5
REMARK    3  A    between atoms: C5_5  and  C6_6
REMARK    4  A    between atoms: C5_5  and  N2_16
REMARK    5  A    between atoms: C6_6  and  C7_7
REMARK    6  A    between atoms: C7_7  and  N1_8
REMARK    7  A    between atoms: C7_7  and  C10_13
REMARK       I    between atoms: N1_8  and  C8_10
REMARK       I    between atoms: N2_16  and  C13_18
REMARK    8  A    between atoms: C13_18  and  C14_20
REMARK       I    between atoms: N3_24  and  C18_25
REMARK    9  A    between atoms: C18_25  and  C19_27
REMARK   10  A    between atoms: C19_27  and  N4_29
REMARK       I    between atoms: N4_29  and  C21_30
REMARK   11  A    between atoms: C21_30  and  O5_32
REMARK   12  A    between atoms: O5_32  and  C22_33
ROOT
HETATM    1  N2  UNL     1       8.141  35.132   0.645  1.00  0.00    -0.354 N
ATOM      2  H2  UNL     1       7.988  34.242   1.120  1.00  0.00     0.162 HD
HETATM    3  C13 UNL     1       9.441  35.409   0.202  1.00  0.00     0.241 C
HETATM    4  O2  UNL     1       9.679  36.477  -0.413  1.00  0.00    -0.271 OA
ENDROOT
BRANCH   3   5
HETATM    5  C14 UNL     1      10.605  34.510   0.416  1.00  0.00     0.179 C
HETATM    6  C15 UNL     1      11.790  35.429   0.726  1.00  0.00     0.037 C
HETATM    7  C16 UNL     1      11.668  35.630   2.228  1.00  0.00     0.022 C
HETATM    8  C17 UNL     1      10.750  34.538   2.743  1.00  0.00     0.127 C
HETATM    9  N3  UNL     1      10.485  33.686   1.557  1.00  0.00    -0.336 N
HETATM   10  C18 UNL     1      10.240  32.299   1.673  1.00  0.00     0.256 C
HETATM   11  O3  UNL     1      10.156  31.584   0.655  1.00  0.00    -0.270 OA
BRANCH  10  12
HETATM   12  C19 UNL     1      10.079  31.654   2.986  1.00  0.00     0.257 C
HETATM   13  C20 UNL     1       8.584  31.331   3.242  1.00  0.00     0.058 C
BRANCH  12  14
HETATM   14  N4  UNL     1      10.836  30.455   3.156  1.00  0.00    -0.376 NA
HETATM   15  C21 UNL     1      11.522  29.357   3.303  1.00  0.00     0.436 C
HETATM   16  O4  UNL     1      11.489  28.267   2.621  1.00  0.00    -0.221 OA
BRANCH  15  17
HETATM   17  O5  UNL     1      12.496  29.245   4.363  1.00  0.00    -0.283 OA
BRANCH  17  18
HETATM   18  C22 UNL     1      12.158  28.870   5.660  1.00  0.00     0.062 C
HETATM   19  C23 UNL     1      12.474  29.971   6.663  1.00  0.00     0.046 C
HETATM   20  C24 UNL     1      10.701  28.514   5.815  1.00  0.00     0.046 C
HETATM   21  C25 UNL     1      12.979  27.643   6.022  1.00  0.00     0.046 C
ENDBRANCH  17  18
ENDBRANCH  15  17
ENDBRANCH  12  14
ENDBRANCH  10  12
ENDBRANCH   3   5
BRANCH   1  22
HETATM   22  C5  UNL     1       7.022  35.985   0.488  1.00  0.00     0.090 C
BRANCH  22  23
HETATM   23  C3  UNL     1       5.982  35.405   1.480  1.00  0.00     0.004 C
HETATM   24  C4  UNL     1       6.669  34.462   2.425  1.00  0.00     0.012 C
BRANCH  23  25
HETATM   25  C2  UNL     1       4.898  34.626   0.784  1.00  0.00     0.002 C
HETATM   26  C1  UNL     1       4.647  33.265   1.393  1.00  0.00     0.005 C
ENDBRANCH  23  25
ENDBRANCH  22  23
BRANCH  22  27
HETATM   27  C6  UNL     1       6.335  36.096  -0.792  1.00  0.00     0.051 C
BRANCH  27  28
HETATM   28  C7  UNL     1       6.520  37.234  -1.700  1.00  0.00     0.089 C
BRANCH  28  29
HETATM   29  N1  UNL     1       7.436  36.936  -2.809  1.00  0.00    -0.356 N
HETATM   30  C8  UNL     1       8.421  37.846  -3.252  1.00  0.00     0.213 C
HETATM   31  C9  UNL     1       9.321  37.516  -4.379  1.00  0.00     0.117 C
HETATM   32  O1  UNL     1       8.511  38.957  -2.651  1.00  0.00    -0.274 OA
ATOM     33  H1  UNL     1       7.357  36.034  -3.280  1.00  0.00     0.162 HD
ENDBRANCH  28  29
BRANCH  28  34
HETATM   34  C10 UNL     1       5.270  37.867  -2.226  1.00  0.00     0.000 C
HETATM   35  C11 UNL     1       4.118  37.695  -1.230  1.00  0.00     0.011 C
HETATM   36  C12 UNL     1       4.788  37.395  -3.555  1.00  0.00     0.011 C
ENDBRANCH  28  34
ENDBRANCH  27  28
ENDBRANCH  22  27
ENDBRANCH   1  22
TORSDOF 12
ENDMDL