MODEL 2
REMARK VINA RESULT: -7.196588589      1.108      1.173
REMARK  14 active torsions:
REMARK  status: ('A' for Active; 'I' for Inactive)
REMARK    1  A    between atoms: C2_2  and  C3_3
REMARK    2  A    between atoms: C2_2  and  C15_19
REMARK    3  A    between atoms: C4_4  and  C5_6
REMARK    4  A    between atoms: C5_6  and  N2_7
REMARK    5  A    between atoms: N3_11  and  C9_12
REMARK    6  A    between atoms: C15_19  and  C16_20
REMARK    7  A    between atoms: C16_20  and  O1_21
REMARK    8  A    between atoms: C16_20  and  C17_23
REMARK    9  A    between atoms: C17_23  and  C18_24
REMARK   10  A    between atoms: C18_24  and  C19_25
REMARK   11  A    between atoms: C18_24  and  O3_32
REMARK   12  A    between atoms: C19_25  and  C20_26
REMARK       I    between atoms: C20_26  and  N4_28
REMARK   13  A    between atoms: N4_28  and  C21_30
REMARK   14  A    between atoms: O3_32  and  C22_33
ROOT
HETATM    1  C1  UNL     1       5.628  32.083   2.696  1.00  0.00     0.043 C
HETATM    2  C2  UNL     1       7.028  32.472   2.416  1.00  0.00    -0.080 C
ENDROOT
BRANCH   2   3
HETATM    3  C3  UNL     1       7.244  33.856   2.017  1.00  0.00     0.026 C
HETATM    4  C4  UNL     1       7.563  34.376   0.865  1.00  0.00     0.042 C
HETATM    5  N1  UNL     1       7.753  33.535  -0.255  1.00  0.00    -0.105 NA
BRANCH   4   6
HETATM    6  C5  UNL     1       7.729  35.853   0.764  1.00  0.00     0.179 C
BRANCH   6   7
HETATM    7  N2  UNL     1       6.609  36.554   0.247  1.00  0.00    -0.353 N
HETATM    8  C6  UNL     1       5.209  36.292   0.565  1.00  0.00     0.127 C
HETATM    9  C7  UNL     1       4.351  36.407  -0.689  1.00  0.00     0.040 C
HETATM   10  C8  UNL     1       4.455  37.867  -1.136  1.00  0.00     0.127 C
HETATM   11  N3  UNL     1       5.813  38.040  -1.592  1.00  0.00    -0.353 N
HETATM   12  C14 UNL     1       6.846  37.624  -0.683  1.00  0.00     0.172 C
HETATM   13  S1  UNL     1       8.293  38.398  -0.751  1.00  0.00    -0.041 SA
BRANCH  11  14
HETATM   14  C9  UNL     1       6.147  38.574  -2.894  1.00  0.00     0.086 C
HETATM   15  C10 UNL     1       5.235  39.614  -3.419  1.00  0.00     0.025 C
HETATM   16  C11 UNL     1       5.376  39.543  -4.931  1.00  0.00     0.002 C
HETATM   17  C12 UNL     1       5.502  38.067  -5.179  1.00  0.00     0.002 C
HETATM   18  C13 UNL     1       6.191  37.502  -3.953  1.00  0.00     0.025 C
ENDBRANCH  11  14
ENDBRANCH   6   7
ENDBRANCH   4   6
ENDBRANCH   2   3
BRANCH   2  19
HETATM   19  C15 UNL     1       8.047  31.935   3.404  1.00  0.00     0.065 C
BRANCH  19  20
HETATM   20  C16 UNL     1       9.286  31.385   2.761  1.00  0.00     0.124 C
BRANCH  20  21
HETATM   21  O1  UNL     1       9.387  30.032   3.073  1.00  0.00    -0.395 OA
ATOM     22  H1  UNL     1      10.218  29.706   2.747  1.00  0.00     0.210 HD
ENDBRANCH  20  21
BRANCH  20  23
HETATM   23  C17 UNL     1      10.543  32.036   3.267  1.00  0.00     0.065 C
BRANCH  23  24
HETATM   24  C18 UNL     1      11.200  32.962   2.290  1.00  0.00     0.144 C
BRANCH  24  25
HETATM   25  C19 UNL     1      10.897  34.421   2.480  1.00  0.00     0.135 C
BRANCH  25  26
HETATM   26  C20 UNL     1      11.822  35.356   1.854  1.00  0.00     0.224 C
HETATM   27  O2  UNL     1      13.063  35.205   1.943  1.00  0.00    -0.273 OA
HETATM   28  N4  UNL     1      11.382  36.494   1.112  1.00  0.00    -0.328 N
ATOM     29  H4  UNL     1      10.904  37.267   1.575  1.00  0.00     0.169 HD
BRANCH  28  30
HETATM   30  C21 UNL     1      11.603  36.520  -0.158  1.00  0.00     0.172 C
HETATM   31  S2  UNL     1      12.208  37.114  -1.530  1.00  0.00    -0.074 SA
ENDBRANCH  28  30
ENDBRANCH  25  26
ENDBRANCH  24  25
BRANCH  24  32
HETATM   32  O3  UNL     1      10.636  32.624   1.014  1.00  0.00    -0.300 OA
BRANCH  32  33
HETATM   33  C22 UNL     1      11.347  32.203  -0.075  1.00  0.00     0.373 C
HETATM   34  N5  UNL     1      11.394  30.818  -0.342  1.00  0.00    -0.032 NA
HETATM   35  O4  UNL     1      11.918  33.048  -0.784  1.00  0.00    -0.242 OA
ENDBRANCH  32  33
ENDBRANCH  24  32
ENDBRANCH  23  24
ENDBRANCH  20  23
ENDBRANCH  19  20
ENDBRANCH   2  19
TORSDOF 14
ENDMDL