MODEL 1
REMARK VINA RESULT: -7.136310687      0.000      0.000
REMARK  10 active torsions:
REMARK  status: ('A' for Active; 'I' for Inactive)
REMARK    1  A    between atoms: C4_5  and  N2_6
REMARK    2  A    between atoms: N2_6  and  S1_8
REMARK    3  A    between atoms: S1_8  and  N3_11
REMARK    4  A    between atoms: N3_11  and  C5_13
REMARK    5  A    between atoms: C5_13  and  C6_14
REMARK    6  A    between atoms: C6_14  and  C7_15
REMARK    7  A    between atoms: C7_15  and  C8_16
REMARK    8  A    between atoms: C8_16  and  C9_17
REMARK    9  A    between atoms: C9_17  and  C10_18
REMARK   10  A    between atoms: C10_18  and  C11_19
ROOT
HETATM    1  N3  UNL     1      68.048  54.430  -0.855  1.00  0.00    -0.303 N
ATOM      2  H3  UNL     1      67.511  53.620  -0.543  1.00  0.00     0.173 HD
ENDROOT
BRANCH   1   3
HETATM    3  S1  UNL     1      69.014  55.411   0.185  1.00  0.00     0.315 S
HETATM    4  O1  UNL     1      69.630  56.485  -0.687  1.00  0.00    -0.183 OA
HETATM    5  O2  UNL     1      68.077  56.112   1.122  1.00  0.00    -0.183 OA
BRANCH   3   6
HETATM    6  N2  UNL     1      70.170  54.456   0.963  1.00  0.00    -0.298 N
ATOM      7  H2  UNL     1      69.971  53.959   1.831  1.00  0.00     0.174 HD
BRANCH   6   8
HETATM    8  C4  UNL     1      71.452  54.395   0.319  1.00  0.00     0.097 C
HETATM    9  C3  UNL     1      72.557  53.952   1.258  1.00  0.00     0.045 C
HETATM   10  C2  UNL     1      73.860  54.419   0.603  1.00  0.00     0.118 C
HETATM   11  N1  UNL     1      73.910  54.103  -0.788  1.00  0.00    -0.416 N
HETATM   12  C1  UNL     1      74.277  55.172  -1.649  1.00  0.00     0.143 C
HETATM   13  C17 UNL     1      72.911  53.222  -1.266  1.00  0.00     0.118 C
HETATM   14  C16 UNL     1      71.504  53.545  -0.896  1.00  0.00     0.045 C
ENDBRANCH   6   8
ENDBRANCH   3   6
ENDBRANCH   1   3
BRANCH   1  15
HETATM   15  C5  UNL     1      68.094  54.896  -2.226  1.00  0.00     0.133 C
BRANCH  15  16
HETATM   16  C6  UNL     1      67.748  53.794  -3.202  1.00  0.00     0.020 C
BRANCH  16  17
HETATM   17  C7  UNL     1      66.975  52.671  -2.526  1.00  0.00     0.002 C
BRANCH  17  18
HETATM   18  C8  UNL     1      67.774  51.416  -2.778  1.00  0.00     0.000 C
BRANCH  18  19
HETATM   19  C9  UNL     1      68.714  51.142  -1.642  1.00  0.00     0.004 C
BRANCH  19  20
HETATM   20  C10 UNL     1      69.069  49.691  -1.602  1.00  0.00     0.035 C
BRANCH  20  21
HETATM   21  C11 UNL     1      69.414  49.347  -0.187  1.00  0.00    -0.058 C
HETATM   22  C12 UNL     1      69.063  48.152   0.271  1.00  0.00    -0.021 C
HETATM   23  C13 UNL     1      69.407  47.812   1.679  1.00  0.00     0.055 C
HETATM   24  C14 UNL     1      70.718  48.504   1.995  1.00  0.00     0.236 C
HETATM   25  N4  UNL     1      70.482  49.919   1.916  1.00  0.00    -0.071 N
HETATM   26  C15 UNL     1      70.123  50.361   0.606  1.00  0.00     0.266 C
ATOM     27  H42 UNL     1      69.783  50.208   2.599  1.00  0.00     0.277 HD
ATOM     28  H41 UNL     1      71.286  50.440   2.265  1.00  0.00     0.277 HD
ENDBRANCH  20  21
ENDBRANCH  19  20
ENDBRANCH  18  19
ENDBRANCH  17  18
ENDBRANCH  16  17
ENDBRANCH  15  16
ENDBRANCH   1  15
TORSDOF 10
ENDMDL