MODEL 4
REMARK VINA RESULT: -6.098712497      2.029      5.725
REMARK  10 active torsions:
REMARK  status: ('A' for Active; 'I' for Inactive)
REMARK    1  A    between atoms: C2_2  and  C4_4
REMARK    2  A    between atoms: C4_4  and  N1_5
REMARK    3  A    between atoms: N1_5  and  C5_6
REMARK       I    between atoms: N1_5  and  C7_8
REMARK    4  A    between atoms: C7_8  and  C8_10
REMARK       I    between atoms: C8_10  and  N2_12
REMARK    5  A    between atoms: N2_12  and  C9_14
REMARK    6  A    between atoms: C9_14  and  C10_15
REMARK    7  A    between atoms: C9_14  and  C17_22
REMARK    8  A    between atoms: C10_15  and  C11_16
REMARK    9  A    between atoms: C17_22  and  C18_24
REMARK   10  A    between atoms: C18_24  and  C19_25
ROOT
HETATM    1  C9  UNL     1      70.867  52.874  -0.027  1.00  0.00     0.178 C
ENDROOT
BRANCH   1   2
HETATM    2  N2  UNL     1      69.577  53.496  -0.470  1.00  0.00    -0.338 N
HETATM    3  C8  UNL     1      69.515  54.823  -0.948  1.00  0.00     0.310 C
HETATM    4  O2  UNL     1      70.578  55.469  -0.988  1.00  0.00    -0.262 OA
ATOM      5  H2  UNL     1      68.720  52.945  -0.425  1.00  0.00     0.164 HD
BRANCH   3   6
HETATM    6  C7  UNL     1      68.278  55.429  -1.378  1.00  0.00     0.311 C
HETATM    7  N1  UNL     1      67.543  55.067  -2.528  1.00  0.00    -0.341 N
HETATM    8  O1  UNL     1      67.788  56.379  -0.666  1.00  0.00    -0.262 OA
BRANCH   7   9
HETATM    9  C4  UNL     1      66.319  55.803  -2.839  1.00  0.00     0.159 C
BRANCH   9  10
HETATM   10  C2  UNL     1      66.594  56.826  -3.858  1.00  0.00    -0.075 C
HETATM   11  C1  UNL     1      66.335  56.567  -5.124  1.00  0.00     0.015 C
HETATM   12  C3  UNL     1      67.159  58.172  -3.527  1.00  0.00     0.044 C
ENDBRANCH   9  10
ENDBRANCH   7   9
BRANCH   7  13
HETATM   13  C5  UNL     1      67.903  54.000  -3.433  1.00  0.00     0.122 C
HETATM   14  C6  UNL     1      67.391  52.650  -2.984  1.00  0.00     0.026 C
ENDBRANCH   7  13
ENDBRANCH   3   6
ENDBRANCH   1   2
BRANCH   1  15
HETATM   15  C10 UNL     1      70.806  51.518  -0.561  1.00  0.00     0.008 C
BRANCH  15  16
HETATM   16  C11 UNL     1      70.176  50.377   0.081  1.00  0.00    -0.081 C
HETATM   17  C12 UNL     1      70.862  49.787   1.293  1.00  0.00     0.034 C
HETATM   18  C13 UNL     1      69.911  48.728   1.874  1.00  0.00     0.004 C
HETATM   19  C14 UNL     1      69.344  47.940   0.716  1.00  0.00     0.001 C
HETATM   20  C15 UNL     1      68.337  48.773  -0.048  1.00  0.00     0.004 C
HETATM   21  C16 UNL     1      68.683  50.276   0.114  1.00  0.00     0.034 C
ENDBRANCH  15  16
ENDBRANCH   1  15
BRANCH   1  22
HETATM   22  C17 UNL     1      71.039  53.160   1.404  1.00  0.00     0.161 C
HETATM   23  O3  UNL     1      70.007  53.438   2.086  1.00  0.00    -0.295 OA
BRANCH  22  24
HETATM   24  C18 UNL     1      72.287  53.186   2.184  1.00  0.00     0.180 C
BRANCH  24  25
HETATM   25  C19 UNL     1      72.541  54.547   2.716  1.00  0.00     0.238 C
HETATM   26  N3  UNL     1      73.073  55.552   1.864  1.00  0.00    -0.062 NA
HETATM   27  O4  UNL     1      72.301  54.841   3.891  1.00  0.00    -0.276 OA
ENDBRANCH  24  25
ENDBRANCH  22  24
ENDBRANCH   1  22
TORSDOF 10
ENDMDL