MODEL 5
REMARK VINA RESULT: -6.628985314      1.397      1.621
REMARK  10 active torsions:
REMARK  status: ('A' for Active; 'I' for Inactive)
REMARK    1  A    between atoms: S1_2  and  C1_4
REMARK    2  A    between atoms: S1_2  and  N3_24
REMARK    3  A    between atoms: C1_4  and  C2_5
REMARK    4  A    between atoms: C5_8  and  C6_9
REMARK    5  A    between atoms: C6_9  and  N1_10
REMARK    6  A    between atoms: N1_10  and  C7_13
REMARK    7  A    between atoms: C7_13  and  C8_14
REMARK    8  A    between atoms: C8_14  and  C9_15
REMARK    9  A    between atoms: N3_24  and  C16_26
REMARK   10  A    between atoms: C16_26  and  C17_27
ROOT
HETATM    1  C2  UNL     1      70.003  53.018   0.623  1.00  0.00    -0.043 A
HETATM    2  C3  UNL     1      70.871  52.379  -0.183  1.00  0.00     0.009 A
HETATM    3  C4  UNL     1      70.697  51.081  -0.800  1.00  0.00     0.009 A
HETATM    4  C5  UNL     1      69.489  50.533  -0.338  1.00  0.00    -0.033 A
HETATM    5  C14 UNL     1      68.730  51.168   0.434  1.00  0.00     0.009 A
HETATM    6  C15 UNL     1      68.782  52.392   0.995  1.00  0.00     0.009 A
ENDROOT
BRANCH   4   7
HETATM    7  C6  UNL     1      69.149  49.168  -0.775  1.00  0.00     0.270 C
BRANCH   7   8
HETATM    8  N1  UNL     1      68.603  48.553   0.467  1.00  0.00    -0.071 N
ATOM      9  H12 UNL     1      68.254  49.262   1.111  1.00  0.00     0.277 HD
ATOM     10  H11 UNL     1      67.729  48.059   0.285  1.00  0.00     0.277 HD
BRANCH   8  11
HETATM   11  C7  UNL     1      69.537  47.723   1.083  1.00  0.00     0.233 C
BRANCH  11  12
HETATM   12  C8  UNL     1      69.613  48.156   2.485  1.00  0.00     0.032 C
BRANCH  12  13
HETATM   13  C9  UNL     1      71.092  48.147   2.938  1.00  0.00    -0.010 C
HETATM   14  C10 UNL     1      71.689  46.921   2.256  1.00  0.00     0.024 C
HETATM   15  C11 UNL     1      73.092  46.644   2.707  1.00  0.00     0.114 C
HETATM   16  N2  UNL     1      73.193  46.679   4.163  1.00  0.00    -0.421 N
HETATM   17  C12 UNL     1      71.961  46.790   4.845  1.00  0.00     0.114 C
ATOM     18  H2  UNL     1      74.086  46.627   4.652  1.00  0.00     0.153 HD
HETATM   19  C13 UNL     1      71.171  48.003   4.429  1.00  0.00     0.024 C
ENDBRANCH  12  13
ENDBRANCH  11  12
ENDBRANCH   8  11
ENDBRANCH   7   8
ENDBRANCH   4   7
BRANCH   1  20
HETATM   20  C1  UNL     1      70.241  54.424   1.019  1.00  0.00     0.201 C
BRANCH  20  21
HETATM   21  S1  UNL     1      69.302  55.434   0.062  1.00  0.00     0.230 S
HETATM   22  O1  UNL     1      68.076  55.994   0.580  1.00  0.00    -0.206 OA
HETATM   23  O2  UNL     1      70.284  56.719  -0.346  1.00  0.00    -0.206 OA
BRANCH  21  24
HETATM   24  N3  UNL     1      69.029  54.916  -1.612  1.00  0.00    -0.319 N
ATOM     25  H3  UNL     1      69.747  54.479  -2.189  1.00  0.00     0.172 HD
BRANCH  24  26
HETATM   26  C16 UNL     1      67.724  55.169  -2.061  1.00  0.00     0.136 C
BRANCH  26  27
HETATM   27  C17 UNL     1      67.373  54.034  -3.014  1.00  0.00     0.004 A
HETATM   28  C18 UNL     1      66.996  52.706  -2.469  1.00  0.00     0.007 A
HETATM   29  C19 UNL     1      68.287  52.936  -3.242  1.00  0.00     0.007 A
ENDBRANCH  26  27
ENDBRANCH  24  26
ENDBRANCH  21  24
ENDBRANCH  20  21
ENDBRANCH   1  20
TORSDOF 10
ENDMDL