MODEL 4
REMARK VINA RESULT: -6.749333296      1.902      2.492
REMARK  12 active torsions:
REMARK  status: ('A' for Active; 'I' for Inactive)
REMARK    1  A    between atoms: N2_3  and  S1_5
REMARK    2  A    between atoms: S1_5  and  N3_7
REMARK    3  A    between atoms: S1_5  and  C9_21
REMARK    4  A    between atoms: N3_7  and  C2_9
REMARK    5  A    between atoms: C2_9  and  C3_10
REMARK    6  A    between atoms: C3_10  and  O2_11
REMARK    7  A    between atoms: C3_10  and  C4_13
REMARK    8  A    between atoms: C4_13  and  N4_14
REMARK    9  A    between atoms: N4_14  and  C5_17
REMARK   10  A    between atoms: C5_17  and  C6_18
REMARK   11  A    between atoms: C13_25  and  C14_26
REMARK   12  A    between atoms: C15_27  and  C16_28
ROOT
HETATM    1  N1  UNL     1      72.959  53.324   4.449  1.00  0.00    -0.171 NA
HETATM    2  C1  UNL     1      72.193  53.365   3.586  1.00  0.00     0.191 C
HETATM    3  N2  UNL     1      71.261  53.400   2.544  1.00  0.00    -0.234 N
ATOM      4  H2  UNL     1      70.379  53.906   2.627  1.00  0.00     0.190 HD
ENDROOT
BRANCH   3   5
HETATM    5  S1  UNL     1      71.652  52.610   1.226  1.00  0.00     0.147 S
HETATM    6  O1  UNL     1      72.987  51.942   1.378  1.00  0.00    -0.222 OA
BRANCH   5   7
HETATM    7  N3  UNL     1      71.778  53.770  -0.036  1.00  0.00    -0.329 N
ATOM      8  H3  UNL     1      72.070  53.583  -0.995  1.00  0.00     0.171 HD
BRANCH   7   9
HETATM    9  C2  UNL     1      71.401  55.049   0.497  1.00  0.00     0.164 C
BRANCH   9  10
HETATM   10  C3  UNL     1      70.377  55.774  -0.321  1.00  0.00     0.162 C
BRANCH  10  11
HETATM   11  O2  UNL     1      70.729  57.100  -0.425  1.00  0.00    -0.392 OA
ATOM     12  H2  UNL     1      70.137  57.539  -1.025  1.00  0.00     0.210 HD
ENDBRANCH  10  11
BRANCH  10  13
HETATM   13  C4  UNL     1      69.035  55.600   0.388  1.00  0.00     0.265 C
BRANCH  13  14
HETATM   14  N4  UNL     1      68.052  55.017  -0.509  1.00  0.00    -0.072 N
ATOM     15  H42 UNL     1      67.595  54.204  -0.097  1.00  0.00     0.277 HD
ATOM     16  H41 UNL     1      67.231  55.613  -0.615  1.00  0.00     0.277 HD
BRANCH  14  17
HETATM   17  C5  UNL     1      68.655  54.709  -1.770  1.00  0.00     0.237 C
BRANCH  17  18
HETATM   18  C6  UNL     1      67.648  54.188  -2.744  1.00  0.00     0.011 A
HETATM   19  C7  UNL     1      67.973  52.912  -3.480  1.00  0.00     0.007 A
HETATM   20  C8  UNL     1      66.934  52.933  -2.407  1.00  0.00     0.007 A
ENDBRANCH  17  18
ENDBRANCH  14  17
ENDBRANCH  13  14
ENDBRANCH  10  13
ENDBRANCH   9  10
ENDBRANCH   7   9
ENDBRANCH   5   7
BRANCH   5  21
HETATM   21  C9  UNL     1      70.467  51.382   0.895  1.00  0.00     0.059 A
HETATM   22  C10 UNL     1      69.262  51.648   0.285  1.00  0.00     0.023 A
HETATM   23  C11 UNL     1      68.345  50.652   0.038  1.00  0.00     0.002 A
HETATM   24  C12 UNL     1      68.673  49.341   0.429  1.00  0.00     0.011 A
HETATM   25  C13 UNL     1      69.858  49.002   1.041  1.00  0.00    -0.035 A
HETATM   26  C19 UNL     1      70.735  50.097   1.252  1.00  0.00     0.035 A
BRANCH  25  27
HETATM   27  C14 UNL     1      70.275  47.689   1.404  1.00  0.00     0.007 C
HETATM   28  C15 UNL     1      70.439  47.135   2.540  1.00  0.00    -0.021 C
BRANCH  28  29
HETATM   29  C16 UNL     1      70.222  47.735   3.869  1.00  0.00     0.008 A
HETATM   30  C17 UNL     1      70.938  46.988   4.974  1.00  0.00     0.009 A
HETATM   31  C18 UNL     1      71.405  48.358   4.577  1.00  0.00     0.009 A
ENDBRANCH  28  29
ENDBRANCH  25  27
ENDBRANCH   5  21
ENDBRANCH   3   5
TORSDOF 12
ENDMDL