MODEL 3
REMARK VINA RESULT: -5.437688954      3.397      4.123
REMARK  13 active torsions:
REMARK  status: ('A' for Active; 'I' for Inactive)
REMARK    1  A    between atoms: C4_4  and  C5_5
REMARK    2  A    between atoms: C5_5  and  N1_6
REMARK    3  A    between atoms: N2_9  and  C8_10
REMARK    4  A    between atoms: C8_10  and  C9_11
REMARK    5  A    between atoms: C9_11  and  C10_12
REMARK    6  A    between atoms: C10_12  and  N3_13
REMARK    7  A    between atoms: N3_13  and  C11_15
REMARK    8  A    between atoms: C11_15  and  N4_17
REMARK    9  A    between atoms: N4_17  and  C12_19
REMARK   10  A    between atoms: C12_19  and  C13_20
REMARK   11  A    between atoms: C13_20  and  C14_21
REMARK   12  A    between atoms: C14_21  and  O1_22
REMARK   13  A    between atoms: C15_24  and  C16_25
ROOT
HETATM    1  N1  UNL     1      68.507  50.160  -0.650  1.00  0.00    -0.406 N
HETATM    2  C6  UNL     1      68.235  50.661   0.648  1.00  0.00     0.137 C
HETATM    3  C7  UNL     1      68.997  51.881   1.054  1.00  0.00     0.141 C
HETATM    4  N2  UNL     1      69.480  52.517  -0.151  1.00  0.00    -0.385 N
HETATM    5  C15 UNL     1      68.549  52.500  -1.187  1.00  0.00     0.105 C
HETATM    6  C19 UNL     1      68.525  51.058  -1.734  1.00  0.00     0.142 C
ENDROOT
BRANCH   4   7
HETATM    7  C8  UNL     1      70.422  53.517   0.043  1.00  0.00     0.060 C
BRANCH   7   8
HETATM    8  C9  UNL     1      70.493  54.140   1.395  1.00  0.00     0.064 C
BRANCH   8   9
HETATM    9  C10 UNL     1      71.898  53.945   1.981  1.00  0.00     0.127 C
BRANCH   9  10
HETATM   10  N3  UNL     1      71.800  53.268   3.254  1.00  0.00    -0.367 N
ATOM     11  H3  UNL     1      71.303  52.380   3.317  1.00  0.00     0.161 HD
BRANCH  10  12
HETATM   12  C11 UNL     1      72.383  53.823   4.400  1.00  0.00     0.167 C
HETATM   13  S1  UNL     1      73.076  55.315   4.285  1.00  0.00    -0.041 SA
BRANCH  12  14
HETATM   14  N4  UNL     1      72.422  53.172   5.650  1.00  0.00    -0.367 N
ATOM     15  H4  UNL     1      71.534  52.875   6.053  1.00  0.00     0.161 HD
BRANCH  14  16
HETATM   16  C12 UNL     1      73.626  52.890   6.409  1.00  0.00     0.124 C
BRANCH  16  17
HETATM   17  C13 UNL     1      74.141  51.513   6.028  1.00  0.00     0.046 C
BRANCH  17  18
HETATM   18  C14 UNL     1      73.014  50.508   5.912  1.00  0.00     0.165 C
BRANCH  18  19
HETATM   19  O1  UNL     1      72.565  50.409   4.609  1.00  0.00    -0.401 OA
ATOM     20  H1  UNL     1      72.428  49.502   4.360  1.00  0.00     0.209 HD
ENDBRANCH  18  19
ENDBRANCH  17  18
ENDBRANCH  16  17
ENDBRANCH  14  16
ENDBRANCH  12  14
ENDBRANCH  10  12
ENDBRANCH   9  10
ENDBRANCH   8   9
ENDBRANCH   7   8
ENDBRANCH   4   7
BRANCH   5  21
HETATM   21  C16 UNL     1      68.778  53.467  -2.311  1.00  0.00     0.010 A
HETATM   22  C17 UNL     1      67.850  54.632  -2.499  1.00  0.00     0.007 A
HETATM   23  C18 UNL     1      67.880  53.507  -3.486  1.00  0.00     0.007 A
ENDBRANCH   5  21
BRANCH   1  24
HETATM   24  C5  UNL     1      69.557  49.162  -0.678  1.00  0.00     0.144 C
BRANCH  24  25
HETATM   25  C4  UNL     1      69.473  48.199   0.420  1.00  0.00    -0.006 C
HETATM   26  C2  UNL     1      70.392  48.167   1.384  1.00  0.00    -0.090 C
HETATM   27  C1  UNL     1      70.332  47.202   2.516  1.00  0.00     0.042 C
HETATM   28  C3  UNL     1      71.562  49.117   1.370  1.00  0.00     0.042 C
ENDBRANCH  24  25
ENDBRANCH   1  24
TORSDOF 13
ENDMDL