MODEL 3
REMARK VINA RESULT: -5.683705524      2.296      5.049
REMARK  12 active torsions:
REMARK  status: ('A' for Active; 'I' for Inactive)
REMARK    1  A    between atoms: C2_2  and  C3_3
REMARK    2  A    between atoms: C3_3  and  C4_4
REMARK    3  A    between atoms: N1_6  and  C6_7
REMARK    4  A    between atoms: C6_7  and  C7_9
REMARK    5  A    between atoms: C7_9  and  C8_10
REMARK    6  A    between atoms: C7_9  and  C12_18
REMARK    7  A    between atoms: C8_10  and  C9_11
REMARK    8  A    between atoms: C9_11  and  C10_12
REMARK    9  A    between atoms: C10_12  and  N2_13
REMARK   10  A    between atoms: C12_18  and  C13_19
REMARK   11  A    between atoms: C13_19  and  S2_20
REMARK   12  A    between atoms: C16_23  and  N5_24
ROOT
HETATM    1  C6  UNL     1      69.446  52.004  -0.141  1.00  0.00     0.080 C
HETATM    2  S1  UNL     1      68.583  51.821   1.263  1.00  0.00    -0.065 SA
ENDROOT
BRANCH   1   3
HETATM    3  N1  UNL     1      70.713  52.662  -0.089  1.00  0.00    -0.372 N
HETATM    4  C5  UNL     1      71.447  53.387  -1.068  1.00  0.00     0.130 C
HETATM    5  C4  UNL     1      72.302  54.400  -0.255  1.00  0.00     0.036 C
HETATM    6  C16 UNL     1      71.815  54.209   1.145  1.00  0.00     0.207 C
HETATM    7  C15 UNL     1      71.551  52.695   1.119  1.00  0.00     0.156 C
BRANCH   5   8
HETATM    8  C3  UNL     1      73.741  54.093  -0.427  1.00  0.00     0.008 C
BRANCH   8   9
HETATM    9  C2  UNL     1      74.165  53.321  -1.622  1.00  0.00    -0.004 C
HETATM   10  C1  UNL     1      74.852  52.029  -1.202  1.00  0.00     0.005 C
ENDBRANCH   8   9
ENDBRANCH   5   8
BRANCH   6  11
HETATM   11  N5  UNL     1      72.682  54.522   2.205  1.00  0.00    -0.073 N
ATOM     12  H53 UNL     1      72.163  54.479   3.081  1.00  0.00     0.274 HD
ATOM     13  H52 UNL     1      73.343  53.756   2.329  1.00  0.00     0.274 HD
ATOM     14  H51 UNL     1      73.197  55.401   2.168  1.00  0.00     0.274 HD
ENDBRANCH   6  11
ENDBRANCH   1   3
BRANCH   1  15
HETATM   15  C7  UNL     1      68.877  51.483  -1.399  1.00  0.00     0.048 C
BRANCH  15  16
HETATM   16  C8  UNL     1      67.752  52.311  -1.954  1.00  0.00     0.013 C
BRANCH  16  17
HETATM   17  C9  UNL     1      68.232  53.315  -2.939  1.00  0.00     0.020 C
BRANCH  17  18
HETATM   18  C10 UNL     1      68.052  54.741  -2.510  1.00  0.00     0.122 C
BRANCH  18  19
HETATM   19  N2  UNL     1      67.827  54.844  -1.065  1.00  0.00    -0.367 N
HETATM   20  C11 UNL     1      68.529  55.675  -0.349  1.00  0.00     0.196 C
HETATM   21  N3  UNL     1      68.266  55.726   1.027  1.00  0.00    -0.067 NA
HETATM   22  N4  UNL     1      69.522  56.496  -0.944  1.00  0.00    -0.067 NA
ATOM     23  H2  UNL     1      67.118  54.263  -0.618  1.00  0.00     0.161 HD
ENDBRANCH  18  19
ENDBRANCH  17  18
ENDBRANCH  16  17
ENDBRANCH  15  16
BRANCH  15  24
HETATM   24  C12 UNL     1      68.567  50.004  -1.367  1.00  0.00     0.022 C
BRANCH  24  25
HETATM   25  C13 UNL     1      69.815  49.259  -0.902  1.00  0.00     0.074 C
BRANCH  25  26
HETATM   26  S2  UNL     1      69.476  48.236   0.538  1.00  0.00    -0.173 SA
HETATM   27  C14 UNL     1      70.658  48.687   1.836  1.00  0.00     0.089 C
ENDBRANCH  25  26
ENDBRANCH  24  25
ENDBRANCH  15  24
ENDBRANCH   1  15
TORSDOF 12
ENDMDL