MODEL 3
REMARK VINA RESULT: -5.894931707      2.397      4.103
REMARK  10 active torsions:
REMARK  status: ('A' for Active; 'I' for Inactive)
REMARK    1  A    between atoms: C2_2  and  C3_3
REMARK    2  A    between atoms: C3_3  and  C4_4
REMARK    3  A    between atoms: C4_4  and  N1_5
REMARK    4  A    between atoms: C4_4  and  C16_22
REMARK       I    between atoms: N1_5  and  C5_7
REMARK    5  A    between atoms: C5_7  and  C6_9
REMARK       I    between atoms: N2_13  and  C10_14
REMARK    6  A    between atoms: C10_14  and  C11_16
REMARK    7  A    between atoms: C11_16  and  C12_17
REMARK    8  A    between atoms: C11_16  and  C14_19
REMARK    9  A    between atoms: C14_19  and  C15_20
REMARK       I    between atoms: C16_22  and  N3_24
REMARK   10  A    between atoms: N3_24  and  C17_26
ROOT
HETATM    1  N1  UNL     1      71.437  51.954   1.741  1.00  0.00    -0.346 N
ATOM      2  H1  UNL     1      70.993  51.332   1.065  1.00  0.00     0.163 HD
HETATM    3  C5  UNL     1      70.924  53.267   1.874  1.00  0.00     0.241 C
HETATM    4  O1  UNL     1      71.469  54.014   2.696  1.00  0.00    -0.271 OA
ENDROOT
BRANCH   3   5
HETATM    5  C6  UNL     1      69.794  53.712   1.063  1.00  0.00     0.179 C
HETATM    6  C7  UNL     1      70.008  55.184   0.728  1.00  0.00     0.037 C
HETATM    7  C8  UNL     1      70.319  55.211  -0.733  1.00  0.00     0.022 C
HETATM    8  C9  UNL     1      70.665  53.771  -1.048  1.00  0.00     0.127 C
HETATM    9  N2  UNL     1      69.707  53.057  -0.241  1.00  0.00    -0.338 N
HETATM   10  C10 UNL     1      68.873  51.993  -0.556  1.00  0.00     0.224 C
HETATM   11  O2  UNL     1      68.120  51.513   0.375  1.00  0.00    -0.273 OA
BRANCH  10  12
HETATM   12  C11 UNL     1      68.722  51.312  -1.862  1.00  0.00     0.078 C
BRANCH  12  13
HETATM   13  C12 UNL     1      67.518  51.836  -2.554  1.00  0.00     0.009 C
HETATM   14  C13 UNL     1      67.739  53.157  -3.247  1.00  0.00     0.006 C
ENDBRANCH  12  13
BRANCH  12  15
HETATM   15  C14 UNL     1      68.755  49.818  -1.734  1.00  0.00     0.025 C
BRANCH  15  16
HETATM   16  C15 UNL     1      69.897  49.277  -0.941  1.00  0.00     0.087 C
HETATM   17  S1  UNL     1      69.378  48.307   0.494  1.00  0.00    -0.098 SA
ENDBRANCH  15  16
ENDBRANCH  12  15
ENDBRANCH  10  12
ENDBRANCH   3   5
BRANCH   1  18
HETATM   18  C4  UNL     1      72.558  51.438   2.512  1.00  0.00     0.180 C
BRANCH  18  19
HETATM   19  C3  UNL     1      73.851  51.649   1.699  1.00  0.00     0.061 C
BRANCH  19  20
HETATM   20  C2  UNL     1      74.789  52.520   2.447  1.00  0.00    -0.034 C
HETATM   21  C1  UNL     1      74.656  52.798   3.720  1.00  0.00     0.007 C
ENDBRANCH  19  20
ENDBRANCH  18  19
BRANCH  18  22
HETATM   22  C16 UNL     1      72.400  49.974   2.628  1.00  0.00     0.241 C
HETATM   23  O3  UNL     1      72.769  49.204   1.710  1.00  0.00    -0.271 OA
HETATM   24  N3  UNL     1      71.816  49.357   3.796  1.00  0.00    -0.355 N
ATOM     25  H3  UNL     1      71.499  49.944   4.569  1.00  0.00     0.162 HD
BRANCH  24  26
HETATM   26  C17 UNL     1      71.675  47.923   3.889  1.00  0.00     0.084 A
HETATM   27  C18 UNL     1      71.380  47.229   5.152  1.00  0.00     0.027 A
HETATM   28  C19 UNL     1      70.248  47.428   4.181  1.00  0.00     0.027 A
ENDBRANCH  24  26
ENDBRANCH  18  22
ENDBRANCH   1  18
TORSDOF 10
ENDMDL