MODEL 2
REMARK VINA RESULT: -6.612158039      1.325      1.994
REMARK  10 active torsions:
REMARK  status: ('A' for Active; 'I' for Inactive)
REMARK       I    between atoms: C2_5  and  N4_7
REMARK    1  A    between atoms: N4_7  and  C3_9
REMARK    2  A    between atoms: C3_9  and  C4_10
REMARK    3  A    between atoms: C4_10  and  C5_11
REMARK    4  A    between atoms: C5_11  and  C6_12
REMARK    5  A    between atoms: C6_12  and  C7_13
REMARK    6  A    between atoms: C7_13  and  C8_14
REMARK    7  A    between atoms: C8_14  and  C9_15
REMARK    8  A    between atoms: C9_15  and  C10_16
REMARK    9  A    between atoms: C10_16  and  C11_17
REMARK   10  A    between atoms: C11_17  and  C12_18
REMARK       I    between atoms: C12_18  and  N5_20
ROOT
HETATM    1  N1  UNL     1      69.124  53.569   0.983  1.00  0.00    -0.172 NA
HETATM    2  C1  UNL     1      68.801  54.480   0.345  1.00  0.00     0.184 C
HETATM    3  N2  UNL     1      68.426  55.593  -0.409  1.00  0.00    -0.268 N
ATOM      4  H2  UNL     1      68.416  56.499   0.060  1.00  0.00     0.180 HD
HETATM    5  C2  UNL     1      68.092  55.563  -1.648  1.00  0.00     0.197 C
HETATM    6  N3  UNL     1      67.734  56.785  -2.277  1.00  0.00    -0.063 NA
HETATM    7  N4  UNL     1      68.070  54.372  -2.399  1.00  0.00    -0.364 N
ATOM      8  H4  UNL     1      68.805  54.224  -3.091  1.00  0.00     0.162 HD
ENDROOT
BRANCH   7   9
HETATM    9  C3  UNL     1      67.063  53.350  -2.240  1.00  0.00     0.122 C
BRANCH   9  10
HETATM   10  C4  UNL     1      67.523  52.012  -2.780  1.00  0.00     0.020 C
BRANCH  10  11
HETATM   11  C5  UNL     1      68.825  51.669  -2.095  1.00  0.00     0.002 C
BRANCH  11  12
HETATM   12  C6  UNL     1      68.908  50.175  -1.833  1.00  0.00     0.000 C
BRANCH  12  13
HETATM   13  C7  UNL     1      68.526  49.804  -0.441  1.00  0.00     0.000 C
BRANCH  13  14
HETATM   14  C8  UNL     1      68.912  48.375  -0.169  1.00  0.00     0.000 C
BRANCH  14  15
HETATM   15  C9  UNL     1      68.923  48.030   1.301  1.00  0.00     0.000 C
BRANCH  15  16
HETATM   16  C10 UNL     1      70.175  47.290   1.698  1.00  0.00     0.009 C
BRANCH  16  17
HETATM   17  C11 UNL     1      71.013  48.017   2.694  1.00  0.00     0.103 C
BRANCH  17  18
HETATM   18  C12 UNL     1      72.375  48.209   2.140  1.00  0.00     0.219 C
HETATM   19  O1  UNL     1      73.245  47.307   2.379  1.00  0.00    -0.273 OA
HETATM   20  N5  UNL     1      72.698  49.355   1.371  1.00  0.00    -0.351 N
HETATM   21  C13 UNL     1      73.994  49.631   0.794  1.00  0.00     0.126 C
HETATM   22  C19 UNL     1      71.784  50.421   1.043  1.00  0.00     0.137 C
HETATM   23  C14 UNL     1      74.000  51.088   0.438  1.00  0.00     0.032 C
HETATM   24  C15 UNL     1      72.620  51.589   0.662  1.00  0.00     0.003 C
HETATM   25  C16 UNL     1      72.077  52.313  -0.563  1.00  0.00     0.040 C
HETATM   26  C18 UNL     1      72.567  52.705   1.694  1.00  0.00     0.243 C
HETATM   27  C17 UNL     1      72.736  53.677  -0.403  1.00  0.00     0.233 C
HETATM   28  N6  UNL     1      72.396  53.944   1.002  1.00  0.00    -0.074 N
ATOM     29  H62 UNL     1      72.927  54.714   1.409  1.00  0.00     0.277 HD
ATOM     30  H61 UNL     1      71.470  54.353   1.125  1.00  0.00     0.277 HD
ENDBRANCH  17  18
ENDBRANCH  16  17
ENDBRANCH  15  16
ENDBRANCH  14  15
ENDBRANCH  13  14
ENDBRANCH  12  13
ENDBRANCH  11  12
ENDBRANCH  10  11
ENDBRANCH   9  10
ENDBRANCH   7   9
TORSDOF 10
ENDMDL