MODEL 5
REMARK VINA RESULT: -6.279110605      3.322      5.070
REMARK  10 active torsions:
REMARK  status: ('A' for Active; 'I' for Inactive)
REMARK    1  A    between atoms: C2_2  and  C3_3
REMARK    2  A    between atoms: C3_3  and  C5_5
REMARK    3  A    between atoms: C5_5  and  N1_6
REMARK    4  A    between atoms: C5_5  and  C12_16
REMARK       I    between atoms: N1_6  and  C6_8
REMARK    5  A    between atoms: C6_8  and  O2_10
REMARK    6  A    between atoms: O2_10  and  C7_11
REMARK       I    between atoms: C12_16  and  N2_18
REMARK    7  A    between atoms: N2_18  and  C13_20
REMARK    8  A    between atoms: C13_20  and  C15_22
REMARK    9  A    between atoms: C15_22  and  C17_24
REMARK       I    between atoms: C17_24  and  N3_26
REMARK   10  A    between atoms: N3_26  and  C18_28
ROOT
HETATM    1  C5  UNL     1      70.609  49.753   1.423  1.00  0.00     0.182 C
ENDROOT
BRANCH   1   2
HETATM    2  C3  UNL     1      70.209  48.473   0.722  1.00  0.00     0.013 C
HETATM    3  C4  UNL     1      69.741  47.430   1.711  1.00  0.00     0.012 C
BRANCH   2   4
HETATM    4  C2  UNL     1      69.134  48.693  -0.305  1.00  0.00     0.002 C
HETATM    5  C1  UNL     1      67.851  48.097   0.232  1.00  0.00     0.005 C
ENDBRANCH   2   4
ENDBRANCH   1   2
BRANCH   1   6
HETATM    6  N1  UNL     1      70.513  50.898   0.540  1.00  0.00    -0.323 N
HETATM    7  C6  UNL     1      69.512  51.891   0.648  1.00  0.00     0.361 C
HETATM    8  O1  UNL     1      68.619  51.839   1.543  1.00  0.00    -0.238 OA
ATOM      9  H1  UNL     1      71.207  50.992  -0.202  1.00  0.00     0.165 HD
BRANCH   7  10
HETATM   10  O2  UNL     1      69.495  52.941  -0.228  1.00  0.00    -0.299 OA
BRANCH  10  11
HETATM   11  C7  UNL     1      69.265  52.857  -1.602  1.00  0.00     0.133 C
HETATM   12  C8  UNL     1      68.195  51.834  -1.953  1.00  0.00     0.032 C
HETATM   13  C9  UNL     1      67.023  52.622  -2.492  1.00  0.00     0.002 C
HETATM   14  C10 UNL     1      67.726  53.807  -3.146  1.00  0.00     0.002 C
HETATM   15  C11 UNL     1      68.704  54.199  -2.052  1.00  0.00     0.032 C
ENDBRANCH  10  11
ENDBRANCH   7  10
ENDBRANCH   1   6
BRANCH   1  16
HETATM   16  C12 UNL     1      71.974  49.620   1.973  1.00  0.00     0.241 C
HETATM   17  O3  UNL     1      72.917  49.366   1.192  1.00  0.00    -0.271 OA
HETATM   18  N2  UNL     1      72.254  49.770   3.350  1.00  0.00    -0.354 N
ATOM     19  H2  UNL     1      71.486  49.977   3.989  1.00  0.00     0.162 HD
BRANCH  18  20
HETATM   20  C13 UNL     1      73.589  49.639   3.887  1.00  0.00     0.093 C
HETATM   21  C14 UNL     1      73.755  48.404   4.714  1.00  0.00     0.033 C
BRANCH  20  22
HETATM   22  C15 UNL     1      73.902  50.852   4.733  1.00  0.00     0.096 C
HETATM   23  C16 UNL     1      72.970  50.796   5.930  1.00  0.00     0.022 C
BRANCH  22  24
HETATM   24  C17 UNL     1      73.555  52.067   3.971  1.00  0.00     0.229 C
HETATM   25  O4  UNL     1      74.135  52.296   2.885  1.00  0.00    -0.273 OA
HETATM   26  N3  UNL     1      72.571  52.959   4.478  1.00  0.00    -0.305 N
ATOM     27  H3  UNL     1      72.106  52.763   5.365  1.00  0.00     0.171 HD
BRANCH  26  28
HETATM   28  C18 UNL     1      72.246  54.117   3.745  1.00  0.00     0.355 C
HETATM   29  O5  UNL     1      71.419  54.052   2.811  1.00  0.00    -0.283 OA
ENDBRANCH  26  28
ENDBRANCH  22  24
ENDBRANCH  20  22
ENDBRANCH  18  20
ENDBRANCH   1  16
TORSDOF 10
ENDMDL