MODEL 5
REMARK VINA RESULT: -6.453947554      1.049      1.350
REMARK  11 active torsions:
REMARK  status: ('A' for Active; 'I' for Inactive)
REMARK    1  A    between atoms: C2_2  and  C3_3
REMARK    2  A    between atoms: C3_3  and  C4_4
REMARK    3  A    between atoms: C4_4  and  O1_5
REMARK    4  A    between atoms: N1_10  and  C8_11
REMARK    5  A    between atoms: C8_11  and  C9_12
REMARK    6  A    between atoms: C9_12  and  C10_13
REMARK    7  A    between atoms: C10_13  and  C11_14
REMARK    8  A    between atoms: C11_14  and  C12_15
REMARK    9  A    between atoms: C12_15  and  C13_16
REMARK   10  A    between atoms: C13_16  and  N2_17
REMARK   11  A    between atoms: C16_24  and  C17_25
ROOT
HETATM    1  C4  UNL     1      72.800  49.216   2.114  1.00  0.00     0.095 C
HETATM    2  C5  UNL     1      72.467  50.451   1.257  1.00  0.00     0.039 C
HETATM    3  C6  UNL     1      72.201  51.648   2.162  1.00  0.00     0.015 C
HETATM    4  C7  UNL     1      71.382  50.258   0.278  1.00  0.00     0.133 C
HETATM    5  N1  UNL     1      70.396  49.266   0.581  1.00  0.00    -0.348 N
HETATM    6  C15 UNL     1      70.578  48.375   1.640  1.00  0.00     0.249 C
HETATM    7  O2  UNL     1      69.968  47.268   1.743  1.00  0.00    -0.268 OA
HETATM    8  C16 UNL     1      71.563  48.761   2.724  1.00  0.00     0.027 C
ENDROOT
BRANCH   5   9
HETATM    9  C8  UNL     1      69.210  49.193  -0.229  1.00  0.00     0.126 C
BRANCH   9  10
HETATM   10  C9  UNL     1      69.611  49.601  -1.649  1.00  0.00     0.020 C
BRANCH  10  11
HETATM   11  C10 UNL     1      68.493  50.415  -2.282  1.00  0.00     0.002 C
BRANCH  11  12
HETATM   12  C11 UNL     1      68.301  51.689  -1.526  1.00  0.00     0.002 C
BRANCH  12  13
HETATM   13  C12 UNL     1      67.840  52.819  -2.416  1.00  0.00     0.020 C
BRANCH  13  14
HETATM   14  C13 UNL     1      68.551  54.114  -2.118  1.00  0.00     0.122 C
BRANCH  14  15
HETATM   15  N2  UNL     1      68.145  54.583  -0.825  1.00  0.00    -0.367 N
HETATM   16  C14 UNL     1      68.643  55.571  -0.203  1.00  0.00     0.196 C
HETATM   17  N3  UNL     1      69.700  56.339  -0.760  1.00  0.00    -0.067 NA
HETATM   18  N4  UNL     1      68.144  55.925   1.073  1.00  0.00    -0.067 NA
ATOM     19  H2  UNL     1      67.389  54.076  -0.364  1.00  0.00     0.161 HD
ENDBRANCH  14  15
ENDBRANCH  13  14
ENDBRANCH  12  13
ENDBRANCH  11  12
ENDBRANCH  10  11
ENDBRANCH   9  10
ENDBRANCH   5   9
BRANCH   8  20
HETATM   20  C17 UNL     1      71.506  47.853   3.861  1.00  0.00     0.023 C
HETATM   21  C18 UNL     1      71.772  48.421   5.233  1.00  0.00     0.009 C
HETATM   22  C19 UNL     1      71.988  46.942   5.645  1.00  0.00     0.001 C
HETATM   23  C20 UNL     1      72.460  46.794   4.176  1.00  0.00     0.009 C
ENDBRANCH   8  20
BRANCH   1  24
HETATM   24  C3  UNL     1      73.696  48.330   1.374  1.00  0.00     0.069 C
BRANCH  24  25
HETATM   25  C2  UNL     1      75.056  48.103   1.822  1.00  0.00    -0.033 C
HETATM   26  C1  UNL     1      75.520  46.875   1.993  1.00  0.00     0.007 C
ENDBRANCH  24  25
ENDBRANCH   1  24
BRANCH   1  27
HETATM   27  O1  UNL     1      73.585  49.817   3.149  1.00  0.00    -0.384 OA
ATOM     28  H1  UNL     1      73.024  50.451   3.580  1.00  0.00     0.211 HD
ENDBRANCH   1  27
TORSDOF 11
ENDMDL