MODEL 5
REMARK VINA RESULT: -5.125097001      1.782      2.152
REMARK  4 active torsions:
REMARK  status: ('A' for Active; 'I' for Inactive)
REMARK    1  A    between atoms: N1_2  and  O1_3
REMARK    2  A    between atoms: N2_5  and  C2_7
REMARK    3  A    between atoms: C3_8  and  C4_9
REMARK    4  A    between atoms: C5_13  and  C6_14
ROOT
HETATM    1  C2  UNL     1     -38.076  57.484   5.663  1.00  0.00     0.097 A
HETATM    2  C3  UNL     1     -39.423  57.670   5.476  1.00  0.00     0.112 A
HETATM    3  S1  UNL     1     -39.503  58.489   3.989  1.00  0.00    -0.072 SA
HETATM    4  C5  UNL     1     -37.837  58.583   3.625  1.00  0.00     0.106 A
HETATM    5  C7  UNL     1     -37.261  57.962   4.693  1.00  0.00     0.087 A
HETATM    6 CL1  UNL     1     -35.487  57.798   4.786  1.00  0.00    -0.080 Cl
ENDROOT
BRANCH   1   7
HETATM    7  N2  UNL     1     -37.636  56.789   6.882  1.00  0.00    -0.277 N
HETATM    8  N1  UNL     1     -37.234  55.593   6.813  1.00  0.00    -0.206 N
HETATM    9  C1  UNL     1     -36.819  54.981   8.061  1.00  0.00     0.207 C
ATOM     10  H2  UNL     1     -37.656  57.271   7.780  1.00  0.00     0.189 HD
BRANCH   8  11
HETATM   11  O1  UNL     1     -37.167  54.855   5.672  1.00  0.00    -0.273 OA
ATOM     12  H1  UNL     1     -36.314  54.688   5.287  1.00  0.00     0.246 HD
ENDBRANCH   8  11
ENDBRANCH   1   7
BRANCH   2  13
HETATM   13  C4  UNL     1     -40.531  57.272   6.333  1.00  0.00     0.219 C
HETATM   14  O2  UNL     1     -41.685  57.597   6.002  1.00  0.00    -0.643 OA
HETATM   15  O3  UNL     1     -40.320  56.553   7.486  1.00  0.00    -0.643 OA
ENDBRANCH   2  13
BRANCH   4  16
HETATM   16  C6  UNL     1     -37.174  59.183   2.451  1.00  0.00     0.218 C
HETATM   17  O4  UNL     1     -37.657  60.220   1.976  1.00  0.00    -0.643 OA
HETATM   18  O5  UNL     1     -36.057  58.615   1.900  1.00  0.00    -0.643 OA
ENDBRANCH   4  16
TORSDOF 4
ENDMDL