MODEL 2
REMARK VINA RESULT: -6.405577523      2.207      6.442
REMARK  5 active torsions:
REMARK  status: ('A' for Active; 'I' for Inactive)
REMARK    1  A    between atoms: C2_2  and  N1_3
REMARK    2  A    between atoms: C2_2  and  C3_7
REMARK    3  A    between atoms: C8_13  and  S1_14
REMARK    4  A    between atoms: S1_14  and  C9_15
REMARK    5  A    between atoms: C9_15  and  C10_16
ROOT
HETATM    1  C3  UNL     1     -37.678  57.569   5.707  1.00  0.00     0.031 C
HETATM    2  C4  UNL     1     -38.857  58.005   4.794  1.00  0.00     0.008 C
HETATM    3  C5  UNL     1     -39.975  58.575   5.612  1.00  0.00     0.002 C
HETATM    4  C6  UNL     1     -40.470  57.513   6.573  1.00  0.00     0.021 C
HETATM    5  C7  UNL     1     -39.319  56.998   7.431  1.00  0.00     0.096 C
HETATM    6 CL1  UNL     1     -39.978  55.661   8.380  1.00  0.00    -0.124 Cl
HETATM    7  C8  UNL     1     -38.252  56.423   6.510  1.00  0.00     0.072 C
ENDROOT
BRANCH   7   8
HETATM    8  S1  UNL     1     -37.111  55.406   7.372  1.00  0.00    -0.155 SA
BRANCH   8   9
HETATM    9  C9  UNL     1     -37.261  53.661   7.354  1.00  0.00     0.152 C
BRANCH   9  10
HETATM   10  C10 UNL     1     -37.008  52.924   8.591  1.00  0.00     0.106 A
HETATM   11  N2  UNL     1     -36.053  53.201   9.512  1.00  0.00    -0.339 N
HETATM   12  C11 UNL     1     -36.159  52.321  10.528  1.00  0.00     0.198 A
ATOM     13  H2  UNL     1     -35.368  53.953   9.448  1.00  0.00     0.168 HD
HETATM   14  N3  UNL     1     -37.182  51.505  10.225  1.00  0.00    -0.295 N
HETATM   15  N4  UNL     1     -37.672  51.883   9.065  1.00  0.00    -0.287 N
ATOM     16  H3  UNL     1     -37.519  50.729  10.795  1.00  0.00     0.187 HD
ATOM     17  H4  UNL     1     -38.458  51.435   8.595  1.00  0.00     0.188 HD
ENDBRANCH   9  10
ENDBRANCH   8   9
ENDBRANCH   7   8
BRANCH   1  18
HETATM   18  C2  UNL     1     -36.610  57.171   4.738  1.00  0.00     0.184 C
HETATM   19  C1  UNL     1     -35.462  58.102   4.574  1.00  0.00     0.040 C
BRANCH  18  20
HETATM   20  N1  UNL     1     -37.246  57.041   3.416  1.00  0.00    -0.075 N
ATOM     21  H13 UNL     1     -37.422  56.073   3.148  1.00  0.00     0.274 HD
ATOM     22  H12 UNL     1     -38.216  57.357   3.406  1.00  0.00     0.274 HD
ATOM     23  H11 UNL     1     -36.654  57.541   2.753  1.00  0.00     0.274 HD
ENDBRANCH  18  20
ENDBRANCH   1  18
TORSDOF 5
ENDMDL