MODEL 1
REMARK VINA RESULT: -8.516319586      0.000      0.000
REMARK  7 active torsions:
REMARK  status: ('A' for Active; 'I' for Inactive)
REMARK    1  A    between atoms: C2_2  and  C5_5
REMARK    2  A    between atoms: C9_10  and  C10_11
REMARK    3  A    between atoms: C10_11  and  C11_12
REMARK    4  A    between atoms: C11_12  and  C12_13
REMARK    5  A    between atoms: C12_13  and  C13_14
REMARK    6  A    between atoms: C13_14  and  O2_15
REMARK    7  A    between atoms: N1_17  and  O3_19
ROOT
HETATM    1  C5  UNL     1     -37.644  56.795   7.062  1.00  0.00     0.136 C
HETATM    2  C6  UNL     1     -38.878  57.252   7.768  1.00  0.00     0.111 C
HETATM    3  C7  UNL     1     -39.575  56.035   8.327  1.00  0.00     0.131 C
HETATM    4  O1  UNL     1     -40.777  55.979   8.435  1.00  0.00    -0.298 OA
HETATM    5  C8  UNL     1     -38.649  54.938   8.721  1.00  0.00     0.110 C
HETATM    6  C9  UNL     1     -37.868  54.525   7.504  1.00  0.00     0.129 C
HETATM    7  O4  UNL     1     -37.704  55.511   6.574  1.00  0.00    -0.379 OA
ENDROOT
BRANCH   6   8
HETATM    8  C10 UNL     1     -36.568  53.912   7.982  1.00  0.00     0.033 C
BRANCH   8   9
HETATM    9  C11 UNL     1     -36.304  54.151   9.424  1.00  0.00     0.010 C
BRANCH   9  10
HETATM   10  C12 UNL     1     -35.533  53.120  10.154  1.00  0.00     0.086 C
BRANCH  10  11
HETATM   11  C13 UNL     1     -36.008  51.735  10.030  1.00  0.00     0.135 C
HETATM   12  N1  UNL     1     -37.141  51.288  10.425  1.00  0.00    -0.251 N
ATOM     13  H1  UNL     1     -37.789  51.938  10.870  1.00  0.00     0.196 HD
BRANCH  11  14
HETATM   14  O2  UNL     1     -35.144  50.802   9.422  1.00  0.00    -0.348 OA
ATOM     15  H2  UNL     1     -35.033  49.962   9.852  1.00  0.00     0.219 HD
ENDBRANCH  11  14
BRANCH  12  16
HETATM   16  O3  UNL     1     -37.525  49.986  10.280  1.00  0.00    -0.288 OA
ATOM     17  H3  UNL     1     -37.984  49.660   9.515  1.00  0.00     0.244 HD
ENDBRANCH  12  16
ENDBRANCH  10  11
ENDBRANCH   9  10
ENDBRANCH   8   9
ENDBRANCH   6   8
BRANCH   1  18
HETATM   18  C2  UNL     1     -37.465  57.710   5.857  1.00  0.00    -0.025 C
HETATM   19  C1  UNL     1     -36.561  58.839   6.304  1.00  0.00     0.017 C
HETATM   20  C3  UNL     1     -36.864  56.917   4.742  1.00  0.00     0.017 C
HETATM   21  C4  UNL     1     -38.794  58.348   5.470  1.00  0.00     0.017 C
ENDBRANCH   1  18
TORSDOF 7
ENDMDL