MODEL 5
REMARK VINA RESULT: -5.864240101      2.658      5.491
REMARK  5 active torsions:
REMARK  status: ('A' for Active; 'I' for Inactive)
REMARK    1  A    between atoms: C2_2  and  S1_3
REMARK    2  A    between atoms: S1_3  and  C3_4
REMARK    3  A    between atoms: C4_6  and  C5_7
REMARK    4  A    between atoms: C6_10  and  N2_11
REMARK    5  A    between atoms: N2_11  and  C7_13
ROOT
HETATM    1  C3  UNL     1     -37.573  55.033   8.191  1.00  0.00     0.083 A
HETATM    2  S2  UNL     1     -38.852  56.114   8.504  1.00  0.00    -0.073 SA
HETATM    3  C4  UNL     1     -38.890  56.935   6.984  1.00  0.00     0.100 A
HETATM    4  C6  UNL     1     -37.889  56.324   6.291  1.00  0.00     0.092 A
HETATM    5  C11 UNL     1     -37.211  55.345   6.911  1.00  0.00     0.167 A
HETATM    6  F1  UNL     1     -36.180  54.631   6.323  1.00  0.00    -0.202 F
ENDROOT
BRANCH   4   7
HETATM    7  N2  UNL     1     -37.567  56.786   4.943  1.00  0.00    -0.378 N
ATOM      8  H2  UNL     1     -37.770  56.158   4.166  1.00  0.00     0.160 HD
BRANCH   7   9
HETATM    9  C7  UNL     1     -36.992  58.042   4.638  1.00  0.00     0.019 C
HETATM   10  C8  UNL     1     -35.806  58.016   3.700  1.00  0.00     0.037 C
HETATM   11  C9  UNL     1     -36.411  58.601   5.956  1.00  0.00     0.037 C
HETATM   12  C10 UNL     1     -37.956  59.110   4.170  1.00  0.00     0.037 C
ENDBRANCH   7   9
ENDBRANCH   4   7
BRANCH   3  13
HETATM   13  C5  UNL     1     -39.862  57.969   6.660  1.00  0.00     0.274 C
HETATM   14  N1  UNL     1     -41.080  57.664   5.978  1.00  0.00    -0.057 NA
HETATM   15  O1  UNL     1     -39.666  59.160   6.969  1.00  0.00    -0.270 OA
ENDBRANCH   3  13
BRANCH   1  16
HETATM   16  S1  UNL     1     -36.862  53.781   9.287  1.00  0.00    -0.120 SA
BRANCH  16  17
HETATM   17  C2  UNL     1     -37.033  52.138   8.537  1.00  0.00     0.075 C
HETATM   18  C1  UNL     1     -36.026  51.165   9.093  1.00  0.00     0.016 C
ENDBRANCH  16  17
ENDBRANCH   1  16
TORSDOF 5
ENDMDL