MODEL 1
REMARK VINA RESULT: -8.289733834      0.000      0.000
REMARK  6 active torsions:
REMARK  status: ('A' for Active; 'I' for Inactive)
REMARK    1  A    between atoms: O1_2  and  C2_3
REMARK    2  A    between atoms: C2_3  and  O2_4
REMARK    3  A    between atoms: C2_3  and  C3_6
REMARK    4  A    between atoms: N1_8  and  C5_9
REMARK    5  A    between atoms: C5_9  and  C6_10
REMARK    6  A    between atoms: C14_18  and  O3_19
ROOT
HETATM    1  C3  UNL     1     -37.827  55.028   7.899  1.00  0.00     0.046 A
HETATM    2  C4  UNL     1     -38.303  55.489   6.689  1.00  0.00     0.105 A
HETATM    3  N1  UNL     1     -39.028  56.597   6.912  1.00  0.00    -0.363 N
HETATM    4  C13 UNL     1     -39.023  56.847   8.224  1.00  0.00     0.127 A
HETATM    5  C14 UNL     1     -38.271  55.873   8.874  1.00  0.00     0.093 A
ENDROOT
BRANCH   3   6
HETATM    6  C5  UNL     1     -39.696  57.381   5.915  1.00  0.00     0.132 C
BRANCH   6   7
HETATM    7  C6  UNL     1     -38.765  57.981   4.903  1.00  0.00     0.004 C
HETATM    8  C7  UNL     1     -39.538  58.699   3.815  1.00  0.00     0.006 C
HETATM    9  C8  UNL     1     -38.732  58.765   2.528  1.00  0.00     0.000 C
HETATM   10  C9  UNL     1     -37.405  59.440   2.716  1.00  0.00     0.000 C
HETATM   11  C10 UNL     1     -36.449  58.454   3.366  1.00  0.00     0.000 C
HETATM   12  C11 UNL     1     -36.363  58.648   4.860  1.00  0.00     0.000 C
HETATM   13  C12 UNL     1     -37.699  58.844   5.502  1.00  0.00     0.006 C
ENDBRANCH   6   7
ENDBRANCH   3   6
BRANCH   1  14
HETATM   14  C2  UNL     1     -36.968  53.815   8.141  1.00  0.00     0.294 C
BRANCH  14  15
HETATM   15  O1  UNL     1     -35.813  54.131   8.813  1.00  0.00    -0.362 OA
HETATM   16  C1  UNL     1     -35.563  53.300   9.901  1.00  0.00     0.205 C
ENDBRANCH  14  15
BRANCH  14  17
HETATM   17  O2  UNL     1     -37.718  52.960   8.958  1.00  0.00    -0.367 OA
ATOM     18  H2  UNL     1     -38.587  53.333   9.048  1.00  0.00     0.213 HD
ENDBRANCH  14  17
ENDBRANCH   1  14
BRANCH   5  19
HETATM   19  O3  UNL     1     -38.038  55.800  10.246  1.00  0.00    -0.359 OA
ATOM     20  H3  UNL     1     -38.653  55.954  10.954  1.00  0.00     0.217 HD
ENDBRANCH   5  19
TORSDOF 6
ENDMDL