MODEL 1
REMARK VINA RESULT: -8.164332019      0.000      0.000
REMARK  8 active torsions:
REMARK  status: ('A' for Active; 'I' for Inactive)
REMARK    1  A    between atoms: C2_2  and  C4_4
REMARK    2  A    between atoms: C4_4  and  C5_5
REMARK    3  A    between atoms: C5_5  and  C6_6
REMARK    4  A    between atoms: C8_8  and  C9_9
REMARK    5  A    between atoms: C9_9  and  C10_10
REMARK    6  A    between atoms: C11_11  and  C12_12
REMARK    7  A    between atoms: C14_16  and  O2_17
REMARK    8  A    between atoms: C15_19  and  O3_20
ROOT
HETATM    1  C12 UNL     1     -36.949  54.423   8.606  1.00  0.00    -0.023 C
HETATM    2  C13 UNL     1     -36.040  53.683   8.870  1.00  0.00     0.012 C
HETATM    3 CL1  UNL     1     -34.725  52.627   9.272  1.00  0.00    -0.023 Cl
ENDROOT
BRANCH   1   4
HETATM    4  C11 UNL     1     -38.045  55.293   8.295  1.00  0.00     0.142 A
HETATM    5  C10 UNL     1     -38.081  56.384   7.467  1.00  0.00     0.026 A
HETATM    6  C15 UNL     1     -39.367  56.857   7.526  1.00  0.00     0.134 A
HETATM    7  C14 UNL     1     -40.084  56.041   8.389  1.00  0.00     0.219 A
HETATM    8  O1  UNL     1     -39.244  55.128   8.816  1.00  0.00    -0.276 OA
BRANCH   5   9
HETATM    9  C9  UNL     1     -36.985  56.938   6.674  1.00  0.00     0.072 C
BRANCH   9  10
HETATM   10  C8  UNL     1     -37.125  56.749   5.231  1.00  0.00    -0.020 C
HETATM   11  C6  UNL     1     -37.254  57.770   4.404  1.00  0.00    -0.087 C
HETATM   12  C7  UNL     1     -37.289  59.204   4.779  1.00  0.00     0.043 C
BRANCH  11  13
HETATM   13  C5  UNL     1     -37.396  57.500   2.916  1.00  0.00     0.038 C
BRANCH  13  14
HETATM   14  C4  UNL     1     -38.037  58.726   2.261  1.00  0.00     0.037 C
BRANCH  14  15
HETATM   15  C2  UNL     1     -37.232  59.166   1.121  1.00  0.00    -0.093 C
HETATM   16  C1  UNL     1     -35.996  58.729   0.959  1.00  0.00     0.014 C
HETATM   17  C3  UNL     1     -37.812  60.112   0.149  1.00  0.00     0.042 C
ENDBRANCH  14  15
ENDBRANCH  13  14
ENDBRANCH  11  13
ENDBRANCH   9  10
ENDBRANCH   5   9
BRANCH   6  18
HETATM   18  O3  UNL     1     -39.875  57.933   6.864  1.00  0.00    -0.356 OA
ATOM     19  H3  UNL     1     -40.638  57.948   6.298  1.00  0.00     0.218 HD
ENDBRANCH   6  18
BRANCH   7  20
HETATM   20  O2  UNL     1     -41.404  56.098   8.779  1.00  0.00    -0.339 OA
ATOM     21  H2  UNL     1     -41.841  56.904   9.025  1.00  0.00     0.220 HD
ENDBRANCH   7  20
ENDBRANCH   1   4
TORSDOF 8
ENDMDL