MODEL 4
REMARK VINA RESULT: -6.538189178      1.699      2.059
REMARK  5 active torsions:
REMARK  status: ('A' for Active; 'I' for Inactive)
REMARK    1  A    between atoms: N1_2  and  C2_5
REMARK    2  A    between atoms: C2_5  and  C3_6
REMARK    3  A    between atoms: C2_5  and  N3_17
REMARK    4  A    between atoms: C5_8  and  O1_9
REMARK    5  A    between atoms: N2_11  and  C6_12
ROOT
HETATM    1  C3  UNL     1     -37.856  54.828   7.750  1.00  0.00     0.034 A
HETATM    2  C4  UNL     1     -37.734  53.618   7.048  1.00  0.00     0.070 A
HETATM    3  C5  UNL     1     -37.154  52.699   7.859  1.00  0.00     0.144 A
HETATM    4  N2  UNL     1     -36.896  53.259   9.050  1.00  0.00    -0.314 N
HETATM    5  C9  UNL     1     -37.325  54.560   8.983  1.00  0.00     0.118 A
HETATM    6 CL1  UNL     1     -37.195  55.675  10.303  1.00  0.00    -0.064 Cl
ENDROOT
BRANCH   1   7
HETATM    7  C2  UNL     1     -38.441  56.044   7.168  1.00  0.00     0.322 C
BRANCH   7   8
HETATM    8  N1  UNL     1     -39.223  56.770   8.177  1.00  0.00    -0.054 N
HETATM    9  C1  UNL     1     -40.369  55.928   8.573  1.00  0.00     0.269 C
ATOM     10  H12 UNL     1     -39.508  57.697   7.861  1.00  0.00     0.279 HD
ATOM     11  H11 UNL     1     -38.658  57.064   8.974  1.00  0.00     0.279 HD
ENDBRANCH   7   8
BRANCH   7  12
HETATM   12  N3  UNL     1     -37.599  56.933   6.507  1.00  0.00    -0.362 N
HETATM   13  C10 UNL     1     -37.071  56.648   5.236  1.00  0.00     0.124 C
HETATM   14  C11 UNL     1     -36.109  57.831   5.010  1.00  0.00     0.025 C
HETATM   15  C12 UNL     1     -36.487  58.877   6.036  1.00  0.00     0.046 C
HETATM   16  C13 UNL     1     -37.764  58.327   6.639  1.00  0.00     0.060 C
ENDBRANCH   7  12
ENDBRANCH   1   7
BRANCH   3  17
HETATM   17  O1  UNL     1     -36.894  51.377   7.442  1.00  0.00    -0.346 OA
ATOM     18  H1  UNL     1     -36.108  50.908   7.693  1.00  0.00     0.219 HD
ENDBRANCH   3  17
BRANCH   4  19
HETATM   19  C6  UNL     1     -36.282  52.544  10.128  1.00  0.00     0.085 C
HETATM   20  C7  UNL     1     -34.778  52.514   9.906  1.00  0.00     0.032 C
HETATM   21  C8  UNL     1     -36.729  51.129  10.306  1.00  0.00     0.032 C
ENDBRANCH   4  19
TORSDOF 5
ENDMDL