MODEL 5
REMARK VINA RESULT: -8.162152323      2.987      6.983
REMARK  6 active torsions:
REMARK  status: ('A' for Active; 'I' for Inactive)
REMARK    1  A    between atoms: N1_2  and  C3_4
REMARK    2  A    between atoms: C5_6  and  O1_7
REMARK    3  A    between atoms: N2_9  and  C6_10
REMARK    4  A    between atoms: C6_10  and  C7_11
REMARK    5  A    between atoms: C7_11  and  C8_12
REMARK    6  A    between atoms: C14_19  and  O2_20
ROOT
HETATM    1  C3  UNL     1     -37.297  54.675   8.077  1.00  0.00     0.085 A
HETATM    2  C4  UNL     1     -37.809  55.642   8.927  1.00  0.00     0.089 A
HETATM    3  C5  UNL     1     -38.192  56.686   8.113  1.00  0.00     0.146 A
HETATM    4  N2  UNL     1     -37.935  56.388   6.824  1.00  0.00    -0.307 N
HETATM    5  C14 UNL     1     -37.386  55.162   6.778  1.00  0.00     0.171 A
ENDROOT
BRANCH   4   6
HETATM    6  C6  UNL     1     -38.208  57.259   5.669  1.00  0.00     0.133 C
BRANCH   6   7
HETATM    7  C7  UNL     1     -36.925  57.397   4.925  1.00  0.00     0.025 C
BRANCH   7   8
HETATM    8  C8  UNL     1     -37.076  57.575   3.446  1.00  0.00    -0.010 C
HETATM    9  C9  UNL     1     -38.464  58.057   3.086  1.00  0.00     0.005 C
HETATM   10  C10 UNL     1     -38.478  59.494   2.626  1.00  0.00     0.003 C
HETATM   11  C11 UNL     1     -37.605  59.678   1.401  1.00  0.00     0.037 C
HETATM   12  C12 UNL     1     -36.397  58.795   1.403  1.00  0.00     0.170 C
HETATM   13  F1  UNL     1     -36.564  57.651   0.650  1.00  0.00    -0.249 F
HETATM   14  C13 UNL     1     -36.024  58.454   2.830  1.00  0.00     0.042 C
ENDBRANCH   7   8
ENDBRANCH   6   7
ENDBRANCH   4   6
BRANCH   3  15
HETATM   15  O1  UNL     1     -38.765  57.885   8.543  1.00  0.00    -0.346 OA
ATOM     16  H1  UNL     1     -38.468  58.407   9.279  1.00  0.00     0.219 HD
ENDBRANCH   3  15
BRANCH   5  17
HETATM   17  O2  UNL     1     -36.981  54.502   5.610  1.00  0.00    -0.344 OA
ATOM     18  H2  UNL     1     -37.291  54.672   4.729  1.00  0.00     0.219 HD
ENDBRANCH   5  17
BRANCH   1  19
HETATM   19  N1  UNL     1     -36.779  53.418   8.465  1.00  0.00    -0.386 N
HETATM   20  C1  UNL     1     -37.557  52.223   8.241  1.00  0.00     0.149 C
HETATM   21  C2  UNL     1     -35.478  53.349   9.082  1.00  0.00     0.149 C
ENDBRANCH   1  19
TORSDOF 6
ENDMDL