MODEL 2
REMARK VINA RESULT: -8.280969910      2.134      5.338
REMARK  3 active torsions:
REMARK  status: ('A' for Active; 'I' for Inactive)
REMARK    1  A    between atoms: C5_6  and  O2_7
REMARK    2  A    between atoms: O2_7  and  C6_8
REMARK    3  A    between atoms: C14_17  and  O4_18
ROOT
HETATM    1  C1  UNL     1      28.851  48.862   6.852  1.00  0.00     0.017 C
HETATM    2  C2  UNL     1      29.515  47.970   7.570  1.00  0.00    -0.058 C
HETATM    3  C3  UNL     1      30.837  48.404   7.989  1.00  0.00     0.069 C
HETATM    4  C4  UNL     1      32.001  47.819   7.170  1.00  0.00     0.142 C
HETATM    5  O1  UNL     1      33.046  47.881   8.017  1.00  0.00    -0.326 OA
HETATM    6  C5  UNL     1      34.248  47.258   7.680  1.00  0.00     0.290 C
HETATM    7  C8  UNL     1      34.078  46.886   6.195  1.00  0.00     0.103 C
HETATM    8  C9  UNL     1      33.003  45.840   6.180  1.00  0.00     0.022 C
HETATM    9  C10 UNL     1      31.658  46.450   6.615  1.00  0.00     0.010 C
HETATM   10  C11 UNL     1      30.851  46.551   5.352  1.00  0.00     0.020 C
HETATM   11  C12 UNL     1      31.065  45.654   7.717  1.00  0.00     0.145 C
HETATM   12  C13 UNL     1      29.572  45.461   7.631  1.00  0.00     0.069 C
HETATM   13  C14 UNL     1      28.774  46.707   7.814  1.00  0.00     0.149 C
HETATM   14  O5  UNL     1      31.631  44.367   7.872  1.00  0.00    -0.315 OA
HETATM   15  C15 UNL     1      32.229  43.868   8.991  1.00  0.00     0.259 C
HETATM   16  O6  UNL     1      31.994  42.653   9.315  1.00  0.00    -0.265 OA
HETATM   17  C16 UNL     1      33.152  44.616   9.893  1.00  0.00     0.114 C
HETATM   18  C17 UNL     1      34.591  44.283   9.619  1.00  0.00     0.051 C
HETATM   19  C18 UNL     1      35.303  45.394   8.805  1.00  0.00     0.098 C
HETATM   20  C19 UNL     1      36.561  45.742   9.538  1.00  0.00     0.044 C
HETATM   21  C20 UNL     1      37.317  45.617   8.220  1.00  0.00     0.043 C
HETATM   22  C21 UNL     1      36.228  44.650   7.822  1.00  0.00     0.204 C
HETATM   23  F1  UNL     1      36.591  43.375   8.254  1.00  0.00    -0.246 F
HETATM   24  O7  UNL     1      34.400  46.206   8.399  1.00  0.00    -0.318 OA
ENDROOT
BRANCH   6  25
HETATM   25  O2  UNL     1      35.179  48.317   7.658  1.00  0.00    -0.258 OA
BRANCH  25  26
HETATM   26  C6  UNL     1      35.660  48.946   6.532  1.00  0.00     0.259 C
HETATM   27  C7  UNL     1      36.931  48.575   5.877  1.00  0.00     0.126 C
HETATM   28  O3  UNL     1      34.991  49.879   6.035  1.00  0.00    -0.266 OA
ENDBRANCH  25  26
ENDBRANCH   6  25
BRANCH  13  29
HETATM   29  O4  UNL     1      28.281  46.814   9.137  1.00  0.00    -0.391 OA
ATOM     30  H4  UNL     1      28.467  45.974   9.541  1.00  0.00     0.210 HD
ENDBRANCH  13  29
TORSDOF 3
ENDMDL