MODEL 3
REMARK VINA RESULT: -8.235807774      2.350      5.898
REMARK  2 active torsions:
REMARK  status: ('A' for Active; 'I' for Inactive)
REMARK    1  A    between atoms: C19_23  and  O4_24
REMARK    2  A    between atoms: C20_26  and  O5_27
ROOT
HETATM    1  C1  UNL     1      38.412  46.218   5.325  1.00  0.00     0.076 C
HETATM    2  C2  UNL     1      37.019  45.922   5.927  1.00  0.00     0.042 C
HETATM    3  C3  UNL     1      36.054  46.519   5.223  1.00  0.00     0.005 C
HETATM    4  C4  UNL     1      34.575  46.510   5.437  1.00  0.00     0.032 C
HETATM    5  C5  UNL     1      34.369  46.602   6.872  1.00  0.00     0.046 C
HETATM    6  C6  UNL     1      33.287  47.248   7.616  1.00  0.00     0.107 C
HETATM    7  C7  UNL     1      32.967  48.592   7.035  1.00  0.00     0.050 C
HETATM    8  O1  UNL     1      33.808  47.479   8.926  1.00  0.00    -0.228 OA
HETATM    9  O2  UNL     1      35.051  47.193   9.062  1.00  0.00    -0.232 OA
HETATM   10  C8  UNL     1      35.452  46.154   9.796  1.00  0.00     0.194 C
HETATM   11  C9  UNL     1      34.252  45.468  10.370  1.00  0.00     0.038 C
HETATM   12  C10 UNL     1      33.338  44.733   9.487  1.00  0.00     0.009 C
HETATM   13  C11 UNL     1      32.125  45.409   8.976  1.00  0.00     0.014 C
HETATM   14  C12 UNL     1      31.190  44.281   8.499  1.00  0.00    -0.019 C
HETATM   15  C13 UNL     1      30.209  43.864   9.547  1.00  0.00     0.017 C
HETATM   16  C14 UNL     1      31.981  43.031   8.114  1.00  0.00     0.017 C
HETATM   17  C15 UNL     1      30.543  44.748   7.228  1.00  0.00     0.160 C
HETATM   18 CL1  UNL     1      28.860  45.243   7.459  1.00  0.00    -0.116 Cl
HETATM   19  C16 UNL     1      31.400  45.846   6.748  1.00  0.00     0.157 C
HETATM   20  O3  UNL     1      31.509  46.192   5.613  1.00  0.00    -0.295 OA
HETATM   21  C17 UNL     1      32.075  46.406   7.938  1.00  0.00     0.057 C
HETATM   22  C18 UNL     1      31.073  47.511   8.396  1.00  0.00     0.027 C
HETATM   23  C19 UNL     1      36.624  45.355   9.452  1.00  0.00     0.205 C
HETATM   24  C20 UNL     1      36.761  44.624   8.170  1.00  0.00     0.294 C
HETATM   25  O6  UNL     1      37.037  45.161   6.990  1.00  0.00    -0.323 OA
ENDROOT
BRANCH  23  26
HETATM   26  O4  UNL     1      37.810  46.148   9.504  1.00  0.00    -0.388 OA
ATOM     27  H4  UNL     1      38.346  45.904  10.249  1.00  0.00     0.210 HD
ENDBRANCH  23  26
BRANCH  24  28
HETATM   28  O5  UNL     1      36.573  43.344   8.332  1.00  0.00    -0.368 OA
ATOM     29  H5  UNL     1      37.396  42.888   8.462  1.00  0.00     0.212 HD
ENDBRANCH  24  28
TORSDOF 2
ENDMDL