MODEL 3
REMARK VINA RESULT: -8.246803991      2.076      5.700
REMARK  1 active torsions:
REMARK  status: ('A' for Active; 'I' for Inactive)
REMARK    1  A    between atoms: C7_8  and  O2_9
ROOT
HETATM    1  C1  UNL     1      31.613  46.348   4.615  1.00  0.00     0.048 C
HETATM    2  C2  UNL     1      31.467  46.746   6.106  1.00  0.00     0.083 C
HETATM    3  C3  UNL     1      31.248  48.273   6.010  1.00  0.00     0.048 C
HETATM    4  O1  UNL     1      32.617  46.562   6.689  1.00  0.00    -0.339 OA
HETATM    5  C4  UNL     1      32.752  45.876   7.921  1.00  0.00     0.204 C
HETATM    6  C5  UNL     1      31.459  45.946   8.596  1.00  0.00     0.074 C
HETATM    7  C6  UNL     1      30.351  45.274   7.815  1.00  0.00     0.040 C
HETATM    8  C7  UNL     1      30.216  46.088   6.549  1.00  0.00     0.152 C
HETATM    9  O3  UNL     1      33.677  46.672   8.567  1.00  0.00    -0.197 OA
HETATM   10  O4  UNL     1      34.072  46.343   9.724  1.00  0.00    -0.201 OA
HETATM   11  C8  UNL     1      35.455  46.186   9.698  1.00  0.00     0.323 C
HETATM   12  C9  UNL     1      35.949  46.986   8.550  1.00  0.00     0.032 C
HETATM   13  C10 UNL     1      36.550  46.537   7.466  1.00  0.00    -0.025 C
HETATM   14  C11 UNL     1      36.896  45.186   7.087  1.00  0.00     0.031 C
HETATM   15  C12 UNL     1      35.756  44.241   6.762  1.00  0.00    -0.010 C
HETATM   16  C13 UNL     1      35.828  43.057   7.685  1.00  0.00     0.017 C
HETATM   17  C14 UNL     1      34.849  43.023   8.761  1.00  0.00     0.076 C
HETATM   18  C15 UNL     1      35.149  43.892   9.977  1.00  0.00     0.279 C
HETATM   19  O5  UNL     1      33.862  44.133  10.489  1.00  0.00    -0.288 OA
HETATM   20  C16 UNL     1      32.891  43.452   9.725  1.00  0.00     0.286 C
HETATM   21  O6  UNL     1      31.832  43.018  10.243  1.00  0.00    -0.263 OA
HETATM   22  C17 UNL     1      33.442  43.428   8.372  1.00  0.00     0.141 C
HETATM   23 CL1  UNL     1      32.765  41.917   7.625  1.00  0.00    -0.107 Cl
HETATM   24  C18 UNL     1      33.287  44.534   7.469  1.00  0.00     0.085 C
HETATM   25  C19 UNL     1      34.443  44.845   6.538  1.00  0.00     0.017 C
HETATM   26  O7  UNL     1      35.902  44.931   9.608  1.00  0.00    -0.324 OA
ENDROOT
BRANCH   8  27
HETATM   27  O2  UNL     1      29.241  47.070   6.830  1.00  0.00    -0.393 OA
ATOM     28  H2  UNL     1      28.851  47.371   6.018  1.00  0.00     0.210 HD
ENDBRANCH   8  27
TORSDOF 1
ENDMDL