MODEL 3
REMARK VINA RESULT: -8.540721671      2.019      5.630
REMARK  0 active torsions:
REMARK  status: ('A' for Active; 'I' for Inactive)
ROOT
HETATM    1  C1  UNL     1      34.248  48.434   3.236  1.00  0.00     0.017 C
HETATM    2  C2  UNL     1      33.912  48.404   4.523  1.00  0.00    -0.057 C
HETATM    3  C3  UNL     1      33.637  47.079   5.128  1.00  0.00     0.084 C
HETATM    4  C4  UNL     1      33.861  47.137   6.580  1.00  0.00     0.169 A
HETATM    5  O1  UNL     1      35.131  47.299   7.033  1.00  0.00    -0.336 OA
HETATM    6  C5  UNL     1      34.221  48.321   7.233  1.00  0.00     0.302 A
HETATM    7  O2  UNL     1      34.300  49.519   6.611  1.00  0.00    -0.348 OA
HETATM    8  C6  UNL     1      33.807  49.640   5.349  1.00  0.00     0.153 C
HETATM    9  C7  UNL     1      32.440  50.252   5.244  1.00  0.00     0.037 C
HETATM   10  C8  UNL     1      31.579  50.138   6.433  1.00  0.00     0.010 C
HETATM   11  C9  UNL     1      30.473  49.093   6.222  1.00  0.00     0.013 C
HETATM   12  C10 UNL     1      29.218  49.769   5.703  1.00  0.00     0.012 C
HETATM   13  C11 UNL     1      30.125  48.444   7.531  1.00  0.00     0.164 C
HETATM   14  C12 UNL     1      28.748  47.841   7.541  1.00  0.00     0.035 C
HETATM   15  C13 UNL     1      28.605  47.105   8.881  1.00  0.00     0.004 C
HETATM   16  C14 UNL     1      27.884  45.805   8.736  1.00  0.00     0.027 C
HETATM   17  C15 UNL     1      28.389  44.812   9.770  1.00  0.00     0.232 C
HETATM   18  N1  UNL     1      29.776  44.536   9.503  1.00  0.00    -0.073 N
ATOM     19  H11 UNL     1      30.385  45.162  10.028  1.00  0.00     0.277 HD
ATOM     20  H12 UNL     1      30.033  44.818   8.557  1.00  0.00     0.277 HD
HETATM   21  C16 UNL     1      30.112  43.153   9.747  1.00  0.00     0.259 C
HETATM   22  C17 UNL     1      31.437  42.812   9.075  1.00  0.00     0.206 C
HETATM   23  O3  UNL     1      32.464  43.348   9.886  1.00  0.00    -0.318 OA
HETATM   24  C18 UNL     1      33.331  44.342   9.484  1.00  0.00     0.282 C
HETATM   25  O4  UNL     1      33.704  45.192  10.320  1.00  0.00    -0.263 OA
HETATM   26  C19 UNL     1      33.822  44.422   8.093  1.00  0.00     0.282 C
HETATM   27  O5  UNL     1      32.934  45.000   7.218  1.00  0.00    -0.345 OA
HETATM   28  C20 UNL     1      32.816  46.375   7.354  1.00  0.00     0.337 C
HETATM   29  O6  UNL     1      31.577  46.840   6.907  1.00  0.00    -0.204 OA
HETATM   30  O7  UNL     1      31.016  47.459   7.914  1.00  0.00    -0.233 OA
ENDROOT
TORSDOF 0
ENDMDL