MODEL 2
REMARK VINA RESULT: -7.432358018      2.385      3.771
REMARK  1 active torsions:
REMARK  status: ('A' for Active; 'I' for Inactive)
REMARK    1  A    between atoms: C7_8  and  O2_9
ROOT
HETATM    1  C1  UNL     1      35.101  43.541   6.835  1.00  0.00     0.046 C
HETATM    2  C2  UNL     1      35.102  44.976   6.513  1.00  0.00     0.059 C
HETATM    3  C3  UNL     1      35.570  44.936   5.026  1.00  0.00     0.046 C
HETATM    4  O1  UNL     1      34.118  45.797   6.631  1.00  0.00    -0.363 OA
HETATM    5  C4  UNL     1      33.056  45.946   7.370  1.00  0.00     0.125 C
HETATM    6  C5  UNL     1      32.784  47.191   8.168  1.00  0.00     0.048 C
HETATM    7  C6  UNL     1      33.363  48.471   7.758  1.00  0.00     0.053 C
HETATM    8  C7  UNL     1      34.114  48.515   6.485  1.00  0.00     0.166 C
HETATM    9  C8  UNL     1      33.288  47.980   5.421  1.00  0.00     0.298 C
HETATM   10  O3  UNL     1      33.555  48.325   4.217  1.00  0.00    -0.262 OA
HETATM   11  O4  UNL     1      32.206  47.114   5.510  1.00  0.00    -0.284 OA
HETATM   12  C9  UNL     1      31.955  45.975   6.303  1.00  0.00     0.314 C
HETATM   13  O5  UNL     1      30.668  45.880   6.793  1.00  0.00    -0.286 OA
HETATM   14  C10 UNL     1      30.381  45.073   7.860  1.00  0.00     0.262 C
HETATM   15  O6  UNL     1      29.337  44.404   7.925  1.00  0.00    -0.265 OA
HETATM   16  C11 UNL     1      31.356  45.012   8.957  1.00  0.00     0.129 C
HETATM   17  C12 UNL     1      32.800  44.849   8.417  1.00  0.00     0.096 C
HETATM   18  S1  UNL     1      33.820  45.118   9.835  1.00  0.00    -0.161 SA
HETATM   19  C13 UNL     1      35.510  45.336   9.773  1.00  0.00     0.075 C
HETATM   20  C14 UNL     1      36.402  45.071   8.654  1.00  0.00     0.018 C
HETATM   21  C15 UNL     1      36.177  45.731   7.318  1.00  0.00     0.022 C
HETATM   22  C16 UNL     1      36.018  47.155   7.516  1.00  0.00     0.036 C
HETATM   23  C17 UNL     1      35.561  48.168   6.592  1.00  0.00     0.074 C
HETATM   24  C18 UNL     1      36.187  49.479   7.200  1.00  0.00     0.036 C
HETATM   25 CL1  UNL     1      36.342  48.254   5.004  1.00  0.00    -0.116 Cl
ENDROOT
BRANCH   8  26
HETATM   26  O2  UNL     1      34.113  49.903   6.105  1.00  0.00    -0.378 OA
ATOM     27  H2  UNL     1      34.724  50.318   6.701  1.00  0.00     0.211 HD
ENDBRANCH   8  26
TORSDOF 1
ENDMDL