MODEL 3
REMARK VINA RESULT: -6.927852193      2.420      6.178
REMARK  0 active torsions:
REMARK  status: ('A' for Active; 'I' for Inactive)
ROOT
HETATM    1  O1  UNL     1      38.175  45.890   5.357  1.00  0.00    -0.273 OA
HETATM    2  C1  UNL     1      37.326  45.864   6.309  1.00  0.00     0.226 C
HETATM    3  C2  UNL     1      36.822  47.178   6.781  1.00  0.00     0.176 C
HETATM    4  S1  UNL     1      36.666  48.256   5.343  1.00  0.00    -0.159 SA
HETATM    5  C3  UNL     1      34.970  48.448   4.793  1.00  0.00     0.084 C
HETATM    6  C4  UNL     1      34.024  48.799   5.915  1.00  0.00     0.084 C
HETATM    7  S2  UNL     1      32.341  48.474   5.334  1.00  0.00    -0.168 SA
HETATM    8  C5  UNL     1      31.116  49.407   6.282  1.00  0.00     0.084 C
HETATM    9  C6  UNL     1      29.908  48.533   6.501  1.00  0.00     0.084 C
HETATM   10  S3  UNL     1      30.164  47.510   7.961  1.00  0.00    -0.166 SA
HETATM   11  C7  UNL     1      28.782  46.354   8.157  1.00  0.00     0.101 C
HETATM   12  C8  UNL     1      29.324  44.964   8.331  1.00  0.00     0.200 C
HETATM   13  O2  UNL     1      30.630  44.973   8.845  1.00  0.00    -0.275 OA
HETATM   14  S4  UNL     1      30.973  43.384   9.315  1.00  0.00     0.265 S
HETATM   15  O3  UNL     1      29.885  42.882  10.228  1.00  0.00    -0.199 OA
HETATM   16  O4  UNL     1      30.922  42.556   8.049  1.00  0.00    -0.199 OA
HETATM   17  C9  UNL     1      32.552  43.280  10.106  1.00  0.00     0.173 C
HETATM   18  C10 UNL     1      33.479  42.431   9.259  1.00  0.00     0.054 C
HETATM   19  C11 UNL     1      34.941  42.825   9.472  1.00  0.00     0.172 C
HETATM   20  F1  UNL     1      35.584  41.678   9.956  1.00  0.00    -0.249 F
HETATM   21  C12 UNL     1      35.513  43.177   8.139  1.00  0.00     0.057 C
HETATM   22  C13 UNL     1      36.329  44.451   8.153  1.00  0.00     0.125 C
HETATM   23  N1  UNL     1      36.921  44.622   6.848  1.00  0.00    -0.360 N
ATOM     24  H1  UNL     1      37.056  43.789   6.275  1.00  0.00     0.162 HD
ENDROOT
TORSDOF 0
ENDMDL