MODEL 4
REMARK VINA RESULT: -8.620761224      2.192      4.482
REMARK  1 active torsions:
REMARK  status: ('A' for Active; 'I' for Inactive)
REMARK    1  A    between atoms: C2_2  and  O1_3
ROOT
HETATM    1  C1  UNL     1      34.227  41.928   9.175  1.00  0.00     0.046 C
HETATM    2  C2  UNL     1      33.106  42.583   8.358  1.00  0.00     0.061 C
HETATM    3  C3  UNL     1      33.678  43.416   7.296  1.00  0.00     0.042 C
HETATM    4  C4  UNL     1      34.065  44.816   7.670  1.00  0.00     0.041 C
HETATM    5  C5  UNL     1      32.904  45.729   7.527  1.00  0.00    -0.027 C
HETATM    6  C6  UNL     1      31.689  45.451   7.990  1.00  0.00     0.017 C
HETATM    7  C7  UNL     1      30.431  46.193   7.958  1.00  0.00     0.210 C
HETATM    8  O2  UNL     1      30.464  47.540   8.063  1.00  0.00    -0.383 OA
HETATM    9  C8  UNL     1      31.629  48.192   7.822  1.00  0.00     0.214 C
HETATM   10  C9  UNL     1      32.164  47.790   6.496  1.00  0.00     0.159 C
HETATM   11  C10 UNL     1      32.696  49.049   5.801  1.00  0.00     0.058 C
HETATM   12  F1  UNL     1      31.304  47.196   5.642  1.00  0.00    -0.237 F
HETATM   13  C11 UNL     1      33.399  46.916   6.804  1.00  0.00     0.167 C
HETATM   14  C12 UNL     1      34.000  46.632   5.470  1.00  0.00     0.161 C
HETATM   15  C13 UNL     1      35.162  47.495   5.127  1.00  0.00     0.265 C
HETATM   16  O3  UNL     1      35.388  47.644   3.883  1.00  0.00    -0.265 OA
HETATM   17  O4  UNL     1      36.057  48.174   5.909  1.00  0.00    -0.280 OA
HETATM   18  C14 UNL     1      36.349  47.997   7.279  1.00  0.00     0.205 C
HETATM   19  C15 UNL     1      37.573  47.124   7.387  1.00  0.00     0.072 C
HETATM   20  C16 UNL     1      38.677  47.806   8.172  1.00  0.00     0.006 C
HETATM   21  C17 UNL     1      39.079  49.045   7.405  1.00  0.00     0.000 C
HETATM   22  C18 UNL     1      37.864  49.889   7.076  1.00  0.00     0.006 C
HETATM   23  C19 UNL     1      36.657  49.379   7.838  1.00  0.00     0.072 C
HETATM   24  O5  UNL     1      35.313  47.386   7.952  1.00  0.00    -0.199 OA
HETATM   25  O6  UNL     1      34.150  47.774   7.611  1.00  0.00    -0.218 OA
HETATM   26  C20 UNL     1      31.261  44.230   8.713  1.00  0.00     0.161 C
HETATM   27  O7  UNL     1      30.001  44.040   8.821  1.00  0.00    -0.292 OA
HETATM   28  C21 UNL     1      32.172  43.220   9.314  1.00  0.00     0.120 C
ENDROOT
BRANCH   2  29
HETATM   29  O1  UNL     1      32.424  41.500   7.753  1.00  0.00    -0.390 OA
ATOM     30  H1  UNL     1      32.914  40.731   8.019  1.00  0.00     0.210 HD
ENDBRANCH   2  29
TORSDOF 1
ENDMDL