MODEL 4
REMARK VINA RESULT: -7.703408987      4.070      6.105
REMARK  1 active torsions:
REMARK  status: ('A' for Active; 'I' for Inactive)
REMARK    1  A    between atoms: N1_14  and  O5_16
ROOT
HETATM    1  O1  UNL     1      32.453  48.721   8.453  1.00  0.00    -0.261 OA
HETATM    2  C1  UNL     1      31.579  48.712   7.533  1.00  0.00     0.297 C
HETATM    3  O2  UNL     1      30.637  49.692   7.553  1.00  0.00    -0.317 OA
HETATM    4  C2  UNL     1      30.103  50.448   6.519  1.00  0.00     0.205 C
HETATM    5  C3  UNL     1      30.431  51.920   6.611  1.00  0.00     0.194 C
HETATM    6  O3  UNL     1      31.596  52.213   5.932  1.00  0.00    -0.387 OA
HETATM    7  C4  UNL     1      31.365  53.046   4.840  1.00  0.00     0.193 C
HETATM    8  C5  UNL     1      32.642  53.661   4.346  1.00  0.00     0.193 C
HETATM    9  O4  UNL     1      33.601  52.681   4.233  1.00  0.00    -0.389 OA
HETATM   10  C6  UNL     1      34.191  52.615   2.987  1.00  0.00     0.168 C
HETATM   11  C7  UNL     1      35.633  52.170   3.094  1.00  0.00     0.032 C
HETATM   12  C8  UNL     1      35.750  50.768   3.634  1.00  0.00     0.056 C
HETATM   13  C9  UNL     1      35.268  49.745   2.679  1.00  0.00     0.010 C
HETATM   14  N1  UNL     1      35.843  49.660   1.539  1.00  0.00    -0.277 N
ATOM     15  H1  UNL     1      36.614  50.285   1.302  1.00  0.00     0.193 HD
HETATM   16  C10 UNL     1      34.158  48.849   3.026  1.00  0.00     0.056 C
HETATM   17  C11 UNL     1      34.287  48.293   4.435  1.00  0.00     0.032 C
HETATM   18  C12 UNL     1      33.229  48.918   5.354  1.00  0.00     0.170 C
HETATM   19  O6  UNL     1      32.070  48.204   5.338  1.00  0.00    -0.366 OA
HETATM   20  C13 UNL     1      31.689  47.615   6.528  1.00  0.00     0.166 C
HETATM   21  C14 UNL     1      32.709  46.615   6.882  1.00  0.00     0.021 C
HETATM   22  C15 UNL     1      32.792  45.979   8.213  1.00  0.00    -0.002 C
HETATM   23  C16 UNL     1      31.926  45.074   8.743  1.00  0.00     0.010 C
HETATM   24  C17 UNL     1      30.722  44.265   8.627  1.00  0.00     0.193 C
HETATM   25  F1  UNL     1      31.032  43.018   8.064  1.00  0.00    -0.245 F
HETATM   26  C18 UNL     1      29.574  44.847   7.749  1.00  0.00     0.041 C
HETATM   27  C19 UNL     1      30.173  45.942   7.113  1.00  0.00     0.007 C
HETATM   28  C20 UNL     1      30.260  47.048   6.243  1.00  0.00     0.053 C
ENDROOT
BRANCH  14  29
HETATM   29  O5  UNL     1      35.410  48.722   0.644  1.00  0.00    -0.290 OA
ATOM     30  H5  UNL     1      34.571  48.844   0.216  1.00  0.00     0.244 HD
ENDBRANCH  14  29
TORSDOF 1
ENDMDL