MODEL 4
REMARK VINA RESULT: -7.855738218      2.892      4.358
REMARK  1 active torsions:
REMARK  status: ('A' for Active; 'I' for Inactive)
REMARK    1  A    between atoms: C14_17  and  O4_18
ROOT
HETATM    1  C1  UNL     1      32.331  50.225   4.754  1.00  0.00     0.012 C
HETATM    2  C2  UNL     1      33.383  49.109   4.821  1.00  0.00     0.015 C
HETATM    3  C3  UNL     1      32.673  47.813   4.818  1.00  0.00     0.059 C
HETATM    4  C4  UNL     1      33.140  46.858   5.926  1.00  0.00     0.138 C
HETATM    5  O1  UNL     1      32.245  45.806   5.864  1.00  0.00    -0.336 OA
HETATM    6  C5  UNL     1      32.335  44.922   6.902  1.00  0.00     0.276 C
HETATM    7  O2  UNL     1      33.607  44.391   7.080  1.00  0.00    -0.325 OA
HETATM    8  C6  UNL     1      33.599  43.593   8.198  1.00  0.00     0.164 C
HETATM    9  C7  UNL     1      34.932  42.841   8.300  1.00  0.00     0.079 C
HETATM   10  C8  UNL     1      32.516  42.568   8.228  1.00  0.00     0.071 C
HETATM   11  C9  UNL     1      31.388  43.294   8.928  1.00  0.00     0.038 C
HETATM   12  C10 UNL     1      32.015  44.610   9.292  1.00  0.00     0.138 C
HETATM   13  O3  UNL     1      33.382  44.319   9.376  1.00  0.00    -0.349 OA
HETATM   14  C11 UNL     1      31.868  45.627   8.152  1.00  0.00     0.035 C
HETATM   15  C12 UNL     1      30.416  45.979   8.069  1.00  0.00     0.023 C
HETATM   16  C13 UNL     1      32.713  46.827   8.416  1.00  0.00     0.052 C
HETATM   17  C14 UNL     1      33.269  47.513   7.240  1.00  0.00     0.164 C
HETATM   18  S1  UNL     1      34.749  46.191   5.348  1.00  0.00    -0.128 SA
HETATM   19  C15 UNL     1      35.678  47.465   4.456  1.00  0.00     0.087 C
HETATM   20  C16 UNL     1      34.952  47.965   3.241  1.00  0.00     0.059 C
HETATM   21  C17 UNL     1      34.177  49.224   3.526  1.00  0.00     0.137 C
HETATM   22  O5  UNL     1      35.198  50.162   3.672  1.00  0.00    -0.341 OA
HETATM   23  C18 UNL     1      36.055  49.964   2.619  1.00  0.00     0.253 A
HETATM   24  F1  UNL     1      37.330  50.419   2.762  1.00  0.00    -0.206 F
HETATM   25  C19 UNL     1      35.440  50.226   1.257  1.00  0.00     0.245 A
HETATM   26  O6  UNL     1      35.524  48.836   1.032  1.00  0.00    -0.374 OA
HETATM   27  C20 UNL     1      36.020  48.487   2.273  1.00  0.00     0.198 A
ENDROOT
BRANCH  17  28
HETATM   28  O4  UNL     1      34.632  47.796   7.507  1.00  0.00    -0.392 OA
ATOM     29  H4  UNL     1      34.753  47.958   8.435  1.00  0.00     0.210 HD
ENDBRANCH  17  28
TORSDOF 1
ENDMDL