MODEL 1
REMARK VINA RESULT: -6.781551780      0.000      0.000
REMARK  0 active torsions:
REMARK  status: ('A' for Active; 'I' for Inactive)
ROOT
HETATM    1 CL1  UNL     1      33.305  42.579  10.158  1.00  0.00    -0.122 Cl
HETATM    2  C1  UNL     1      33.154  42.218   8.410  1.00  0.00     0.117 C
HETATM    3  C2  UNL     1      34.247  42.859   7.621  1.00  0.00     0.259 C
HETATM    4  N1  UNL     1      34.803  44.040   8.250  1.00  0.00    -0.015 N
ATOM      5  H11 UNL     1      35.608  43.808   8.831  1.00  0.00     0.283 HD
ATOM      6  H12 UNL     1      34.183  44.401   8.975  1.00  0.00     0.283 HD
HETATM    7  C3  UNL     1      35.134  45.072   7.265  1.00  0.00     0.346 C
HETATM    8  C4  UNL     1      33.935  45.986   7.186  1.00  0.00     0.175 C
HETATM    9  S1  UNL     1      34.158  47.345   6.033  1.00  0.00    -0.161 SA
HETATM   10  C5  UNL     1      33.457  48.836   6.755  1.00  0.00     0.084 C
HETATM   11  C6  UNL     1      32.399  49.466   5.890  1.00  0.00     0.084 C
HETATM   12  S2  UNL     1      30.875  48.525   5.819  1.00  0.00    -0.168 SA
HETATM   13  C7  UNL     1      29.499  49.344   6.655  1.00  0.00     0.084 C
HETATM   14  C8  UNL     1      28.419  48.322   6.943  1.00  0.00     0.084 C
HETATM   15  S3  UNL     1      28.783  47.502   8.513  1.00  0.00    -0.168 SA
HETATM   16  C9  UNL     1      27.770  46.048   8.783  1.00  0.00     0.074 C
HETATM   17  C10 UNL     1      28.577  44.988   9.528  1.00  0.00     0.020 C
HETATM   18  C11 UNL     1      29.706  44.594   8.596  1.00  0.00     0.075 C
HETATM   19  S4  UNL     1      30.874  43.462   9.340  1.00  0.00    -0.168 SA
HETATM   20  C12 UNL     1      31.774  42.615   7.990  1.00  0.00     0.095 C
HETATM   21  O1  UNL     1      35.484  44.508   6.065  1.00  0.00    -0.330 OA
HETATM   22  C13 UNL     1      36.842  44.656   5.885  1.00  0.00     0.199 C
HETATM   23  C14 UNL     1      37.108  45.942   6.680  1.00  0.00     0.199 C
HETATM   24  O2  UNL     1      36.244  45.761   7.755  1.00  0.00    -0.330 OA
ENDROOT
TORSDOF 0
ENDMDL