MODEL 1
REMARK VINA RESULT: -8.180667156      0.000      0.000
REMARK  1 active torsions:
REMARK  status: ('A' for Active; 'I' for Inactive)
REMARK    1  A    between atoms: C15_20  and  O5_21
ROOT
HETATM    1  C1  UNL     1     -31.470 -16.228  61.686  1.00  0.00     0.020 C
HETATM    2  C2  UNL     1     -31.493 -17.006  60.644  1.00  0.00    -0.016 C
HETATM    3  C3  UNL     1     -32.273 -17.066  59.386  1.00  0.00     0.104 C
HETATM    4  C4  UNL     1     -32.447 -18.540  59.223  1.00  0.00     0.277 C
HETATM    5  O1  UNL     1     -33.652 -19.060  59.578  1.00  0.00    -0.330 OA
HETATM    6  C5  UNL     1     -34.397 -18.293  60.443  1.00  0.00     0.274 C
HETATM    7  O2  UNL     1     -35.703 -18.767  60.539  1.00  0.00    -0.324 OA
HETATM    8  C6  UNL     1     -36.533 -17.686  60.803  1.00  0.00     0.183 C
HETATM    9  C7  UNL     1     -36.996 -17.750  62.218  1.00  0.00     0.081 C
HETATM   10  O3  UNL     1     -37.631 -17.619  59.955  1.00  0.00    -0.309 OA
HETATM   11  C8  UNL     1     -37.784 -16.328  59.495  1.00  0.00     0.127 A
HETATM   12  C9  UNL     1     -38.673 -15.519  58.828  1.00  0.00     0.092 A
HETATM   13 CL1  UNL     1     -40.248 -15.940  58.202  1.00  0.00    -0.079 Cl
HETATM   14  C10 UNL     1     -38.070 -14.289  58.747  1.00  0.00     0.169 A
HETATM   15  O4  UNL     1     -36.922 -14.359  59.316  1.00  0.00    -0.321 OA
HETATM   16  C11 UNL     1     -36.693 -15.546  59.781  1.00  0.00     0.102 A
HETATM   17  C12 UNL     1     -35.742 -16.416  60.497  1.00  0.00     0.075 C
HETATM   18  C13 UNL     1     -35.339 -15.816  61.783  1.00  0.00     0.029 C
HETATM   19  C14 UNL     1     -34.681 -17.000  59.656  1.00  0.00     0.091 C
HETATM   20  C15 UNL     1     -33.493 -16.248  59.292  1.00  0.00     0.141 C
HETATM   21  O6  UNL     1     -31.459 -19.169  59.965  1.00  0.00    -0.320 OA
HETATM   22  C16 UNL     1     -30.598 -18.217  60.430  1.00  0.00     0.195 C
HETATM   23  C17 UNL     1     -29.508 -17.861  59.473  1.00  0.00     0.111 C
HETATM   24  C18 UNL     1     -28.678 -18.431  60.597  1.00  0.00     0.063 C
HETATM   25  C19 UNL     1     -28.098 -19.801  60.262  1.00  0.00     0.046 C
HETATM   26  C20 UNL     1     -27.629 -17.424  61.026  1.00  0.00     0.046 C
HETATM   27  O7  UNL     1     -29.766 -18.515  61.444  1.00  0.00    -0.340 OA
ENDROOT
BRANCH  20  28
HETATM   28  O5  UNL     1     -33.305 -15.024  59.877  1.00  0.00    -0.394 OA
ATOM     29  H5  UNL     1     -33.993 -14.841  60.507  1.00  0.00     0.210 HD
ENDBRANCH  20  28
TORSDOF 1
ENDMDL