MODEL 5
REMARK VINA RESULT: -6.716784472      2.419      3.904
REMARK  1 active torsions:
REMARK  status: ('A' for Active; 'I' for Inactive)
REMARK    1  A    between atoms: C11_14  and  O4_15
ROOT
HETATM    1  C1  UNL     1     -32.599 -14.816  60.047  1.00  0.00     0.024 C
HETATM    2  C2  UNL     1     -33.175 -16.012  60.784  1.00  0.00     0.121 C
HETATM    3  C3  UNL     1     -33.236 -15.675  62.230  1.00  0.00     0.265 C
HETATM    4  O1  UNL     1     -32.416 -14.918  62.832  1.00  0.00    -0.265 OA
HETATM    5  O2  UNL     1     -34.345 -16.356  62.708  1.00  0.00    -0.318 OA
HETATM    6  C4  UNL     1     -35.328 -16.257  61.695  1.00  0.00     0.221 C
HETATM    7  C5  UNL     1     -34.610 -16.270  60.370  1.00  0.00     0.133 C
HETATM    8  O3  UNL     1     -35.026 -15.189  59.641  1.00  0.00    -0.333 OA
HETATM    9  C6  UNL     1     -35.955 -15.422  58.680  1.00  0.00     0.224 C
HETATM   10  C7  UNL     1     -35.792 -14.339  57.605  1.00  0.00     0.074 C
HETATM   11  C8  UNL     1     -36.867 -14.482  56.545  1.00  0.00     0.006 C
HETATM   12  C9  UNL     1     -38.201 -14.304  57.247  1.00  0.00     0.003 C
HETATM   13  C10 UNL     1     -38.393 -15.510  58.140  1.00  0.00     0.037 C
HETATM   14  C11 UNL     1     -37.357 -15.372  59.262  1.00  0.00     0.183 C
HETATM   15  O5  UNL     1     -35.834 -16.636  58.022  1.00  0.00    -0.197 OA
HETATM   16  O6  UNL     1     -35.993 -17.571  58.964  1.00  0.00    -0.223 OA
HETATM   17  C12 UNL     1     -34.760 -17.585  59.652  1.00  0.00     0.130 C
HETATM   18  C13 UNL     1     -33.700 -17.790  58.604  1.00  0.00     0.045 C
HETATM   19  C14 UNL     1     -34.135 -19.017  57.789  1.00  0.00     0.019 C
HETATM   20  C15 UNL     1     -33.907 -20.213  58.697  1.00  0.00     0.058 C
HETATM   21 BR1  UNL     1     -35.444 -21.407  58.575  1.00  0.00    -0.091 Br
HETATM   22  C16 UNL     1     -33.756 -19.828  60.138  1.00  0.00     0.019 C
HETATM   23  C17 UNL     1     -34.775 -18.766  60.557  1.00  0.00     0.045 C
ENDROOT
BRANCH  14  24
HETATM   24  O4  UNL     1     -37.630 -14.167  59.887  1.00  0.00    -0.390 OA
ATOM     25  H4  UNL     1     -37.841 -14.273  60.807  1.00  0.00     0.210 HD
ENDBRANCH  14  24
TORSDOF 1
ENDMDL