MODEL 5
REMARK VINA RESULT: -7.853644541      3.439      7.049
REMARK  2 active torsions:
REMARK  status: ('A' for Active; 'I' for Inactive)
REMARK    1  A    between atoms: C14_21  and  C15_22
REMARK    2  A    between atoms: C15_22  and  O7_23
ROOT
HETATM    1  C1  UNL     1     -30.284 -21.415  59.536  1.00  0.00     0.015 C
HETATM    2  C2  UNL     1     -29.756 -20.273  60.310  1.00  0.00     0.043 C
HETATM    3  C3  UNL     1     -30.495 -19.022  59.800  1.00  0.00     0.139 C
HETATM    4  O1  UNL     1     -31.817 -19.284  59.563  1.00  0.00    -0.355 OA
HETATM    5  C4  UNL     1     -32.621 -18.146  59.608  1.00  0.00     0.262 C
HETATM    6  C5  UNL     1     -33.475 -18.224  60.815  1.00  0.00     0.088 C
HETATM    7  C6  UNL     1     -33.990 -16.947  61.347  1.00  0.00     0.067 C
HETATM    8  C7  UNL     1     -35.269 -16.606  60.564  1.00  0.00     0.035 C
HETATM    9 CL1  UNL     1     -34.554 -17.256  63.031  1.00  0.00    -0.117 Cl
HETATM   10  C8  UNL     1     -33.127 -15.784  61.360  1.00  0.00     0.189 C
HETATM   11  O2  UNL     1     -33.116 -14.974  60.202  1.00  0.00    -0.288 OA
HETATM   12  C9  UNL     1     -31.983 -14.153  60.377  1.00  0.00     0.407 C
HETATM   13  O3  UNL     1     -31.659 -13.138  59.692  1.00  0.00    -0.229 OA
HETATM   14  O4  UNL     1     -31.225 -14.628  61.459  1.00  0.00    -0.287 OA
HETATM   15  C10 UNL     1     -31.650 -16.002  61.577  1.00  0.00     0.195 C
HETATM   16  C11 UNL     1     -30.980 -16.734  60.448  1.00  0.00     0.165 C
HETATM   17  O5  UNL     1     -31.920 -16.968  59.467  1.00  0.00    -0.353 OA
HETATM   18  C12 UNL     1     -30.289 -17.996  60.909  1.00  0.00     0.071 C
HETATM   19  C13 UNL     1     -28.788 -17.831  61.046  1.00  0.00     0.178 C
HETATM   20  O6  UNL     1     -28.074 -18.633  60.174  1.00  0.00    -0.382 OA
HETATM   21  C14 UNL     1     -28.340 -20.010  60.364  1.00  0.00     0.161 C
ENDROOT
BRANCH  21  22
HETATM   22  C15 UNL     1     -27.394 -20.715  59.462  1.00  0.00     0.084 C
HETATM   23  C16 UNL     1     -26.760 -21.945  60.002  1.00  0.00     0.040 C
HETATM   24  C17 UNL     1     -25.410 -22.107  59.277  1.00  0.00     0.003 C
HETATM   25  C18 UNL     1     -25.709 -22.138  57.816  1.00  0.00     0.000 C
HETATM   26  C19 UNL     1     -27.179 -22.155  57.490  1.00  0.00     0.003 C
HETATM   27  C20 UNL     1     -27.924 -20.977  58.067  1.00  0.00     0.040 C
BRANCH  22  28
HETATM   28  O7  UNL     1     -26.324 -19.798  59.252  1.00  0.00    -0.387 OA
ATOM     29  H7  UNL     1     -25.756 -20.219  58.618  1.00  0.00     0.210 HD
ENDBRANCH  22  28
ENDBRANCH  21  22
TORSDOF 2
ENDMDL