MODEL 4
REMARK VINA RESULT: -7.020780102      2.443      4.850
REMARK  1 active torsions:
REMARK  status: ('A' for Active; 'I' for Inactive)
REMARK    1  A    between atoms: C3_3  and  O1_4
ROOT
HETATM    1  C1  UNL     1     -32.795 -13.976  60.130  1.00  0.00     0.014 C
HETATM    2  C2  UNL     1     -34.135 -14.616  60.238  1.00  0.00     0.026 C
HETATM    3  C3  UNL     1     -34.810 -14.373  61.561  1.00  0.00     0.126 C
HETATM    4  C4  UNL     1     -35.447 -15.636  61.995  1.00  0.00     0.074 C
HETATM    5  C5  UNL     1     -34.753 -16.760  61.189  1.00  0.00     0.107 C
HETATM    6  C6  UNL     1     -33.669 -17.216  62.153  1.00  0.00     0.050 C
HETATM    7  O2  UNL     1     -35.734 -17.690  61.017  1.00  0.00    -0.226 OA
HETATM    8  O3  UNL     1     -36.217 -17.911  59.791  1.00  0.00    -0.194 OA
HETATM    9  C7  UNL     1     -35.092 -17.910  59.006  1.00  0.00     0.260 C
HETATM   10  O4  UNL     1     -34.405 -18.821  59.615  1.00  0.00    -0.313 OA
HETATM   11  C8  UNL     1     -33.285 -18.984  58.775  1.00  0.00     0.308 C
HETATM   12  O5  UNL     1     -34.000 -19.100  57.597  1.00  0.00    -0.318 OA
HETATM   13  C9  UNL     1     -35.050 -18.320  57.584  1.00  0.00     0.365 C
HETATM   14  O6  UNL     1     -36.294 -18.299  57.260  1.00  0.00    -0.201 OA
HETATM   15  O7  UNL     1     -36.900 -17.244  57.632  1.00  0.00    -0.227 OA
HETATM   16  C10 UNL     1     -36.213 -16.123  58.161  1.00  0.00     0.099 C
HETATM   17  C11 UNL     1     -36.116 -15.189  56.930  1.00  0.00     0.049 C
HETATM   18  C12 UNL     1     -37.303 -15.435  58.952  1.00  0.00     0.049 C
HETATM   19  C13 UNL     1     -34.944 -16.431  58.797  1.00  0.00     0.109 C
HETATM   20  C14 UNL     1     -34.198 -16.085  59.954  1.00  0.00     0.030 C
HETATM   21  C15 UNL     1     -32.785 -16.616  59.624  1.00  0.00     0.007 C
HETATM   22  C16 UNL     1     -32.483 -17.829  59.136  1.00  0.00     0.040 C
HETATM   23 BR1  UNL     1     -30.602 -18.072  58.874  1.00  0.00    -0.051 Br
ENDROOT
BRANCH   3  24
HETATM   24  O1  UNL     1     -35.739 -13.358  61.535  1.00  0.00    -0.395 OA
ATOM     25  H1  UNL     1     -36.216 -13.251  62.350  1.00  0.00     0.210 HD
ENDBRANCH   3  24
TORSDOF 1
ENDMDL