MODEL 4
REMARK VINA RESULT: -7.297728602      3.307      6.656
REMARK  1 active torsions:
REMARK  status: ('A' for Active; 'I' for Inactive)
REMARK       I    between atoms: C2_2  and  N1_4
REMARK    1  A    between atoms: N2_21  and  O5_23
ROOT
HETATM    1  C1  UNL     1     -37.884 -17.556  58.879  1.00  0.00     0.117 C
HETATM    2  C2  UNL     1     -37.258 -17.620  60.208  1.00  0.00     0.215 C
HETATM    3  O1  UNL     1     -37.736 -16.919  61.136  1.00  0.00    -0.274 OA
HETATM    4  N1  UNL     1     -36.134 -18.436  60.508  1.00  0.00    -0.348 N
HETATM    5  C3  UNL     1     -35.544 -18.478  61.809  1.00  0.00     0.152 C
HETATM    6  C4  UNL     1     -35.352 -17.132  62.451  1.00  0.00     0.187 C
HETATM    7  O2  UNL     1     -34.952 -16.233  61.489  1.00  0.00    -0.387 OA
HETATM    8  C5  UNL     1     -34.726 -14.957  61.997  1.00  0.00     0.194 C
HETATM    9  C6  UNL     1     -33.240 -14.835  62.363  1.00  0.00     0.205 C
HETATM   10  O3  UNL     1     -32.502 -15.501  61.354  1.00  0.00    -0.319 OA
HETATM   11  C7  UNL     1     -31.304 -15.048  60.843  1.00  0.00     0.258 C
HETATM   12  O4  UNL     1     -30.996 -14.972  59.633  1.00  0.00    -0.265 OA
HETATM   13  C8  UNL     1     -30.273 -14.610  61.811  1.00  0.00     0.111 C
HETATM   14  C9  UNL     1     -30.030 -15.778  62.762  1.00  0.00     0.010 C
HETATM   15  C10 UNL     1     -28.602 -16.251  62.720  1.00  0.00     0.000 C
HETATM   16  C11 UNL     1     -28.316 -17.101  61.485  1.00  0.00     0.000 C
HETATM   17  C12 UNL     1     -29.016 -18.417  61.561  1.00  0.00     0.000 C
HETATM   18  C13 UNL     1     -29.929 -18.676  60.379  1.00  0.00     0.006 C
HETATM   19  C14 UNL     1     -30.123 -20.171  60.290  1.00  0.00     0.060 C
HETATM   20  C15 UNL     1     -30.449 -20.633  58.933  1.00  0.00     0.042 C
HETATM   21  N2  UNL     1     -29.468 -20.926  58.150  1.00  0.00    -0.273 N
ATOM     22  H2  UNL     1     -29.681 -21.248  57.206  1.00  0.00     0.194 HD
HETATM   23  C16 UNL     1     -31.800 -20.791  58.396  1.00  0.00     0.017 C
HETATM   24  C17 UNL     1     -32.051 -21.729  57.499  1.00  0.00     0.199 C
HETATM   25  F1  UNL     1     -33.310 -21.850  57.021  1.00  0.00    -0.219 F
HETATM   26  C18 UNL     1     -32.928 -19.925  58.822  1.00  0.00     0.210 C
HETATM   27  O6  UNL     1     -33.547 -20.390  59.968  1.00  0.00    -0.385 OA
HETATM   28  C19 UNL     1     -34.907 -20.480  59.892  1.00  0.00     0.188 C
HETATM   29  C20 UNL     1     -35.601 -19.238  59.417  1.00  0.00     0.152 C
ENDROOT
BRANCH  21  30
HETATM   30  O5  UNL     1     -28.156 -20.825  58.522  1.00  0.00    -0.290 OA
ATOM     31  H5  UNL     1     -27.525 -21.525  58.401  1.00  0.00     0.244 HD
ENDBRANCH  21  30
TORSDOF 1
ENDMDL