MODEL 3
REMARK VINA RESULT: -7.430073058      2.943      4.108
REMARK  1 active torsions:
REMARK  status: ('A' for Active; 'I' for Inactive)
REMARK    1  A    between atoms: C3_6  and  O4_7
ROOT
HETATM    1  O1  UNL     1     -38.689 -18.474  58.121  1.00  0.00    -0.263 OA
HETATM    2  C1  UNL     1     -38.003 -17.650  58.778  1.00  0.00     0.280 C
HETATM    3  O2  UNL     1     -38.354 -16.389  59.243  1.00  0.00    -0.288 OA
HETATM    4  C2  UNL     1     -37.175 -15.755  59.684  1.00  0.00     0.280 C
HETATM    5  O3  UNL     1     -36.338 -15.410  58.610  1.00  0.00    -0.330 OA
HETATM    6  C3  UNL     1     -35.138 -15.175  59.303  1.00  0.00     0.277 C
HETATM    7  C4  UNL     1     -34.981 -16.352  60.262  1.00  0.00     0.091 C
HETATM    8  C5  UNL     1     -33.916 -17.290  59.836  1.00  0.00     0.024 C
HETATM    9  C6  UNL     1     -33.011 -17.766  60.935  1.00  0.00     0.007 C
HETATM   10  C7  UNL     1     -31.708 -18.195  60.299  1.00  0.00    -0.002 C
HETATM   11  C8  UNL     1     -31.489 -19.702  60.494  1.00  0.00     0.005 C
HETATM   12  C9  UNL     1     -30.080 -20.009  60.117  1.00  0.00     0.000 C
HETATM   13  C10 UNL     1     -29.514 -18.949  59.168  1.00  0.00     0.001 C
HETATM   14  C11 UNL     1     -29.373 -17.620  59.871  1.00  0.00     0.013 C
HETATM   15  C12 UNL     1     -30.512 -17.500  60.883  1.00  0.00     0.072 C
HETATM   16  C13 UNL     1     -30.749 -16.122  61.297  1.00  0.00     0.201 C
HETATM   17  O5  UNL     1     -30.192 -15.706  62.299  1.00  0.00    -0.284 OA
HETATM   18  S1  UNL     1     -31.812 -14.965  60.435  1.00  0.00    -0.011 SA
HETATM   19  S2  UNL     1     -33.454 -14.421  61.681  1.00  0.00    -0.011 SA
HETATM   20  C14 UNL     1     -34.642 -15.761  61.590  1.00  0.00     0.211 C
HETATM   21  O6  UNL     1     -35.141 -16.152  62.614  1.00  0.00    -0.284 OA
HETATM   22  C15 UNL     1     -36.370 -16.933  60.251  1.00  0.00     0.091 C
HETATM   23  C16 UNL     1     -36.588 -17.954  59.179  1.00  0.00     0.192 C
HETATM   24 CL1  UNL     1     -36.551 -19.614  59.754  1.00  0.00    -0.114 Cl
ENDROOT
BRANCH   6  25
HETATM   25  O4  UNL     1     -35.391 -13.982  60.022  1.00  0.00    -0.370 OA
ATOM     26  H4  UNL     1     -36.069 -13.551  59.515  1.00  0.00     0.212 HD
ENDBRANCH   6  25
TORSDOF 1
ENDMDL