MODEL 4
REMARK VINA RESULT: -7.500504438      3.418      5.176
REMARK  1 active torsions:
REMARK  status: ('A' for Active; 'I' for Inactive)
REMARK    1  A    between atoms: N1_27  and  O6_28
ROOT
HETATM    1  C1  UNL     1     -31.020 -21.785  59.254  1.00  0.00     0.025 C
HETATM    2  C2  UNL     1     -32.241 -21.376  59.001  1.00  0.00     0.011 C
HETATM    3  C3  UNL     1     -32.774 -20.359  59.896  1.00  0.00     0.082 C
HETATM    4  C4  UNL     1     -33.798 -19.451  59.312  1.00  0.00     0.070 C
HETATM    5  C5  UNL     1     -32.997 -18.336  58.596  1.00  0.00     0.041 C
HETATM    6  C6  UNL     1     -33.757 -17.022  58.656  1.00  0.00     0.045 C
HETATM    7  C7  UNL     1     -33.589 -16.441  60.023  1.00  0.00     0.103 C
HETATM    8  C8  UNL     1     -33.390 -17.608  60.981  1.00  0.00     0.045 C
HETATM    9  C9  UNL     1     -34.362 -18.682  60.531  1.00  0.00     0.041 C
HETATM   10  O1  UNL     1     -34.744 -15.782  60.482  1.00  0.00    -0.228 OA
HETATM   11  O2  UNL     1     -34.533 -15.422  61.731  1.00  0.00    -0.231 OA
HETATM   12  C10 UNL     1     -33.563 -14.438  61.859  1.00  0.00     0.183 C
HETATM   13  C11 UNL     1     -32.270 -15.047  62.353  1.00  0.00     0.004 C
HETATM   14  C12 UNL     1     -31.647 -15.619  61.332  1.00  0.00    -0.020 C
HETATM   15  C13 UNL     1     -32.456 -15.441  60.102  1.00  0.00     0.048 C
HETATM   16  C14 UNL     1     -33.127 -14.093  60.425  1.00  0.00     0.051 C
HETATM   17  O3  UNL     1     -34.751 -19.816  58.557  1.00  0.00    -0.324 OA
HETATM   18  C15 UNL     1     -35.053 -20.721  57.713  1.00  0.00     0.294 C
HETATM   19  O4  UNL     1     -34.257 -21.907  57.587  1.00  0.00    -0.257 OA
HETATM   20  C16 UNL     1     -32.893 -21.998  57.861  1.00  0.00     0.292 C
HETATM   21  O5  UNL     1     -32.183 -22.668  57.061  1.00  0.00    -0.259 OA
HETATM   22  C17 UNL     1     -36.452 -21.297  58.039  1.00  0.00     0.170 C
HETATM   23 CL1  UNL     1     -36.496 -21.961  59.676  1.00  0.00    -0.117 Cl
HETATM   24  C18 UNL     1     -36.682 -22.452  57.074  1.00  0.00     0.029 C
HETATM   25  C19 UNL     1     -36.627 -21.993  55.634  1.00  0.00     0.024 C
HETATM   26  C20 UNL     1     -35.348 -21.188  55.365  1.00  0.00     0.155 C
HETATM   27  N1  UNL     1     -35.205 -20.230  56.374  1.00  0.00    -0.235 N
ENDROOT
BRANCH  27  28
HETATM   28  O6  UNL     1     -35.561 -19.010  56.189  1.00  0.00    -0.287 OA
ATOM     29  H6  UNL     1     -35.447 -18.618  55.331  1.00  0.00     0.244 HD
ENDBRANCH  27  28
TORSDOF 1
ENDMDL