MODEL 5
REMARK VINA RESULT: -7.336060741      3.378      5.952
REMARK  1 active torsions:
REMARK  status: ('A' for Active; 'I' for Inactive)
REMARK    1  A    between atoms: C19_24  and  O5_25
ROOT
HETATM    1  C1  UNL     1     -32.125 -13.698  60.046  1.00  0.00     0.033 C
HETATM    2  C2  UNL     1     -32.871 -14.584  61.063  1.00  0.00     0.038 C
HETATM    3 CL1  UNL     1     -31.722 -14.970  62.311  1.00  0.00    -0.119 Cl
HETATM    4  C3  UNL     1     -34.085 -13.819  61.550  1.00  0.00     0.026 C
HETATM    5  C4  UNL     1     -35.380 -14.328  61.009  1.00  0.00     0.003 C
HETATM    6  C5  UNL     1     -35.632 -15.787  61.155  1.00  0.00     0.010 C
HETATM    7  C6  UNL     1     -34.389 -16.607  60.992  1.00  0.00    -0.030 C
HETATM    8  C7  UNL     1     -33.915 -16.893  62.433  1.00  0.00     0.016 C
HETATM    9  C8  UNL     1     -33.383 -15.747  60.264  1.00  0.00     0.017 C
HETATM   10  C9  UNL     1     -32.331 -16.626  59.697  1.00  0.00     0.010 C
HETATM   11  C10 UNL     1     -32.788 -17.580  58.659  1.00  0.00     0.038 C
HETATM   12  C11 UNL     1     -34.274 -17.983  58.831  1.00  0.00     0.065 C
HETATM   13  C12 UNL     1     -35.005 -17.132  57.882  1.00  0.00     0.046 C
HETATM   14  O1  UNL     1     -34.425 -19.295  58.444  1.00  0.00    -0.369 OA
HETATM   15  C13 UNL     1     -35.382 -20.076  58.928  1.00  0.00     0.188 C
HETATM   16  C14 UNL     1     -35.254 -20.171  60.462  1.00  0.00     0.070 C
HETATM   17  C15 UNL     1     -35.715 -18.725  60.705  1.00  0.00     0.135 C
HETATM   18  O2  UNL     1     -36.688 -18.453  59.730  1.00  0.00    -0.346 OA
HETATM   19  C16 UNL     1     -36.803 -19.572  58.932  1.00  0.00     0.204 C
HETATM   20  C17 UNL     1     -37.680 -20.548  59.727  1.00  0.00     0.182 C
HETATM   21  C18 UNL     1     -39.090 -20.537  59.207  1.00  0.00     0.268 C
HETATM   22  O3  UNL     1     -40.094 -20.371  59.919  1.00  0.00    -0.265 OA
HETATM   23  O4  UNL     1     -39.194 -20.736  57.820  1.00  0.00    -0.265 OA
HETATM   24  C19 UNL     1     -37.968 -20.450  57.126  1.00  0.00     0.421 C
HETATM   25  O6  UNL     1     -37.394 -19.385  57.740  1.00  0.00    -0.298 OA
HETATM   26  C20 UNL     1     -34.502 -17.897  60.294  1.00  0.00     0.057 C
ENDROOT
BRANCH  24  27
HETATM   27  O5  UNL     1     -37.225 -21.594  57.034  1.00  0.00    -0.349 OA
ATOM     28  H5  UNL     1     -36.565 -21.485  56.360  1.00  0.00     0.215 HD
ENDBRANCH  24  27
TORSDOF 1
ENDMDL