MODEL 2
REMARK VINA RESULT: -7.474658885      1.753      5.036
REMARK  0 active torsions:
REMARK  status: ('A' for Active; 'I' for Inactive)
ROOT
HETATM    1  C1  UNL     1     -31.786 -18.408  59.003  1.00  0.00     0.015 C
HETATM    2  C2  UNL     1     -32.454 -17.693  60.159  1.00  0.00     0.047 C
HETATM    3  C3  UNL     1     -31.749 -16.367  60.212  1.00  0.00     0.182 C
HETATM    4  O1  UNL     1     -30.830 -16.201  61.293  1.00  0.00    -0.309 OA
HETATM    5  C4  UNL     1     -31.615 -15.331  61.992  1.00  0.00     0.296 C
HETATM    6  O2  UNL     1     -31.623 -14.811  63.118  1.00  0.00    -0.262 OA
HETATM    7  C5  UNL     1     -32.509 -15.254  60.784  1.00  0.00     0.173 C
HETATM    8  C6  UNL     1     -32.196 -13.900  60.115  1.00  0.00     0.060 C
HETATM    9  O3  UNL     1     -33.808 -15.371  60.939  1.00  0.00    -0.351 OA
HETATM   10  C7  UNL     1     -34.447 -16.590  61.065  1.00  0.00     0.104 C
HETATM   11  C8  UNL     1     -34.034 -16.991  62.509  1.00  0.00     0.053 C
HETATM   12  C9  UNL     1     -35.875 -16.275  61.082  1.00  0.00     0.011 C
HETATM   13  C10 UNL     1     -36.904 -16.993  60.325  1.00  0.00     0.007 C
HETATM   14  C11 UNL     1     -37.021 -16.942  58.874  1.00  0.00     0.179 C
HETATM   15  O4  UNL     1     -36.924 -18.244  58.313  1.00  0.00    -0.365 OA
HETATM   16  C12 UNL     1     -35.790 -18.814  58.863  1.00  0.00     0.221 A
HETATM   17  C13 UNL     1     -35.017 -19.747  57.912  1.00  0.00     0.089 A
HETATM   18  C14 UNL     1     -34.658 -21.097  58.502  1.00  0.00     0.048 C
HETATM   19  C15 UNL     1     -35.673 -20.011  56.585  1.00  0.00     0.048 C
HETATM   20  O5  UNL     1     -34.084 -18.747  57.982  1.00  0.00    -0.338 OA
HETATM   21  C16 UNL     1     -34.659 -17.841  58.905  1.00  0.00     0.221 A
HETATM   22  O6  UNL     1     -34.817 -16.639  58.306  1.00  0.00    -0.338 OA
HETATM   23  C17 UNL     1     -36.039 -16.112  58.095  1.00  0.00     0.087 C
HETATM   24  C18 UNL     1     -36.422 -16.278  56.614  1.00  0.00     0.049 C
HETATM   25  C19 UNL     1     -36.202 -14.629  58.321  1.00  0.00     0.049 C
HETATM   26  C20 UNL     1     -33.935 -17.693  60.196  1.00  0.00     0.136 C
HETATM   27 CL1  UNL     1     -34.393 -19.163  61.173  1.00  0.00    -0.109 Cl
ENDROOT
TORSDOF 0
ENDMDL