MODEL 1
REMARK VINA RESULT: -7.927933708      0.000      0.000
REMARK  1 active torsions:
REMARK  status: ('A' for Active; 'I' for Inactive)
REMARK    1  A    between atoms: C13_17  and  O4_18
ROOT
HETATM    1  C1  UNL     1     -27.698 -17.594  60.233  1.00  0.00     0.025 C
HETATM    2  C2  UNL     1     -28.885 -17.253  60.707  1.00  0.00     0.014 C
HETATM    3  C3  UNL     1     -29.214 -16.807  62.054  1.00  0.00     0.289 C
HETATM    4  O1  UNL     1     -28.387 -16.613  63.000  1.00  0.00    -0.260 OA
HETATM    5  O2  UNL     1     -30.612 -16.635  62.099  1.00  0.00    -0.311 OA
HETATM    6  C4  UNL     1     -30.988 -16.293  60.793  1.00  0.00     0.145 C
HETATM    7  C5  UNL     1     -30.168 -17.249  59.957  1.00  0.00     0.054 C
HETATM    8  C6  UNL     1     -30.695 -18.644  59.948  1.00  0.00     0.012 C
HETATM    9  C7  UNL     1     -32.135 -18.749  60.332  1.00  0.00     0.006 C
HETATM   10  C8  UNL     1     -32.846 -17.535  59.719  1.00  0.00     0.005 C
HETATM   11  C9  UNL     1     -32.450 -16.345  60.527  1.00  0.00     0.026 C
HETATM   12  C10 UNL     1     -32.856 -15.033  59.902  1.00  0.00     0.081 C
HETATM   13  C11 UNL     1     -34.265 -14.646  60.148  1.00  0.00     0.205 C
HETATM   14  C12 UNL     1     -34.414 -13.661  61.316  1.00  0.00     0.084 C
HETATM   15  F1  UNL     1     -34.708 -13.933  59.025  1.00  0.00    -0.212 F
HETATM   16  O3  UNL     1     -35.138 -15.676  60.377  1.00  0.00    -0.305 OA
HETATM   17  C13 UNL     1     -35.087 -16.641  59.424  1.00  0.00     0.226 C
HETATM   18  S1  UNL     1     -36.735 -17.379  59.077  1.00  0.00    -0.067 SA
HETATM   19  C14 UNL     1     -36.022 -18.927  58.442  1.00  0.00     0.221 C
HETATM   20  O5  UNL     1     -36.815 -20.021  58.726  1.00  0.00    -0.338 OA
HETATM   21  C15 UNL     1     -35.949 -20.847  59.425  1.00  0.00     0.159 C
HETATM   22  C16 UNL     1     -35.137 -21.748  58.532  1.00  0.00     0.078 C
HETATM   23  C17 UNL     1     -36.824 -21.665  60.384  1.00  0.00     0.078 C
HETATM   24  O6  UNL     1     -35.082 -20.052  60.137  1.00  0.00    -0.347 OA
HETATM   25  C18 UNL     1     -34.759 -19.050  59.190  1.00  0.00     0.175 C
HETATM   26  C19 UNL     1     -34.344 -17.842  59.870  1.00  0.00     0.097 C
ENDROOT
BRANCH  17  27
HETATM   27  O4  UNL     1     -34.611 -16.221  58.188  1.00  0.00    -0.356 OA
ATOM     28  H4  UNL     1     -35.281 -16.057  57.534  1.00  0.00     0.214 HD
ENDBRANCH  17  27
TORSDOF 1
ENDMDL