MODEL 2
REMARK VINA RESULT: -5.475627293      1.367      3.601
REMARK  3 active torsions:
REMARK  status: ('A' for Active; 'I' for Inactive)
REMARK    1  A    between atoms: C3_3  and  O1_4
REMARK    2  A    between atoms: C6_8  and  O2_9
REMARK    3  A    between atoms: C7_11  and  O3_13
ROOT
HETATM    1  C1  UNL     1      -4.885  15.691  11.759  1.00  0.00     0.016 C
HETATM    2  C2  UNL     1      -5.692  14.387  11.668  1.00  0.00     0.047 C
HETATM    3  C3  UNL     1      -7.064  14.662  12.128  1.00  0.00     0.124 C
HETATM    4  C4  UNL     1      -7.794  13.597  12.847  1.00  0.00     0.035 C
HETATM    5  C5  UNL     1      -6.974  12.543  13.496  1.00  0.00     0.037 C
HETATM    6  C6  UNL     1      -5.515  12.909  13.654  1.00  0.00     0.152 C
HETATM    7  C7  UNL     1      -4.970  13.264  12.314  1.00  0.00     0.086 C
HETATM    8  C8  UNL     1      -4.868  12.043  11.394  1.00  0.00     0.049 C
ENDROOT
BRANCH   7   9
HETATM    9  O3  UNL     1      -3.623  13.653  12.506  1.00  0.00    -0.387 OA
ATOM     10  H3  UNL     1      -3.591  14.271  13.227  1.00  0.00     0.210 HD
ENDBRANCH   7   9
BRANCH   6  11
HETATM   11  O2  UNL     1      -4.867  11.814  14.196  1.00  0.00    -0.393 OA
ATOM     12  H2  UNL     1      -3.938  12.009  14.208  1.00  0.00     0.210 HD
ENDBRANCH   6  11
BRANCH   3  13
HETATM   13  O1  UNL     1      -7.843  15.026  11.011  1.00  0.00    -0.395 OA
ATOM     14  H1  UNL     1      -8.054  15.950  11.082  1.00  0.00     0.210 HD
ENDBRANCH   3  13
TORSDOF 3
ENDMDL