MODEL 5
REMARK VINA RESULT: -5.708074369      1.986      2.885
REMARK  3 active torsions:
REMARK  status: ('A' for Active; 'I' for Inactive)
REMARK       I    between atoms: C1_2  and  N3_7
REMARK    1  A    between atoms: N2_3  and  O1_5
REMARK    2  A    between atoms: N3_7  and  N4_8
REMARK    3  A    between atoms: N3_7  and  C2_11
ROOT
HETATM    1  N1  UNL     1     -12.720   9.034   9.723  1.00  0.00    -0.060 NA
HETATM    2  C1  UNL     1     -11.716   9.782   9.059  1.00  0.00     0.229 C
HETATM    3  N2  UNL     1     -11.905  10.095   7.827  1.00  0.00    -0.240 N
ATOM      4  H2  UNL     1     -11.194  10.633   7.331  1.00  0.00     0.197 HD
HETATM    5  N3  UNL     1     -10.546  10.160   9.765  1.00  0.00    -0.265 N
ENDROOT
BRANCH   5   6
HETATM    6  N4  UNL     1     -10.662  11.288  10.588  1.00  0.00    -0.340 N
ATOM      7  H42 UNL     1     -11.432  11.937  10.424  1.00  0.00     0.177 HD
ATOM      8  H41 UNL     1      -9.952  11.388  11.313  1.00  0.00     0.177 HD
ENDBRANCH   5   6
BRANCH   5   9
HETATM    9  C2  UNL     1      -9.296   9.489   9.698  1.00  0.00     0.110 C
HETATM   10  C3  UNL     1      -9.311   8.090  10.251  1.00  0.00     0.027 C
HETATM   11  C4  UNL     1      -7.883   7.789  10.709  1.00  0.00     0.002 C
HETATM   12  C5  UNL     1      -6.908   8.445   9.738  1.00  0.00     0.000 C
HETATM   13  C6  UNL     1      -6.863   9.922  10.085  1.00  0.00     0.002 C
HETATM   14  C7  UNL     1      -8.263  10.358  10.428  1.00  0.00     0.027 C
ENDBRANCH   5   9
BRANCH   3  15
HETATM   15  O1  UNL     1     -13.043   9.716   7.169  1.00  0.00    -0.287 OA
ATOM     16  H1  UNL     1     -13.649   9.094   7.556  1.00  0.00     0.244 HD
ENDBRANCH   3  15
TORSDOF 3
ENDMDL