MODEL 5
REMARK VINA RESULT: -5.481983130      1.437      3.863
REMARK  2 active torsions:
REMARK  status: ('A' for Active; 'I' for Inactive)
REMARK    1  A    between atoms: O1_1  and  C1_3
REMARK    2  A    between atoms: C5_7  and  O2_8
ROOT
HETATM    1  C1  UNL     1      -1.998  13.143  14.901  1.00  0.00     0.118 C
HETATM    2  C2  UNL     1      -1.235  14.391  15.185  1.00  0.00     0.032 C
HETATM    3  C3  UNL     1      -1.758  15.476  14.250  1.00  0.00     0.010 C
HETATM    4  C4  UNL     1      -3.129  15.794  14.797  1.00  0.00     0.018 C
HETATM    5  C5  UNL     1      -3.729  16.891  13.963  1.00  0.00     0.122 C
HETATM    6  C6  UNL     1      -4.247  16.105  12.771  1.00  0.00     0.032 C
HETATM    7  C7  UNL     1      -4.948  14.957  13.485  1.00  0.00     0.007 C
HETATM    8  C8  UNL     1      -4.034  14.625  14.675  1.00  0.00    -0.006 C
HETATM    9  C9  UNL     1      -3.405  13.302  14.508  1.00  0.00     0.037 C
ENDROOT
BRANCH   1  10
HETATM   10  O1  UNL     1      -1.299  12.458  13.878  1.00  0.00    -0.396 OA
ATOM     11  H1  UNL     1      -1.828  12.524  13.091  1.00  0.00     0.210 HD
ENDBRANCH   1  10
BRANCH   5  12
HETATM   12  O2  UNL     1      -2.785  17.822  13.635  1.00  0.00    -0.395 OA
ATOM     13  H2  UNL     1      -3.134  18.701  13.724  1.00  0.00     0.210 HD
ENDBRANCH   5  12
TORSDOF 2
ENDMDL