MODEL 3
REMARK VINA RESULT: -5.314383398      1.632      3.506
REMARK  3 active torsions:
REMARK  status: ('A' for Active; 'I' for Inactive)
REMARK    1  A    between atoms: O1_1  and  C1_3
REMARK    2  A    between atoms: C4_6  and  O2_7
REMARK    3  A    between atoms: C5_9  and  O3_10
ROOT
HETATM    1  C1  UNL     1      -6.506   8.474  10.933  1.00  0.00     0.125 C
HETATM    2  C2  UNL     1      -6.835   8.539  12.409  1.00  0.00     0.035 C
HETATM    3  C3  UNL     1      -8.287   8.967  12.439  1.00  0.00     0.043 C
HETATM    4  C4  UNL     1      -8.873   8.130  11.315  1.00  0.00     0.089 C
HETATM    5  C5  UNL     1      -9.928   8.950  10.643  1.00  0.00     0.153 C
HETATM    6  C6  UNL     1      -9.078   9.761   9.656  1.00  0.00     0.035 C
HETATM    7  C7  UNL     1      -8.202   8.638   9.086  1.00  0.00     0.013 C
HETATM    8  C8  UNL     1      -7.759   7.912  10.326  1.00  0.00     0.051 C
ENDROOT
BRANCH   1   9
HETATM    9  O1  UNL     1      -6.131   9.695  10.408  1.00  0.00    -0.395 OA
ATOM     10  H1  UNL     1      -5.506  10.157  10.954  1.00  0.00     0.210 HD
ENDBRANCH   1   9
BRANCH   4  11
HETATM   11  O2  UNL     1      -9.293   6.926  11.798  1.00  0.00    -0.387 OA
ATOM     12  H2  UNL     1      -8.546   6.360  11.958  1.00  0.00     0.210 HD
ENDBRANCH   4  11
BRANCH   5  13
HETATM   13  O3  UNL     1     -10.815   8.215   9.882  1.00  0.00    -0.393 OA
ATOM     14  H3  UNL     1     -10.422   7.792   9.128  1.00  0.00     0.210 HD
ENDBRANCH   5  13
TORSDOF 3
ENDMDL