MODEL 1
REMARK VINA RESULT: -5.786568768      0.000      0.000
REMARK  3 active torsions:
REMARK  status: ('A' for Active; 'I' for Inactive)
REMARK    1  A    between atoms: C3_3  and  O1_4
REMARK    2  A    between atoms: C6_8  and  O2_10
REMARK    3  A    between atoms: C8_12  and  O3_13
ROOT
HETATM    1  C1  UNL     1     -15.675  10.288   9.319  1.00  0.00     0.015 C
HETATM    2  C2  UNL     1     -14.302   9.667   9.508  1.00  0.00     0.042 C
HETATM    3  C3  UNL     1     -13.806  10.089  10.864  1.00  0.00     0.124 C
HETATM    4  C4  UNL     1     -12.377   9.755  11.119  1.00  0.00     0.035 C
HETATM    5  C5  UNL     1     -11.627   9.283   9.913  1.00  0.00     0.042 C
HETATM    6  C6  UNL     1     -11.963  10.013   8.653  1.00  0.00     0.080 C
HETATM    7  C7  UNL     1     -11.306  11.383   8.576  1.00  0.00     0.048 C
HETATM    8  C8  UNL     1     -13.421  10.191   8.407  1.00  0.00     0.158 C
ENDROOT
BRANCH   6   9
HETATM    9  O2  UNL     1     -11.420   9.261   7.587  1.00  0.00    -0.388 OA
ATOM     10  H2  UNL     1     -12.116   9.139   6.953  1.00  0.00     0.210 HD
ENDBRANCH   6   9
BRANCH   8  11
HETATM   11  O3  UNL     1     -13.844   9.563   7.220  1.00  0.00    -0.392 OA
ATOM     12  H3  UNL     1     -13.319   8.776   7.127  1.00  0.00     0.210 HD
ENDBRANCH   8  11
BRANCH   3  13
HETATM   13  O1  UNL     1     -14.654   9.522  11.829  1.00  0.00    -0.395 OA
ATOM     14  H1  UNL     1     -14.231   9.607  12.676  1.00  0.00     0.210 HD
ENDBRANCH   3  13
TORSDOF 3
ENDMDL