MODEL 3
REMARK VINA RESULT: -5.539923500      2.857      3.960
REMARK  3 active torsions:
REMARK  status: ('A' for Active; 'I' for Inactive)
REMARK    1  A    between atoms: O1_1  and  C1_3
REMARK    2  A    between atoms: C4_6  and  O2_7
REMARK    3  A    between atoms: C8_12  and  O3_13
ROOT
HETATM    1  C1  UNL     1      -8.970   8.773   9.747  1.00  0.00     0.122 C
HETATM    2  C2  UNL     1      -7.544   8.412   9.404  1.00  0.00     0.041 C
HETATM    3  C3  UNL     1      -6.581   8.740  10.522  1.00  0.00     0.045 C
HETATM    4  C4  UNL     1      -6.527  10.255  10.652  1.00  0.00     0.125 C
HETATM    5  C5  UNL     1      -7.945  10.742  10.742  1.00  0.00     0.039 C
HETATM    6  C6  UNL     1      -8.924   9.598  11.019  1.00  0.00     0.019 C
HETATM    7  C7  UNL     1      -8.411   8.787  12.177  1.00  0.00     0.039 C
HETATM    8  C8  UNL     1      -7.067   8.218  11.860  1.00  0.00     0.125 C
ENDROOT
BRANCH   1   9
HETATM    9  O1  UNL     1      -9.781   7.664   9.851  1.00  0.00    -0.395 OA
ATOM     10  H1  UNL     1     -10.702   7.892   9.898  1.00  0.00     0.210 HD
ENDBRANCH   1   9
BRANCH   4  11
HETATM   11  O2  UNL     1      -5.804  10.821   9.627  1.00  0.00    -0.395 OA
ATOM     12  H2  UNL     1      -5.903  11.766   9.615  1.00  0.00     0.210 HD
ENDBRANCH   4  11
BRANCH   8  13
HETATM   13  O3  UNL     1      -6.994   6.848  11.966  1.00  0.00    -0.395 OA
ATOM     14  H3  UNL     1      -7.091   6.535  12.858  1.00  0.00     0.210 HD
ENDBRANCH   8  13
TORSDOF 3
ENDMDL