MODEL 5
REMARK VINA RESULT: -5.577771757      6.571      7.931
REMARK  1 active torsions:
REMARK  status: ('A' for Active; 'I' for Inactive)
REMARK    1  A    between atoms: O1_1  and  N1_3
ROOT
HETATM    1  N1  UNL     1      -6.989  13.121  11.075  1.00  0.00    -0.189 NA
HETATM    2  C1  UNL     1      -7.537  11.775  10.991  1.00  0.00     0.121 C
HETATM    3  C2  UNL     1      -8.959  11.871  11.549  1.00  0.00     0.017 C
HETATM    4  C3  UNL     1      -8.833  12.493  12.919  1.00  0.00     0.003 C
HETATM    5  C4  UNL     1      -7.393  12.584  13.378  1.00  0.00     0.029 C
HETATM    6  C5  UNL     1      -6.523  13.350  12.426  1.00  0.00     0.062 C
HETATM    7  C6  UNL     1      -6.481  14.800  12.802  1.00  0.00     0.031 C
HETATM    8  C7  UNL     1      -5.092  15.367  12.870  1.00  0.00     0.029 C
HETATM    9  C8  UNL     1      -4.187  14.905  11.783  1.00  0.00     0.232 C
HETATM   10  N2  UNL     1      -4.410  13.555  11.350  1.00  0.00    -0.073 N
ATOM     11  H21 UNL     1      -3.557  13.093  11.035  1.00  0.00     0.277 HD
ATOM     12  H22 UNL     1      -4.924  13.500  10.471  1.00  0.00     0.277 HD
HETATM   13  C9  UNL     1      -5.074  12.843  12.446  1.00  0.00     0.259 C
ENDROOT
BRANCH   1  14
HETATM   14  O1  UNL     1      -7.825  14.060  10.626  1.00  0.00    -0.312 OA
ATOM     15  H1  UNL     1      -7.830  14.137   9.679  1.00  0.00     0.237 HD
ENDBRANCH   1  14
TORSDOF 1
ENDMDL