MODEL 2
REMARK VINA RESULT: -5.803530406      5.447      6.970
REMARK  3 active torsions:
REMARK  status: ('A' for Active; 'I' for Inactive)
REMARK    1  A    between atoms: O1_1  and  C1_3
REMARK    2  A    between atoms: C7_9  and  O2_10
REMARK    3  A    between atoms: C8_12  and  O3_13
ROOT
HETATM    1  C1  UNL     1      -5.917  10.203  11.464  1.00  0.00     0.150 C
HETATM    2  C2  UNL     1      -6.760  10.096  10.191  1.00  0.00     0.042 C
HETATM    3  C3  UNL     1      -6.902   8.600  10.063  1.00  0.00     0.025 C
HETATM    4  C4  UNL     1      -8.076   8.178   9.246  1.00  0.00     0.008 C
HETATM    5  C5  UNL     1      -9.176   7.794  10.227  1.00  0.00     0.004 C
HETATM    6  C6  UNL     1      -8.727   8.296  11.578  1.00  0.00     0.041 C
HETATM    7  C7  UNL     1      -7.229   8.198  11.487  1.00  0.00     0.090 C
HETATM    8  C8  UNL     1      -6.545   9.191  12.386  1.00  0.00     0.181 C
ENDROOT
BRANCH   1   9
HETATM    9  O1  UNL     1      -4.583   9.966  11.211  1.00  0.00    -0.393 OA
ATOM     10  H1  UNL     1      -4.033  10.269  11.924  1.00  0.00     0.210 HD
ENDBRANCH   1   9
BRANCH   8  11
HETATM   11  O3  UNL     1      -5.588   8.611  13.205  1.00  0.00    -0.390 OA
ATOM     12  H3  UNL     1      -5.999   8.110  13.900  1.00  0.00     0.210 HD
ENDBRANCH   8  11
BRANCH   7  13
HETATM   13  O2  UNL     1      -6.856   6.892  11.721  1.00  0.00    -0.387 OA
ATOM     14  H2  UNL     1      -5.942   6.846  11.977  1.00  0.00     0.210 HD
ENDBRANCH   7  13
TORSDOF 3
ENDMDL