MODEL 3
REMARK VINA RESULT: -5.853703026      4.461      5.926
REMARK  2 active torsions:
REMARK  status: ('A' for Active; 'I' for Inactive)
REMARK    1  A    between atoms: C2_2  and  O1_3
REMARK    2  A    between atoms: C8_10  and  O2_11
ROOT
HETATM    1  C1  UNL     1      -8.556   7.820  10.303  1.00  0.00     0.047 C
HETATM    2  C2  UNL     1      -7.500   8.097  11.291  1.00  0.00     0.069 C
HETATM    3  C3  UNL     1      -7.749   9.131  12.342  1.00  0.00     0.070 C
HETATM    4  C4  UNL     1      -8.419  10.365  11.865  1.00  0.00     0.011 C
HETATM    5  C5  UNL     1      -8.048  10.755  10.458  1.00  0.00     0.001 C
HETATM    6  C6  UNL     1      -6.797  10.107   9.965  1.00  0.00     0.011 C
HETATM    7  C7  UNL     1      -6.340   8.968  10.828  1.00  0.00     0.070 C
HETATM    8  C8  UNL     1      -6.236   9.400  12.293  1.00  0.00     0.159 C
HETATM    9  C9  UNL     1      -5.861  10.774  12.501  1.00  0.00     0.098 C
HETATM   10  N1  UNL     1      -5.546  11.864  12.673  1.00  0.00    -0.194 NA
ENDROOT
BRANCH   8  11
HETATM   11  O2  UNL     1      -5.534   8.493  13.072  1.00  0.00    -0.374 OA
ATOM     12  H2  UNL     1      -6.027   8.244  13.845  1.00  0.00     0.212 HD
ENDBRANCH   8  11
BRANCH   2  13
HETATM   13  O1  UNL     1      -6.959   6.941  11.890  1.00  0.00    -0.389 OA
ATOM     14  H1  UNL     1      -6.042   7.020  12.122  1.00  0.00     0.210 HD
ENDBRANCH   2  13
TORSDOF 2
ENDMDL