MODEL 5
REMARK VINA RESULT: -5.527776936      1.170      1.593
REMARK  2 active torsions:
REMARK  status: ('A' for Active; 'I' for Inactive)
REMARK    1  A    between atoms: O1_1  and  C1_3
REMARK    2  A    between atoms: C9_11  and  O2_12
ROOT
HETATM    1  C1  UNL     1      -4.502  13.831  11.116  1.00  0.00     0.147 C
HETATM    2  C2  UNL     1      -4.595  13.151  12.430  1.00  0.00     0.039 C
HETATM    3  C3  UNL     1      -5.628  13.654  13.363  1.00  0.00    -0.012 C
HETATM    4  C4  UNL     1      -6.782  12.685  13.443  1.00  0.00     0.005 C
HETATM    5  C5  UNL     1      -8.069  13.258  12.952  1.00  0.00     0.001 C
HETATM    6  C6  UNL     1      -7.937  14.009  11.660  1.00  0.00     0.007 C
HETATM    7  C7  UNL     1      -6.734  14.900  11.597  1.00  0.00     0.017 C
HETATM    8  C8  UNL     1      -6.048  15.030  12.953  1.00  0.00     0.012 C
HETATM    9  C9  UNL     1      -5.713  14.488  10.597  1.00  0.00     0.151 C
ENDROOT
BRANCH   1  10
HETATM   10  O1  UNL     1      -4.119  12.844  10.174  1.00  0.00    -0.393 OA
ATOM     11  H1  UNL     1      -3.650  12.174  10.657  1.00  0.00     0.210 HD
ENDBRANCH   1  10
BRANCH   9  12
HETATM   12  O2  UNL     1      -6.351  13.698   9.619  1.00  0.00    -0.393 OA
ATOM     13  H2  UNL     1      -7.135  13.284   9.962  1.00  0.00     0.210 HD
ENDBRANCH   9  12
TORSDOF 2
ENDMDL