MODEL 2
REMARK VINA RESULT: -6.631050365      4.333      6.425
REMARK  3 active torsions:
REMARK  status: ('A' for Active; 'I' for Inactive)
REMARK    1  A    between atoms: N2_5  and  C4_6
REMARK    2  A    between atoms: C7_9  and  O1_10
REMARK    3  A    between atoms: C10_17  and  N4_18
ROOT
HETATM    1  N1  UNL     1     -17.850  12.194  -3.899  1.00  0.00    -0.191 NA
HETATM    2  C1  UNL     1     -17.581  12.500  -2.816  1.00  0.00     0.104 C
HETATM    3  C2  UNL     1     -17.257  12.860  -1.480  1.00  0.00     0.106 A
HETATM    4  C3  UNL     1     -17.037  14.134  -1.022  1.00  0.00     0.137 A
HETATM    5  N2  UNL     1     -16.751  14.085   0.316  1.00  0.00    -0.294 N
HETATM    6  N3  UNL     1     -16.803  12.814   0.635  1.00  0.00    -0.282 N
ATOM      7  H3  UNL     1     -16.632  12.461   1.576  1.00  0.00     0.189 HD
HETATM    8  C10 UNL     1     -17.105  12.027  -0.414  1.00  0.00     0.136 A
ENDROOT
BRANCH   8   9
HETATM    9  N4  UNL     1     -17.220  10.723  -0.369  1.00  0.00    -0.383 N
ATOM     10  H42 UNL     1     -17.909  10.213   0.183  1.00  0.00     0.157 HD
ATOM     11  H41 UNL     1     -16.667  10.016  -0.856  1.00  0.00     0.157 HD
ENDBRANCH   8   9
BRANCH   5  12
HETATM   12  C4  UNL     1     -16.463  15.251   1.131  1.00  0.00     0.126 C
HETATM   13  C5  UNL     1     -14.981  15.415   1.194  1.00  0.00     0.031 C
HETATM   14  C6  UNL     1     -14.485  16.129   2.399  1.00  0.00     0.034 C
HETATM   15  C7  UNL     1     -15.519  16.904   3.138  1.00  0.00     0.119 C
HETATM   16  C8  UNL     1     -16.780  16.180   3.419  1.00  0.00     0.054 C
HETATM   17  C9  UNL     1     -17.094  15.059   2.485  1.00  0.00     0.109 C
HETATM   18 CL1  UNL     1     -18.876  15.056   2.240  1.00  0.00    -0.123 Cl
BRANCH  15  19
HETATM   19  O1  UNL     1     -15.781  18.081   2.433  1.00  0.00    -0.396 OA
ATOM     20  H1  UNL     1     -16.478  18.550   2.877  1.00  0.00     0.210 HD
ENDBRANCH  15  19
ENDBRANCH   5  12
TORSDOF 3
ENDMDL