MODEL 5
REMARK VINA RESULT: -6.099574767      1.167      2.994
REMARK  2 active torsions:
REMARK  status: ('A' for Active; 'I' for Inactive)
REMARK    1  A    between atoms: C6_9  and  C7_10
REMARK    2  A    between atoms: C7_10  and  O1_11
ROOT
HETATM    1  C1  UNL     1     -13.988  12.749   5.090  1.00  0.00     0.051 C
HETATM    2  C2  UNL     1     -15.242  13.596   4.957  1.00  0.00    -0.028 A
HETATM    3  C3  UNL     1     -15.279  14.787   5.641  1.00  0.00     0.059 A
HETATM    4  S1  UNL     1     -16.822  15.417   5.235  1.00  0.00    -0.103 SA
HETATM    5  C4  UNL     1     -17.362  14.158   4.219  1.00  0.00     0.011 A
HETATM    6  C5  UNL     1     -16.324  13.279   4.223  1.00  0.00     0.049 A
HETATM    7  N1  UNL     1     -16.360  12.039   3.475  1.00  0.00    -0.358 N
ATOM      8  H1  UNL     1     -15.721  11.308   3.786  1.00  0.00     0.162 HD
HETATM    9  C6  UNL     1     -17.200  11.711   2.332  1.00  0.00     0.328 C
HETATM   10  N2  UNL     1     -18.567  11.937   2.739  1.00  0.00    -0.050 N
ATOM     11  H21 UNL     1     -18.736  11.693   3.714  1.00  0.00     0.279 HD
ATOM     12  H22 UNL     1     -19.221  11.275   2.321  1.00  0.00     0.279 HD
HETATM   13  C8  UNL     1     -18.890  13.307   2.441  1.00  0.00     0.240 C
HETATM   14  C9  UNL     1     -18.703  14.235   3.590  1.00  0.00     0.076 C
ENDROOT
BRANCH   9  15
HETATM   15  C7  UNL     1     -16.957  10.312   1.878  1.00  0.00     0.264 C
HETATM   16 CL1  UNL     1     -15.699  10.307   0.601  1.00  0.00    -0.091 Cl
BRANCH  15  17
HETATM   17  O1  UNL     1     -16.447   9.573   2.947  1.00  0.00    -0.377 OA
ATOM     18  H1  UNL     1     -15.939   8.846   2.604  1.00  0.00     0.211 HD
ENDBRANCH  15  17
ENDBRANCH   9  15
TORSDOF 2
ENDMDL