MODEL 4
REMARK VINA RESULT: -6.687829168      4.330      7.334
REMARK  4 active torsions:
REMARK  status: ('A' for Active; 'I' for Inactive)
REMARK    1  A    between atoms: N1_1  and  C1_4
REMARK    2  A    between atoms: C2_5  and  C3_6
REMARK    3  A    between atoms: C4_8  and  O1_9
REMARK    4  A    between atoms: C5_11  and  O2_12
ROOT
HETATM    1  C1  UNL     1     -16.162  13.907   2.011  1.00  0.00     0.112 A
HETATM    2  C2  UNL     1     -16.156  14.388   3.329  1.00  0.00     0.035 A
HETATM    3  C4  UNL     1     -16.070  13.530   4.397  1.00  0.00     0.112 A
HETATM    4  C5  UNL     1     -15.992  12.163   4.105  1.00  0.00     0.123 A
HETATM    5  C6  UNL     1     -16.003  11.754   2.812  1.00  0.00     0.054 A
HETATM    6  N2  UNL     1     -16.087  12.599   1.761  1.00  0.00    -0.329 N
HETATM    7  C7  UNL     1     -16.071  11.840   0.514  1.00  0.00     0.092 C
HETATM    8  C8  UNL     1     -17.317  11.011   0.346  1.00  0.00     0.026 C
HETATM    9  C9  UNL     1     -17.267  10.121   1.595  1.00  0.00     0.013 C
HETATM   10  C10 UNL     1     -15.936  10.373   2.201  1.00  0.00     0.041 C
HETATM   11  C11 UNL     1     -15.098  10.729   0.962  1.00  0.00     0.036 C
ENDROOT
BRANCH   1  12
HETATM   12  N1  UNL     1     -16.244  14.802   1.093  1.00  0.00    -0.385 N
ATOM     13  H12 UNL     1     -16.887  15.592   1.132  1.00  0.00     0.157 HD
ATOM     14  H11 UNL     1     -15.614  14.679   0.300  1.00  0.00     0.157 HD
ENDBRANCH   1  12
BRANCH   2  15
HETATM   15  C3  UNL     1     -16.240  15.846   3.578  1.00  0.00     0.160 C
HETATM   16 CL1  UNL     1     -17.945  16.210   3.977  1.00  0.00    -0.125 Cl
ENDBRANCH   2  15
BRANCH   3  17
HETATM   17  O1  UNL     1     -16.058  13.919   5.727  1.00  0.00    -0.357 OA
ATOM     18  H1  UNL     1     -16.038  13.324   6.467  1.00  0.00     0.217 HD
ENDBRANCH   3  17
BRANCH   4  19
HETATM   19  O2  UNL     1     -15.903  11.221   5.118  1.00  0.00    -0.356 OA
ATOM     20  H2  UNL     1     -16.552  11.182   5.809  1.00  0.00     0.218 HD
ENDBRANCH   4  19
TORSDOF 4
ENDMDL