MODEL 5
REMARK VINA RESULT: -5.811381269      7.696      9.584
REMARK  4 active torsions:
REMARK  status: ('A' for Active; 'I' for Inactive)
REMARK    1  A    between atoms: C3_4  and  O1_5
REMARK    2  A    between atoms: C4_7  and  C5_8
REMARK       I    between atoms: C5_8  and  N2_10
REMARK    3  A    between atoms: N2_10  and  C6_12
REMARK    4  A    between atoms: C9_16  and  O3_17
ROOT
HETATM    1  C1  UNL     1     -19.152  15.620   2.468  1.00  0.00     0.158 C
HETATM    2  N1  UNL     1     -18.205  15.665   3.594  1.00  0.00    -0.339 N
HETATM    3  C2  UNL     1     -17.851  14.653   4.385  1.00  0.00     0.130 A
HETATM    4  C3  UNL     1     -16.929  15.106   5.334  1.00  0.00     0.101 A
HETATM    5  C4  UNL     1     -16.726  16.449   5.097  1.00  0.00     0.117 A
HETATM    6  C9  UNL     1     -17.542  16.745   4.007  1.00  0.00     0.160 A
ENDROOT
BRANCH   5   7
HETATM    7  C5  UNL     1     -15.865  17.386   5.799  1.00  0.00     0.260 C
HETATM    8  O2  UNL     1     -14.950  16.910   6.526  1.00  0.00    -0.267 OA
HETATM    9  N2  UNL     1     -15.980  18.793   5.727  1.00  0.00    -0.335 N
ATOM     10  H2  UNL     1     -16.710  19.210   5.148  1.00  0.00     0.164 HD
BRANCH   9  11
HETATM   11  C6  UNL     1     -15.070  19.655   6.468  1.00  0.00     0.103 C
HETATM   12  C7  UNL     1     -15.463  21.089   6.295  1.00  0.00     0.056 C
HETATM   13  C8  UNL     1     -13.639  19.489   6.024  1.00  0.00     0.056 C
HETATM   14 CL1  UNL     1     -15.225  19.256   8.201  1.00  0.00    -0.096 Cl
ENDBRANCH   9  11
ENDBRANCH   5   7
BRANCH   4  15
HETATM   15  O1  UNL     1     -16.363  14.320   6.299  1.00  0.00    -0.358 OA
ATOM     16  H1  UNL     1     -15.993  14.648   7.110  1.00  0.00     0.217 HD
ENDBRANCH   4  15
BRANCH   6  17
HETATM   17  O3  UNL     1     -17.642  18.012   3.431  1.00  0.00    -0.345 OA
ATOM     18  H3  UNL     1     -17.020  18.718   3.561  1.00  0.00     0.219 HD
ENDBRANCH   6  17
TORSDOF 4
ENDMDL