MODEL 3
REMARK VINA RESULT: -6.151597850      1.228      1.632
REMARK  4 active torsions:
REMARK  status: ('A' for Active; 'I' for Inactive)
REMARK    1  A    between atoms: C2_2  and  O1_4
REMARK    2  A    between atoms: O1_4  and  N1_5
REMARK       I    between atoms: N1_5  and  C4_7
REMARK       I    between atoms: C4_7  and  N3_12
REMARK    3  A    between atoms: N2_8  and  O2_10
REMARK    4  A    between atoms: N3_12  and  C5_14
ROOT
HETATM    1  N1  UNL     1     -16.070  16.399   7.280  1.00  0.00    -0.094 N
ATOM      2  H1  UNL     1     -17.008  16.112   7.002  1.00  0.00     0.213 HD
HETATM    3  C4  UNL     1     -14.947  15.622   6.897  1.00  0.00     0.723 C
HETATM    4  N2  UNL     1     -14.226  15.050   7.775  1.00  0.00    -0.097 N
ATOM      5  H2  UNL     1     -13.420  14.492   7.490  1.00  0.00     0.213 HD
HETATM    6  N3  UNL     1     -14.572  15.443   5.534  1.00  0.00    -0.167 N
ATOM      7  H3  UNL     1     -14.098  16.192   5.029  1.00  0.00     0.186 HD
ENDROOT
BRANCH   1   8
HETATM    8  O1  UNL     1     -15.899  17.511   8.008  1.00  0.00    -0.262 OA
BRANCH   8   9
HETATM    9  C2  UNL     1     -15.644  18.560   7.135  1.00  0.00     0.144 C
HETATM   10  C1  UNL     1     -14.197  18.970   7.340  1.00  0.00     0.042 C
HETATM   11  C3  UNL     1     -16.580  19.702   7.456  1.00  0.00     0.042 C
ENDBRANCH   8   9
ENDBRANCH   1   8
BRANCH   4  12
HETATM   12  O2  UNL     1     -14.534  15.182   9.099  1.00  0.00    -0.276 OA
ATOM     13  H2  UNL     1     -14.937  14.460   9.565  1.00  0.00     0.245 HD
ENDBRANCH   4  12
BRANCH   6  14
HETATM   14  C5  UNL     1     -14.841  14.306   4.935  1.00  0.00     0.165 A
HETATM   15  N4  UNL     1     -15.402  13.223   5.465  1.00  0.00    -0.344 N
HETATM   16  C6  UNL     1     -15.591  12.182   4.707  1.00  0.00     0.121 A
ATOM     17  H4  UNL     1     -15.680  13.208   6.447  1.00  0.00     0.167 HD
HETATM   18  C7  UNL     1     -15.197  12.262   3.399  1.00  0.00     0.093 A
HETATM   19 CL1  UNL     1     -15.322  11.024   2.140  1.00  0.00    -0.075 Cl
HETATM   20  S1  UNL     1     -14.567  13.848   3.317  1.00  0.00    -0.040 SA
ENDBRANCH   6  14
TORSDOF 4
ENDMDL