MODEL 5
REMARK VINA RESULT: -5.398608390      1.267      1.416
REMARK  2 active torsions:
REMARK  status: ('A' for Active; 'I' for Inactive)
REMARK    1  A    between atoms: C3_7  and  N2_8
REMARK    2  A    between atoms: N2_8  and  C4_10
ROOT
HETATM    1  N2  UNL     1     -17.114  13.997   4.755  1.00  0.00    -0.343 N
ATOM      2  H2  UNL     1     -18.096  14.251   4.856  1.00  0.00     0.163 HD
ENDROOT
BRANCH   1   3
HETATM    3  C3  UNL     1     -16.113  14.681   5.530  1.00  0.00     0.287 C
HETATM    4  N1  UNL     1     -16.481  14.879   6.903  1.00  0.00    -0.053 N
HETATM    5  C2  UNL     1     -15.354  15.659   7.385  1.00  0.00     0.251 C
ATOM      6  H12 UNL     1     -16.682  14.029   7.429  1.00  0.00     0.279 HD
ATOM      7  H11 UNL     1     -17.399  15.297   7.054  1.00  0.00     0.279 HD
HETATM    8  C1  UNL     1     -15.176  16.683   6.291  1.00  0.00     0.088 C
HETATM    9  S1  UNL     1     -16.003  18.216   6.797  1.00  0.00    -0.090 SA
HETATM   10  C7  UNL     1     -15.836  16.078   5.058  1.00  0.00     0.072 C
ENDBRANCH   1   3
BRANCH   1  11
HETATM   11  C4  UNL     1     -16.768  13.051   3.923  1.00  0.00     0.147 A
HETATM   12  N3  UNL     1     -17.032  11.746   4.009  1.00  0.00    -0.344 N
HETATM   13  C5  UNL     1     -16.599  10.956   3.075  1.00  0.00     0.121 A
ATOM     14  H3  UNL     1     -17.564  11.376   4.796  1.00  0.00     0.167 HD
HETATM   15  C6  UNL     1     -15.887  11.499   2.038  1.00  0.00     0.093 A
HETATM   16 CL1  UNL     1     -15.175  10.694   0.634  1.00  0.00    -0.075 Cl
HETATM   17  S2  UNL     1     -15.876  13.168   2.471  1.00  0.00    -0.041 SA
ENDBRANCH   1  11
TORSDOF 2
ENDMDL