MODEL 5
REMARK VINA RESULT: -6.205771411      1.897      2.166
REMARK  2 active torsions:
REMARK  status: ('A' for Active; 'I' for Inactive)
REMARK    1  A    between atoms: O1_2  and  C2_3
REMARK    2  A    between atoms: C9_15  and  N3_16
ROOT
HETATM    1  C2  UNL     1     -16.519  12.302   4.063  1.00  0.00     0.249 C
HETATM    2  C3  UNL     1     -16.726  13.800   4.185  1.00  0.00     0.085 C
HETATM    3  C4  UNL     1     -17.863  14.222   3.283  1.00  0.00     0.028 C
HETATM    4  C5  UNL     1     -18.068  15.711   3.436  1.00  0.00     0.038 C
HETATM    5  C6  UNL     1     -19.165  13.536   3.644  1.00  0.00     0.038 C
HETATM    6  N1  UNL     1     -17.501  13.939   1.917  1.00  0.00    -0.364 N
ATOM      7  H1  UNL     1     -17.696  14.600   1.165  1.00  0.00     0.162 HD
HETATM    8  C7  UNL     1     -16.851  12.680   1.665  1.00  0.00     0.162 A
HETATM    9  C8  UNL     1     -16.561  12.012   0.493  1.00  0.00     0.163 A
HETATM   10 CL1  UNL     1     -16.964  12.606  -1.116  1.00  0.00    -0.060 Cl
HETATM   11  N2  UNL     1     -15.938  10.862   0.789  1.00  0.00    -0.177 N
ATOM     12  H2  UNL     1     -15.605  10.163   0.125  1.00  0.00     0.185 HD
HETATM   13  C9  UNL     1     -15.837  10.810   2.130  1.00  0.00     0.683 A
HETATM   14  N4  UNL     1     -16.389  11.911   2.668  1.00  0.00    -0.138 N
ENDROOT
BRANCH  13  15
HETATM   15  N3  UNL     1     -15.275   9.817   2.776  1.00  0.00    -0.234 N
ATOM     16  H32 UNL     1     -14.576   9.169   2.413  1.00  0.00     0.174 HD
ATOM     17  H31 UNL     1     -15.489   9.582   3.745  1.00  0.00     0.174 HD
ENDBRANCH  13  15
BRANCH   1  18
HETATM   18  O1  UNL     1     -15.524  11.851   4.880  1.00  0.00    -0.370 OA
HETATM   19  C1  UNL     1     -14.428  12.667   4.994  1.00  0.00     0.204 C
ENDBRANCH   1  18
TORSDOF 2
ENDMDL