MODEL 2
REMARK VINA RESULT: -5.952438599      2.483      3.086
REMARK  4 active torsions:
REMARK  status: ('A' for Active; 'I' for Inactive)
REMARK    1  A    between atoms: C3_4  and  C4_5
REMARK    2  A    between atoms: C5_7  and  N2_8
REMARK    3  A    between atoms: N3_10  and  C6_12
REMARK    4  A    between atoms: C7_15  and  O1_16
ROOT
HETATM    1  C1  UNL     1     -16.870  11.241   2.353  1.00  0.00     0.158 C
HETATM    2  N1  UNL     1     -15.889  12.143   2.940  1.00  0.00    -0.340 N
HETATM    3  C2  UNL     1     -15.196  13.126   2.358  1.00  0.00     0.103 A
HETATM    4  C3  UNL     1     -14.366  13.752   3.240  1.00  0.00     0.004 A
HETATM    5  C5  UNL     1     -14.547  13.124   4.456  1.00  0.00     0.107 A
HETATM    6  C7  UNL     1     -15.487  12.140   4.240  1.00  0.00     0.171 A
ENDROOT
BRANCH   5   7
HETATM    7  N2  UNL     1     -13.891  13.439   5.676  1.00  0.00    -0.294 N
HETATM    8  N3  UNL     1     -14.308  14.371   6.422  1.00  0.00    -0.278 N
ATOM      9  H3  UNL     1     -13.792  14.545   7.284  1.00  0.00     0.189 HD
ATOM     10  H2  UNL     1     -13.068  12.904   5.955  1.00  0.00     0.187 HD
BRANCH   8  11
HETATM   11  C6  UNL     1     -15.423  15.190   6.166  1.00  0.00     0.199 C
HETATM   12  N4  UNL     1     -16.744  14.710   6.385  1.00  0.00    -0.068 NA
HETATM   13  S1  UNL     1     -15.267  16.730   5.603  1.00  0.00    -0.043 SA
ENDBRANCH   8  11
ENDBRANCH   5   7
BRANCH   4  14
HETATM   14  C4  UNL     1     -13.411  14.897   3.034  1.00  0.00     0.157 C
HETATM   15 CL1  UNL     1     -14.195  16.072   1.946  1.00  0.00    -0.125 Cl
ENDBRANCH   4  14
BRANCH   6  16
HETATM   16  O1  UNL     1     -15.984  11.247   5.199  1.00  0.00    -0.344 OA
ATOM     17  H1  UNL     1     -15.456  10.886   5.902  1.00  0.00     0.219 HD
ENDBRANCH   6  16
TORSDOF 4
ENDMDL