MODEL 4
REMARK VINA RESULT: -6.699667851      3.297      4.597
REMARK  2 active torsions:
REMARK  status: ('A' for Active; 'I' for Inactive)
REMARK    1  A    between atoms: N4_11  and  N5_12
REMARK    2  A    between atoms: N5_12  and  C3_14
ROOT
HETATM    1  N1  UNL     1     -15.284  12.862   4.455  1.00  0.00    -0.231 N
ATOM      2  H11 UNL     1     -16.142  12.795   3.906  1.00  0.00     0.174 HD
ATOM      3  H12 UNL     1     -14.601  12.178   4.132  1.00  0.00     0.174 HD
HETATM    4  C1  UNL     1     -15.079  13.703   5.436  1.00  0.00     0.714 A
HETATM    5  N2  UNL     1     -13.951  13.792   6.158  1.00  0.00    -0.128 N
ATOM      6  H2  UNL     1     -13.105  13.231   6.052  1.00  0.00     0.205 HD
HETATM    7  N3  UNL     1     -14.164  14.757   7.034  1.00  0.00    -0.260 N
ATOM      8  H3  UNL     1     -13.488  15.068   7.732  1.00  0.00     0.190 HD
HETATM    9  C2  UNL     1     -15.395  15.271   6.877  1.00  0.00     0.230 A
HETATM   10  S1  UNL     1     -16.111  16.484   7.727  1.00  0.00    -0.037 SA
HETATM   11  N4  UNL     1     -15.984  14.608   5.864  1.00  0.00    -0.057 N
ENDROOT
BRANCH  11  12
HETATM   12  N5  UNL     1     -17.249  14.803   5.359  1.00  0.00    -0.284 N
ATOM     13  H5  UNL     1     -18.026  14.424   5.901  1.00  0.00     0.187 HD
BRANCH  12  14
HETATM   14  C3  UNL     1     -17.544  15.414   4.274  1.00  0.00     0.023 C
HETATM   15  C4  UNL     1     -17.215  16.840   4.139  1.00  0.00     0.056 C
HETATM   16  C5  UNL     1     -18.184  17.607   3.288  1.00  0.00     0.006 C
HETATM   17  C6  UNL     1     -18.541  16.862   2.034  1.00  0.00     0.002 C
HETATM   18  C7  UNL     1     -19.006  15.469   2.259  1.00  0.00     0.026 C
HETATM   19  C8  UNL     1     -18.196  14.668   3.209  1.00  0.00     0.129 C
HETATM   20 CL1  UNL     1     -19.283  13.409   3.894  1.00  0.00    -0.119 Cl
ENDBRANCH  12  14
ENDBRANCH  11  12
TORSDOF 2
ENDMDL