MODEL 1
REMARK VINA RESULT: -8.236277040      0.000      0.000
REMARK  5 active torsions:
REMARK  status: ('A' for Active; 'I' for Inactive)
REMARK    1  A    between atoms: C2_2  and  C4_4
REMARK    2  A    between atoms: C4_4  and  O1_6
REMARK    3  A    between atoms: C4_4  and  C6_8
REMARK    4  A    between atoms: C15_17  and  O2_18
REMARK    5  A    between atoms: C18_22  and  O3_24
ROOT
HETATM    1  C6  UNL     1      19.355 -11.280   2.733  1.00  0.00    -0.034 C
HETATM    2  C7  UNL     1      18.448 -12.394   3.082  1.00  0.00     0.013 C
HETATM    3  C8  UNL     1      17.720 -12.440   4.370  1.00  0.00    -0.039 C
HETATM    4  C9  UNL     1      17.380 -11.132   4.987  1.00  0.00     0.046 C
HETATM    5  C10 UNL     1      18.511 -10.197   5.184  1.00  0.00     0.013 C
HETATM    6  C11 UNL     1      18.607  -9.276   4.030  1.00  0.00     0.014 C
HETATM    7  C12 UNL     1      18.818  -9.915   2.662  1.00  0.00    -0.021 C
HETATM    8  C13 UNL     1      19.727  -8.901   1.971  1.00  0.00     0.019 C
HETATM    9  C14 UNL     1      17.482  -9.746   1.958  1.00  0.00     0.019 C
HETATM   10  C15 UNL     1      16.508 -11.333   6.208  1.00  0.00     0.126 C
HETATM   11  C16 UNL     1      17.336 -12.099   7.192  1.00  0.00     0.035 C
HETATM   12  C17 UNL     1      17.420 -13.497   6.628  1.00  0.00     0.045 C
HETATM   13  C18 UNL     1      18.122 -13.549   5.301  1.00  0.00     0.078 C
HETATM   14  C19 UNL     1      19.565 -13.732   5.586  1.00  0.00     0.051 C
ENDROOT
BRANCH   1  15
HETATM   15  C4  UNL     1      20.334 -11.762   1.709  1.00  0.00     0.101 C
HETATM   16  C5  UNL     1      21.108 -13.001   2.211  1.00  0.00     0.056 C
BRANCH  15  17
HETATM   17  C2  UNL     1      19.836 -12.078   0.354  1.00  0.00    -0.055 C
HETATM   18  C1  UNL     1      20.004 -11.191  -0.661  1.00  0.00     0.017 C
HETATM   19  C3  UNL     1      19.131 -13.301  -0.083  1.00  0.00     0.046 C
ENDBRANCH  15  17
BRANCH  15  20
HETATM   20  O1  UNL     1      21.383 -10.853   1.458  1.00  0.00    -0.381 OA
ATOM     21  H1  UNL     1      21.088 -10.060   1.891  1.00  0.00     0.211 HD
ENDBRANCH  15  20
ENDBRANCH   1  15
BRANCH  13  22
HETATM   22  O3  UNL     1      17.711 -14.782   4.727  1.00  0.00    -0.386 OA
ATOM     23  H3  UNL     1      16.992 -15.126   5.244  1.00  0.00     0.211 HD
ENDBRANCH  13  22
BRANCH  10  24
HETATM   24  O2  UNL     1      16.025 -10.134   6.711  1.00  0.00    -0.395 OA
ATOM     25  H2  UNL     1      16.105 -10.081   7.656  1.00  0.00     0.210 HD
ENDBRANCH  10  24
TORSDOF 5
ENDMDL