MODEL 2
REMARK VINA RESULT: -8.128980133      2.236      6.260
REMARK  4 active torsions:
REMARK  status: ('A' for Active; 'I' for Inactive)
REMARK    1  A    between atoms: C2_2  and  C4_4
REMARK    2  A    between atoms: C4_4  and  C5_5
REMARK    3  A    between atoms: C9_9  and  O1_10
REMARK    4  A    between atoms: C14_16  and  O2_17
ROOT
HETATM    1  C5  UNL     1      18.738 -10.700   1.933  1.00  0.00    -0.005 C
HETATM    2  C6  UNL     1      17.975  -9.382   1.897  1.00  0.00     0.006 C
HETATM    3  C7  UNL     1      17.977  -9.060   3.412  1.00  0.00     0.008 C
HETATM    4  C8  UNL     1      17.597 -10.369   3.986  1.00  0.00     0.020 C
HETATM    5  C9  UNL     1      18.312 -10.803   5.195  1.00  0.00     0.128 C
HETATM    6  C10 UNL     1      18.471 -12.298   5.025  1.00  0.00     0.033 C
HETATM    7  C11 UNL     1      17.708 -13.103   6.010  1.00  0.00    -0.015 C
HETATM    8  C12 UNL     1      18.570 -14.292   6.472  1.00  0.00     0.018 C
HETATM    9  C13 UNL     1      17.467 -12.345   7.317  1.00  0.00     0.018 C
HETATM   10  C14 UNL     1      16.399 -13.654   5.607  1.00  0.00     0.126 C
HETATM   11  C15 UNL     1      16.032 -13.448   4.165  1.00  0.00     0.033 C
HETATM   12  C16 UNL     1      17.229 -13.719   3.355  1.00  0.00     0.012 C
HETATM   13  C17 UNL     1      18.311 -12.645   3.585  1.00  0.00    -0.033 C
HETATM   14  C18 UNL     1      19.559 -13.356   3.032  1.00  0.00     0.016 C
HETATM   15  C19 UNL     1      17.953 -11.409   2.924  1.00  0.00     0.005 C
ENDROOT
BRANCH   1  16
HETATM   16  C4  UNL     1      20.138 -10.436   1.943  1.00  0.00     0.037 C
BRANCH  16  17
HETATM   17  C2  UNL     1      20.838 -10.871   0.701  1.00  0.00    -0.093 C
HETATM   18  C1  UNL     1      22.141 -10.890   0.505  1.00  0.00     0.014 C
HETATM   19  C3  UNL     1      19.998 -11.357  -0.479  1.00  0.00     0.042 C
ENDBRANCH  16  17
ENDBRANCH   1  16
BRANCH   5  20
HETATM   20  O1  UNL     1      19.516 -10.143   5.444  1.00  0.00    -0.395 OA
ATOM     21  H1  UNL     1      20.123 -10.606   6.008  1.00  0.00     0.210 HD
ENDBRANCH   5  20
BRANCH  10  22
HETATM   22  O2  UNL     1      16.293 -15.047   5.828  1.00  0.00    -0.395 OA
ATOM     23  H2  UNL     1      15.996 -15.524   5.061  1.00  0.00     0.210 HD
ENDBRANCH  10  22
TORSDOF 4
ENDMDL