MODEL 3
REMARK VINA RESULT: -7.514359672      4.048      6.367
REMARK  4 active torsions:
REMARK  status: ('A' for Active; 'I' for Inactive)
REMARK    1  A    between atoms: C3_3  and  C4_4
REMARK    2  A    between atoms: C12_15  and  C14_17
REMARK    3  A    between atoms: C14_17  and  O1_18
REMARK    4  A    between atoms: C15_20  and  O2_21
ROOT
HETATM    1  C4  UNL     1      17.564 -12.157   4.851  1.00  0.00    -0.012 C
HETATM    2  C5  UNL     1      16.426 -11.474   5.609  1.00  0.00     0.021 C
HETATM    3  C6  UNL     1      16.943 -13.281   4.104  1.00  0.00    -0.000 C
HETATM    4  C7  UNL     1      15.647 -13.823   4.648  1.00  0.00     0.011 C
HETATM    5  C8  UNL     1      17.920 -14.418   4.040  1.00  0.00     0.061 C
HETATM    6  C9  UNL     1      19.282 -14.015   3.697  1.00  0.00     0.003 C
HETATM    7  N1  UNL     1      20.027 -15.085   3.615  1.00  0.00    -0.402 N
ATOM      8  H11 UNL     1      20.977 -14.803   3.376  1.00  0.00     0.156 HD
ATOM      9  H12 UNL     1      19.460 -15.911   3.811  1.00  0.00     0.156 HD
HETATM   10  C10 UNL     1      20.087 -12.840   3.420  1.00  0.00     0.029 C
HETATM   11  C11 UNL     1      19.524 -11.492   3.349  1.00  0.00    -0.056 C
HETATM   12  C12 UNL     1      19.725 -10.944   1.921  1.00  0.00     0.027 C
HETATM   13  C13 UNL     1      19.445 -12.015   0.888  1.00  0.00     0.025 C
HETATM   14  C15 UNL     1      19.028  -9.691   1.608  1.00  0.00     0.132 C
HETATM   15  C16 UNL     1      17.784  -9.369   2.343  1.00  0.00     0.034 C
HETATM   16  C17 UNL     1      17.240 -10.688   2.913  1.00  0.00     0.017 C
HETATM   17  C18 UNL     1      18.227 -11.141   3.943  1.00  0.00    -0.009 C
HETATM   18  C19 UNL     1      18.365  -9.892   4.846  1.00  0.00     0.021 C
ENDROOT
BRANCH   1  19
HETATM   19  C3  UNL     1      18.479 -12.596   5.931  1.00  0.00    -0.020 C
HETATM   20  C2  UNL     1      18.101 -12.920   7.147  1.00  0.00    -0.034 C
HETATM   21  C1  UNL     1      19.096 -13.359   8.199  1.00  0.00     0.036 C
ENDBRANCH   1  19
BRANCH  12  22
HETATM   22  C14 UNL     1      21.230 -10.669   1.768  1.00  0.00     0.180 C
BRANCH  22  23
HETATM   23  O1  UNL     1      21.566 -10.315   0.483  1.00  0.00    -0.400 OA
ATOM     24  H1  UNL     1      21.929 -11.043  -0.007  1.00  0.00     0.209 HD
ENDBRANCH  22  23
ENDBRANCH  12  22
BRANCH  14  25
HETATM   25  O2  UNL     1      19.844  -8.540   1.696  1.00  0.00    -0.394 OA
ATOM     26  H2  UNL     1      20.128  -8.334   2.578  1.00  0.00     0.210 HD
ENDBRANCH  14  25
TORSDOF 4
ENDMDL