MODEL 3
REMARK VINA RESULT: -8.514652751      3.601      5.989
REMARK  3 active torsions:
REMARK  status: ('A' for Active; 'I' for Inactive)
REMARK    1  A    between atoms: C16_19  and  O1_20
REMARK    2  A    between atoms: C16_19  and  C17_22
REMARK    3  A    between atoms: C17_22  and  O2_23
ROOT
HETATM    1  C1  UNL     1      19.955 -15.432   5.340  1.00  0.00     0.010 C
HETATM    2  C2  UNL     1      20.645 -14.810   4.108  1.00  0.00    -0.010 C
HETATM    3  C3  UNL     1      21.620 -15.788   3.627  1.00  0.00     0.005 C
HETATM    4  C4  UNL     1      23.045 -15.348   3.543  1.00  0.00     0.009 C
HETATM    5  C5  UNL     1      23.123 -14.341   2.399  1.00  0.00    -0.044 C
HETATM    6  C6  UNL     1      22.233 -14.656   1.275  1.00  0.00     0.015 C
HETATM    7  C7  UNL     1      24.564 -14.469   1.864  1.00  0.00     0.015 C
HETATM    8  C8  UNL     1      23.047 -13.012   3.036  1.00  0.00     0.045 C
HETATM    9  C9  UNL     1      21.779 -12.535   3.599  1.00  0.00    -0.052 C
HETATM   10  C10 UNL     1      21.009 -11.674   2.675  1.00  0.00     0.013 C
HETATM   11  N1  UNL     1      21.448 -11.388   1.537  1.00  0.00    -0.402 N
ATOM     12  H11 UNL     1      20.917 -10.794   0.900  1.00  0.00     0.156 HD
ATOM     13  H12 UNL     1      22.349 -11.781   1.266  1.00  0.00     0.156 HD
HETATM   14  C11 UNL     1      19.716 -11.111   3.064  1.00  0.00     0.080 C
HETATM   15  C12 UNL     1      18.991 -11.989   3.996  1.00  0.00    -0.031 C
HETATM   16  C13 UNL     1      18.017 -12.837   3.192  1.00  0.00     0.016 C
HETATM   17  C14 UNL     1      18.100 -11.020   4.790  1.00  0.00     0.013 C
HETATM   18  C15 UNL     1      18.315  -9.667   4.215  1.00  0.00     0.041 C
HETATM   19  C16 UNL     1      19.772  -9.778   3.729  1.00  0.00     0.088 C
HETATM   20  C18 UNL     1      19.797 -12.728   4.988  1.00  0.00     0.019 C
HETATM   21  C19 UNL     1      21.019 -13.447   4.463  1.00  0.00     0.021 C
ENDROOT
BRANCH  19  22
HETATM   22  O1  UNL     1      20.550  -9.686   4.845  1.00  0.00    -0.387 OA
ATOM     23  H1  UNL     1      20.500 -10.410   5.458  1.00  0.00     0.210 HD
ENDBRANCH  19  22
BRANCH  19  24
HETATM   24  C17 UNL     1      20.012  -8.611   2.812  1.00  0.00     0.202 C
BRANCH  24  25
HETATM   25  O2  UNL     1      19.547  -8.820   1.516  1.00  0.00    -0.398 OA
ATOM     26  H2  UNL     1      19.765  -8.115   0.919  1.00  0.00     0.209 HD
ENDBRANCH  24  25
ENDBRANCH  19  24
TORSDOF 3
ENDMDL