MODEL 1
REMARK VINA RESULT: -8.266714551      0.000      0.000
REMARK  5 active torsions:
REMARK  status: ('A' for Active; 'I' for Inactive)
REMARK    1  A    between atoms: C4_4  and  C5_5
REMARK    2  A    between atoms: C5_5  and  C6_6
REMARK    3  A    between atoms: C8_8  and  O1_9
REMARK    4  A    between atoms: C17_19  and  O2_20
REMARK    5  A    between atoms: C18_22  and  O3_24
ROOT
HETATM    1  C6  UNL     1      17.574 -13.212   4.057  1.00  0.00     0.034 A
HETATM    2  C7  UNL     1      17.802 -13.272   5.485  1.00  0.00     0.064 A
HETATM    3  C8  UNL     1      18.872 -14.085   6.080  1.00  0.00     0.126 C
HETATM    4  C9  UNL     1      19.840 -14.726   5.182  1.00  0.00     0.040 C
HETATM    5  C10 UNL     1      19.792 -14.432   3.751  1.00  0.00     0.031 C
HETATM    6  C11 UNL     1      21.055 -13.685   3.354  1.00  0.00    -0.041 C
HETATM    7  C12 UNL     1      21.306 -12.422   4.067  1.00  0.00     0.015 C
HETATM    8  C13 UNL     1      22.206 -14.645   3.738  1.00  0.00     0.015 C
HETATM    9  C14 UNL     1      21.097 -13.590   1.862  1.00  0.00     0.009 C
HETATM   10  C15 UNL     1      19.956 -12.612   1.552  1.00  0.00     0.004 C
HETATM   11  C16 UNL     1      18.701 -13.399   1.770  1.00  0.00     0.039 C
HETATM   12  C17 UNL     1      18.511 -13.925   3.160  1.00  0.00     0.073 C
HETATM   13  C18 UNL     1      16.629 -14.028   4.912  1.00  0.00     0.072 A
HETATM   14  C19 UNL     1      16.619 -15.481   5.072  1.00  0.00     0.047 C
ENDROOT
BRANCH   1  15
HETATM   15  C5  UNL     1      16.884 -11.909   3.611  1.00  0.00     0.043 C
BRANCH  15  16
HETATM   16  C4  UNL     1      17.565 -10.686   4.103  1.00  0.00    -0.024 C
HETATM   17  C2  UNL     1      17.936  -9.694   3.311  1.00  0.00    -0.091 C
HETATM   18  C1  UNL     1      17.674  -9.763   1.861  1.00  0.00     0.042 C
HETATM   19  C3  UNL     1      18.629  -8.477   3.853  1.00  0.00     0.042 C
ENDBRANCH  15  16
ENDBRANCH   1  15
BRANCH  12  20
HETATM   20  O2  UNL     1      17.767 -15.136   2.859  1.00  0.00    -0.388 OA
ATOM     21  H2  UNL     1      17.695 -15.088   1.913  1.00  0.00     0.210 HD
ENDBRANCH  12  20
BRANCH  13  22
HETATM   22  O3  UNL     1      15.327 -13.511   5.149  1.00  0.00    -0.389 OA
ATOM     23  H3  UNL     1      14.601 -14.123   5.175  1.00  0.00     0.210 HD
ENDBRANCH  13  22
BRANCH   3  24
HETATM   24  O1  UNL     1      19.530 -13.328   7.092  1.00  0.00    -0.395 OA
ATOM     25  H1  UNL     1      18.979 -13.293   7.865  1.00  0.00     0.210 HD
ENDBRANCH   3  24
TORSDOF 5
ENDMDL