MODEL 3
REMARK VINA RESULT: -8.252751494      3.124      5.925
REMARK  5 active torsions:
REMARK  status: ('A' for Active; 'I' for Inactive)
REMARK    1  A    between atoms: C2_2  and  C3_3
REMARK    2  A    between atoms: C3_3  and  C4_4
REMARK    3  A    between atoms: C5_5  and  O1_6
REMARK    4  A    between atoms: C11_13  and  O2_14
REMARK    5  A    between atoms: C14_18  and  O3_19
ROOT
HETATM    1  C4  UNL     1      17.576 -12.913   5.399  1.00  0.00     0.055 C
HETATM    2  C5  UNL     1      16.681 -13.877   4.759  1.00  0.00     0.069 C
HETATM    3  C6  UNL     1      16.843 -13.930   3.260  1.00  0.00     0.039 C
HETATM    4  C7  UNL     1      18.119 -14.763   3.101  1.00  0.00     0.008 C
HETATM    5  C8  UNL     1      18.230 -15.591   4.358  1.00  0.00    -0.007 C
HETATM    6  C9  UNL     1      19.349 -15.122   5.250  1.00  0.00     0.013 C
HETATM    7  C10 UNL     1      18.894 -14.718   6.608  1.00  0.00     0.032 C
HETATM    8  C11 UNL     1      18.329 -13.351   6.634  1.00  0.00     0.069 C
HETATM    9  C12 UNL     1      17.558 -13.095   7.926  1.00  0.00     0.041 C
HETATM   10  C13 UNL     1      18.187 -14.031   8.976  1.00  0.00     0.035 C
HETATM   11  C14 UNL     1      17.657 -15.400   8.650  1.00  0.00     0.127 C
HETATM   12  C15 UNL     1      17.990 -15.754   7.249  1.00  0.00    -0.008 C
HETATM   13  C16 UNL     1      18.771 -17.058   7.266  1.00  0.00     0.019 C
HETATM   14  C17 UNL     1      16.762 -15.831   6.390  1.00  0.00    -0.000 C
HETATM   15  C18 UNL     1      16.435 -17.334   6.292  1.00  0.00     0.011 C
HETATM   16  C19 UNL     1      16.919 -15.336   5.025  1.00  0.00     0.029 C
ENDROOT
BRANCH   1  17
HETATM   17  C3  UNL     1      16.901 -11.647   5.793  1.00  0.00     0.010 C
BRANCH  17  18
HETATM   18  C2  UNL     1      17.173 -10.396   5.083  1.00  0.00    -0.004 C
HETATM   19  C1  UNL     1      17.925 -10.450   3.805  1.00  0.00     0.005 C
ENDBRANCH  17  18
ENDBRANCH   1  17
BRANCH   2  20
HETATM   20  O1  UNL     1      15.321 -13.670   5.102  1.00  0.00    -0.389 OA
ATOM     21  H1  UNL     1      14.954 -12.894   4.694  1.00  0.00     0.210 HD
ENDBRANCH   2  20
BRANCH   8  22
HETATM   22  O2  UNL     1      19.433 -12.459   6.724  1.00  0.00    -0.389 OA
ATOM     23  H2  UNL     1      19.047 -11.610   6.904  1.00  0.00     0.210 HD
ENDBRANCH   8  22
BRANCH  11  24
HETATM   24  O3  UNL     1      16.275 -15.366   8.904  1.00  0.00    -0.395 OA
ATOM     25  H3  UNL     1      16.118 -14.605   9.451  1.00  0.00     0.210 HD
ENDBRANCH  11  24
TORSDOF 5
ENDMDL