MODEL 5
REMARK VINA RESULT: -8.484683241      1.363      1.715
REMARK  3 active torsions:
REMARK  status: ('A' for Active; 'I' for Inactive)
REMARK    1  A    between atoms: C9_9  and  C10_10
REMARK    2  A    between atoms: C12_15  and  O1_16
REMARK    3  A    between atoms: C19_24  and  O2_25
ROOT
HETATM    1  C1  UNL     1      17.412 -14.040   7.973  1.00  0.00     0.017 C
HETATM    2  C2  UNL     1      18.075 -13.173   7.234  1.00  0.00    -0.060 C
HETATM    3  C3  UNL     1      19.487 -13.400   6.896  1.00  0.00     0.036 C
HETATM    4  C4  UNL     1      19.755 -13.124   5.407  1.00  0.00     0.010 C
HETATM    5  C5  UNL     1      19.186 -11.745   5.136  1.00  0.00     0.005 C
HETATM    6  C6  UNL     1      19.677 -11.152   3.844  1.00  0.00    -0.035 C
HETATM    7  C7  UNL     1      20.499  -9.926   4.201  1.00  0.00     0.016 C
HETATM    8  C8  UNL     1      20.616 -12.080   3.101  1.00  0.00     0.023 C
HETATM    9  C9  UNL     1      20.745 -11.833   1.659  1.00  0.00     0.060 C
HETATM   10  C12 UNL     1      20.296 -10.518   1.132  1.00  0.00     0.128 C
HETATM   11  C13 UNL     1      19.183  -9.863   1.848  1.00  0.00     0.037 C
HETATM   12  C14 UNL     1      18.580 -10.841   2.866  1.00  0.00    -0.004 C
HETATM   13  C15 UNL     1      17.380 -10.194   3.441  1.00  0.00     0.006 C
HETATM   14  C16 UNL     1      17.149 -10.414   4.888  1.00  0.00     0.013 C
HETATM   15  C17 UNL     1      17.691 -11.786   5.254  1.00  0.00    -0.010 C
HETATM   16  C18 UNL     1      17.029 -12.902   4.541  1.00  0.00     0.018 C
HETATM   17  C19 UNL     1      17.367 -11.959   6.747  1.00  0.00     0.155 C
ENDROOT
BRANCH   9  18
HETATM   18  C10 UNL     1      22.174 -12.017   1.269  1.00  0.00    -0.018 C
HETATM   19  C11 UNL     1      22.888 -13.297   1.526  1.00  0.00     0.063 C
HETATM   20  N1  UNL     1      22.849 -11.089   0.701  1.00  0.00    -0.405 N
ATOM     21  H12 UNL     1      22.360 -10.211   0.525  1.00  0.00     0.155 HD
ATOM     22  H11 UNL     1      23.825 -11.215   0.434  1.00  0.00     0.155 HD
ENDBRANCH   9  18
BRANCH  10  23
HETATM   23  O1  UNL     1      19.904 -10.665  -0.222  1.00  0.00    -0.395 OA
ATOM     24  H1  UNL     1      19.114 -10.161  -0.377  1.00  0.00     0.210 HD
ENDBRANCH  10  23
BRANCH  17  25
HETATM   25  O2  UNL     1      16.013 -11.997   6.979  1.00  0.00    -0.390 OA
ATOM     26  H2  UNL     1      15.619 -12.829   6.745  1.00  0.00     0.210 HD
ENDBRANCH  17  25
TORSDOF 3
ENDMDL