MODEL 1
REMARK VINA RESULT: -8.899843906      0.000      0.000
REMARK  5 active torsions:
REMARK  status: ('A' for Active; 'I' for Inactive)
REMARK    1  A    between atoms: C2_2  and  C3_3
REMARK    2  A    between atoms: C9_9  and  O1_10
REMARK    3  A    between atoms: C9_9  and  C10_12
REMARK    4  A    between atoms: C13_15  and  O2_16
REMARK    5  A    between atoms: C19_23  and  O3_24
ROOT
HETATM    1  C3  UNL     1      17.197 -16.687   6.792  1.00  0.00     0.014 C
HETATM    2  C4  UNL     1      18.284 -15.958   7.524  1.00  0.00     0.008 C
HETATM    3  C5  UNL     1      18.613 -14.619   6.978  1.00  0.00     0.010 C
HETATM    4  C6  UNL     1      18.760 -14.686   5.476  1.00  0.00    -0.035 C
HETATM    5  C7  UNL     1      19.813 -15.714   5.090  1.00  0.00     0.016 C
HETATM    6  C8  UNL     1      19.211 -13.359   4.986  1.00  0.00     0.048 C
HETATM    7  C9  UNL     1      18.223 -12.672   4.072  1.00  0.00     0.062 C
HETATM    8  C16 UNL     1      17.878 -13.638   2.965  1.00  0.00     0.038 C
HETATM    9  C17 UNL     1      17.373 -14.943   3.448  1.00  0.00     0.011 C
HETATM   10  C18 UNL     1      17.422 -15.122   4.931  1.00  0.00     0.023 C
HETATM   11  C19 UNL     1      17.272 -16.585   5.309  1.00  0.00     0.127 C
ENDROOT
BRANCH   7  12
HETATM   12  O1  UNL     1      17.058 -12.293   4.732  1.00  0.00    -0.389 OA
ATOM     13  H1  UNL     1      16.302 -12.800   4.459  1.00  0.00     0.210 HD
ENDBRANCH   7  12
BRANCH   7  14
HETATM   14  C10 UNL     1      18.886 -11.441   3.557  1.00  0.00     0.020 C
HETATM   15  C11 UNL     1      18.061 -10.231   3.863  1.00  0.00     0.010 C
HETATM   16  C12 UNL     1      18.031  -9.234   2.729  1.00  0.00     0.032 C
HETATM   17  C13 UNL     1      19.377  -9.003   2.109  1.00  0.00     0.118 C
HETATM   18  C14 UNL     1      20.107 -10.289   1.803  1.00  0.00     0.032 C
HETATM   19  C15 UNL     1      19.182 -11.480   2.083  1.00  0.00     0.010 C
BRANCH  17  20
HETATM   20  O2  UNL     1      20.137  -8.160   2.936  1.00  0.00    -0.396 OA
ATOM     21  H2  UNL     1      21.062  -8.317   2.786  1.00  0.00     0.210 HD
ENDBRANCH  17  20
ENDBRANCH   7  14
BRANCH  11  22
HETATM   22  O3  UNL     1      16.011 -16.978   4.800  1.00  0.00    -0.395 OA
ATOM     23  H3  UNL     1      15.891 -16.529   3.972  1.00  0.00     0.210 HD
ENDBRANCH  11  22
BRANCH   1  24
HETATM   24  C2  UNL     1      17.330 -18.161   7.179  1.00  0.00     0.002 C
HETATM   25  C1  UNL     1      16.821 -18.370   8.603  1.00  0.00     0.005 C
ENDBRANCH   1  24
TORSDOF 5
ENDMDL