MODEL 1
REMARK VINA RESULT: -8.386996598      0.000      0.000
REMARK  5 active torsions:
REMARK  status: ('A' for Active; 'I' for Inactive)
REMARK    1  A    between atoms: C7_7  and  C9_9
REMARK    2  A    between atoms: C9_9  and  O1_10
REMARK    3  A    between atoms: C12_14  and  O2_15
REMARK    4  A    between atoms: C16_20  and  C18_22
REMARK    5  A    between atoms: C18_22  and  O3_23
ROOT
HETATM    1  C1  UNL     1      20.360 -15.075   4.650  1.00  0.00     0.015 C
HETATM    2  C2  UNL     1      20.413 -13.855   4.223  1.00  0.00    -0.078 C
HETATM    3  C3  UNL     1      21.076 -13.624   2.905  1.00  0.00     0.034 C
HETATM    4  C4  UNL     1      19.861 -13.194   2.109  1.00  0.00     0.010 C
HETATM    5  C5  UNL     1      19.211 -11.935   2.546  1.00  0.00     0.002 C
HETATM    6  C6  UNL     1      19.210 -11.656   4.037  1.00  0.00     0.015 C
HETATM    7  C7  UNL     1      17.844 -11.161   4.375  1.00  0.00    -0.018 C
HETATM    8  C8  UNL     1      16.731 -12.118   3.932  1.00  0.00     0.018 C
HETATM    9  C10 UNL     1      17.554  -9.856   3.638  1.00  0.00     0.014 C
HETATM   10  C11 UNL     1      17.613  -9.768   2.208  1.00  0.00     0.033 C
HETATM   11  C12 UNL     1      19.064  -9.506   1.817  1.00  0.00     0.126 C
HETATM   12  C13 UNL     1      19.717 -10.847   1.664  1.00  0.00    -0.018 C
HETATM   13  C14 UNL     1      19.378 -11.287   0.220  1.00  0.00     0.018 C
HETATM   14  C15 UNL     1      21.201 -10.630   1.677  1.00  0.00     0.018 C
HETATM   15  C16 UNL     1      19.931 -12.602   4.882  1.00  0.00     0.005 C
HETATM   16  C17 UNL     1      19.382 -13.038   6.198  1.00  0.00     0.023 C
ENDROOT
BRANCH   7  17
HETATM   17  C9  UNL     1      17.569 -10.697   5.781  1.00  0.00     0.173 C
BRANCH  17  18
HETATM   18  O1  UNL     1      18.353  -9.630   6.152  1.00  0.00    -0.400 OA
ATOM     19  H1  UNL     1      18.449  -9.553   7.094  1.00  0.00     0.209 HD
ENDBRANCH  17  18
ENDBRANCH   7  17
BRANCH  15  20
HETATM   20  C18 UNL     1      21.302 -11.990   5.335  1.00  0.00     0.178 C
BRANCH  20  21
HETATM   21  O3  UNL     1      21.216 -10.588   5.320  1.00  0.00    -0.400 OA
ATOM     22  H3  UNL     1      22.080 -10.220   5.178  1.00  0.00     0.209 HD
ENDBRANCH  20  21
ENDBRANCH  15  20
BRANCH  11  23
HETATM   23  O2  UNL     1      19.664  -8.649   2.694  1.00  0.00    -0.395 OA
ATOM     24  H2  UNL     1      20.552  -8.924   2.889  1.00  0.00     0.210 HD
ENDBRANCH  11  23
TORSDOF 5
ENDMDL