MODEL 5
REMARK VINA RESULT: -7.816010249      1.847      2.930
REMARK  5 active torsions:
REMARK  status: ('A' for Active; 'I' for Inactive)
REMARK    1  A    between atoms: C2_2  and  O1_3
REMARK    2  A    between atoms: C2_2  and  C3_5
REMARK    3  A    between atoms: C3_5  and  C5_7
REMARK    4  A    between atoms: C13_15  and  O2_16
REMARK    5  A    between atoms: C18_22  and  O3_23
ROOT
HETATM    1  C5  UNL     1      19.186 -14.509   5.776  1.00  0.00    -0.012 C
HETATM    2  C6  UNL     1      20.182 -15.454   5.089  1.00  0.00     0.018 C
HETATM    3  C7  UNL     1      19.985 -13.319   6.229  1.00  0.00     0.012 C
HETATM    4  C8  UNL     1      20.063 -12.207   5.249  1.00  0.00     0.007 C
HETATM    5  C9  UNL     1      18.782 -11.861   4.571  1.00  0.00     0.006 C
HETATM    6  C10 UNL     1      19.124 -10.870   3.483  1.00  0.00    -0.017 C
HETATM    7  C11 UNL     1      17.970  -9.966   3.118  1.00  0.00     0.018 C
HETATM    8  C12 UNL     1      20.178  -9.936   4.104  1.00  0.00     0.018 C
HETATM    9  C13 UNL     1      19.774 -11.491   2.288  1.00  0.00     0.126 C
HETATM   10  C14 UNL     1      19.583 -12.957   2.155  1.00  0.00     0.033 C
HETATM   11  C15 UNL     1      18.196 -13.322   2.617  1.00  0.00     0.014 C
HETATM   12  C16 UNL     1      17.960 -13.017   4.096  1.00  0.00    -0.013 C
HETATM   13  C17 UNL     1      16.498 -12.517   4.136  1.00  0.00     0.018 C
HETATM   14  C18 UNL     1      18.007 -14.226   4.954  1.00  0.00     0.135 C
ENDROOT
BRANCH   1  15
HETATM   15  C3  UNL     1      18.767 -15.201   7.077  1.00  0.00     0.021 C
HETATM   16  C4  UNL     1      18.747 -16.697   6.933  1.00  0.00     0.013 C
BRANCH  15  17
HETATM   17  C2  UNL     1      17.536 -14.640   7.688  1.00  0.00     0.118 C
HETATM   18  C1  UNL     1      17.903 -14.247   9.124  1.00  0.00     0.040 C
BRANCH  17  19
HETATM   19  O1  UNL     1      16.465 -15.488   7.769  1.00  0.00    -0.396 OA
ATOM     20  H1  UNL     1      16.811 -16.352   7.963  1.00  0.00     0.210 HD
ENDBRANCH  17  19
ENDBRANCH  15  17
ENDBRANCH   1  15
BRANCH  14  21
HETATM   21  O3  UNL     1      17.820 -15.340   4.093  1.00  0.00    -0.394 OA
ATOM     22  H3  UNL     1      17.974 -16.122   4.611  1.00  0.00     0.210 HD
ENDBRANCH  14  21
BRANCH   9  23
HETATM   23  O2  UNL     1      21.146 -11.224   2.210  1.00  0.00    -0.395 OA
ATOM     24  H2  UNL     1      21.673 -11.843   2.703  1.00  0.00     0.210 HD
ENDBRANCH   9  23
TORSDOF 5
ENDMDL