MODEL 4
REMARK VINA RESULT: -6.083240512      2.707      6.193
REMARK  7 active torsions:
REMARK  status: ('A' for Active; 'I' for Inactive)
REMARK    1  A    between atoms: N1_2  and  C2_4
REMARK    2  A    between atoms: N2_8  and  C4_9
REMARK    3  A    between atoms: C10_15  and  S2_16
REMARK    4  A    between atoms: S2_16  and  C11_17
REMARK    5  A    between atoms: C11_17  and  C12_18
REMARK       I    between atoms: C12_18  and  N3_20
REMARK    6  A    between atoms: N3_20  and  C13_22
REMARK    7  A    between atoms: C13_22  and  C14_23
ROOT
HETATM    1  C2  UNL     1      35.298  46.165   4.445  1.00  0.00     0.108 A
HETATM    2  S1  UNL     1      35.954  44.613   4.746  1.00  0.00    -0.009 SA
HETATM    3  C3  UNL     1      35.628  44.538   6.407  1.00  0.00     0.293 A
HETATM    4  O1  UNL     1      35.916  43.554   7.180  1.00  0.00    -0.259 OA
HETATM    5  N2  UNL     1      35.034  45.694   6.673  1.00  0.00    -0.295 N
HETATM    6  C10 UNL     1      34.853  46.557   5.669  1.00  0.00     0.110 A
ENDROOT
BRANCH   6   7
HETATM    7  S2  UNL     1      34.112  48.211   5.908  1.00  0.00    -0.100 SA
BRANCH   7   8
HETATM    8  C11 UNL     1      32.619  48.488   5.027  1.00  0.00     0.183 C
BRANCH   8   9
HETATM    9  C12 UNL     1      31.349  47.966   5.534  1.00  0.00     0.227 C
HETATM   10  O2  UNL     1      30.278  48.581   5.448  1.00  0.00    -0.273 OA
HETATM   11  N3  UNL     1      31.294  46.686   6.171  1.00  0.00    -0.358 N
ATOM     12  H3  UNL     1      32.144  46.133   6.276  1.00  0.00     0.162 HD
BRANCH  11  13
HETATM   13  C13 UNL     1      30.057  46.186   6.659  1.00  0.00     0.154 C
BRANCH  13  14
HETATM   14  C14 UNL     1      29.883  46.392   8.133  1.00  0.00     0.139 C
HETATM   15  C15 UNL     1      29.779  45.139   8.935  1.00  0.00     0.035 C
HETATM   16  C16 UNL     1      28.545  45.414   9.787  1.00  0.00     0.029 C
HETATM   17  C17 UNL     1      27.761  46.314   8.837  1.00  0.00     0.168 C
HETATM   18  O3  UNL     1      28.757  47.172   8.375  1.00  0.00    -0.384 OA
ENDBRANCH  13  14
ENDBRANCH  11  13
ENDBRANCH   8   9
ENDBRANCH   7   8
ENDBRANCH   6   7
BRANCH   1  19
HETATM   19  N1  UNL     1      35.205  46.838   3.159  1.00  0.00    -0.386 N
HETATM   20  C1  UNL     1      36.149  47.893   2.886  1.00  0.00     0.147 C
ATOM     21  H1  UNL     1      34.497  46.572   2.474  1.00  0.00     0.159 HD
ENDBRANCH   1  19
BRANCH   5  22
HETATM   22  C4  UNL     1      34.553  46.058   8.039  1.00  0.00     0.094 C
HETATM   23  C5  UNL     1      35.664  46.099   9.012  1.00  0.00     0.026 C
HETATM   24  C6  UNL     1      35.013  46.506  10.354  1.00  0.00     0.002 C
HETATM   25  C7  UNL     1      34.161  45.394  10.905  1.00  0.00     0.000 C
HETATM   26  C8  UNL     1      33.879  44.407   9.801  1.00  0.00     0.002 C
HETATM   27  C9  UNL     1      33.492  45.088   8.505  1.00  0.00     0.026 C
ENDBRANCH   5  22
TORSDOF 7
ENDMDL