MODEL 1
REMARK VINA RESULT: -6.181794186      0.000      0.000
REMARK  6 active torsions:
REMARK  status: ('A' for Active; 'I' for Inactive)
REMARK    1  A    between atoms: C1_2  and  C2_3
REMARK       I    between atoms: C1_2  and  N2_10
REMARK    2  A    between atoms: C2_3  and  N1_4
REMARK    3  A    between atoms: N2_10  and  C7_12
REMARK    4  A    between atoms: C10_16  and  O4_17
REMARK    5  A    between atoms: O4_17  and  C11_18
REMARK    6  A    between atoms: C14_23  and  C15_24
ROOT
HETATM    1  C7  UNL     1      29.438  45.924   8.818  1.00  0.00     0.093 A
HETATM    2  C8  UNL     1      28.598  45.322   9.728  1.00  0.00     0.173 A
HETATM    3  O3  UNL     1      27.389  45.769   9.523  1.00  0.00    -0.330 OA
HETATM    4  C9  UNL     1      27.358  46.615   8.553  1.00  0.00     0.181 A
HETATM    5  C10 UNL     1      28.662  46.773   8.038  1.00  0.00     0.127 A
ENDROOT
BRANCH   1   6
HETATM    6  N2  UNL     1      30.821  45.655   8.708  1.00  0.00    -0.322 N
HETATM    7  C1  UNL     1      31.430  44.430   8.395  1.00  0.00     0.239 C
HETATM    8  O1  UNL     1      30.733  43.418   8.179  1.00  0.00    -0.271 OA
ATOM      9  H2  UNL     1      31.449  46.441   8.876  1.00  0.00     0.169 HD
BRANCH   7  10
HETATM   10  C2  UNL     1      32.908  44.359   8.325  1.00  0.00     0.220 C
BRANCH  10  11
HETATM   11  N1  UNL     1      33.613  45.316   9.089  1.00  0.00    -0.400 N
HETATM   12  C3  UNL     1      33.869  45.005  10.443  1.00  0.00     0.143 C
HETATM   13  C4  UNL     1      34.726  46.084  11.126  1.00  0.00     0.187 C
HETATM   14  O2  UNL     1      35.911  46.131  10.387  1.00  0.00    -0.388 OA
HETATM   15  C5  UNL     1      35.624  46.725   9.177  1.00  0.00     0.187 C
HETATM   16  C6  UNL     1      34.617  45.972   8.345  1.00  0.00     0.143 C
ENDBRANCH  10  11
ENDBRANCH   7  10
ENDBRANCH   1   6
BRANCH   5  17
HETATM   17  O4  UNL     1      28.943  47.577   7.037  1.00  0.00    -0.303 OA
BRANCH  17  18
HETATM   18  C11 UNL     1      29.406  48.867   6.819  1.00  0.00     0.122 A
HETATM   19  C12 UNL     1      28.478  49.859   6.593  1.00  0.00     0.076 A
HETATM   20 CL1  UNL     1      26.699  49.569   6.503  1.00  0.00    -0.081 Cl
HETATM   21  C13 UNL     1      28.925  51.118   6.388  1.00  0.00     0.077 A
HETATM   22  S1  UNL     1      30.599  50.965   6.497  1.00  0.00    -0.091 SA
HETATM   23  C14 UNL     1      30.719  49.262   6.811  1.00  0.00     0.117 A
BRANCH  23  24
HETATM   24  C15 UNL     1      31.965  48.520   6.984  1.00  0.00     0.219 C
HETATM   25  O5  UNL     1      32.888  48.929   7.667  1.00  0.00    -0.643 OA
HETATM   26  O6  UNL     1      32.094  47.300   6.341  1.00  0.00    -0.643 OA
ENDBRANCH  23  24
ENDBRANCH  17  18
ENDBRANCH   5  17
TORSDOF 6
ENDMDL