MODEL 4
REMARK VINA RESULT: -7.631356733      1.546      1.991
REMARK  3 active torsions:
REMARK  status: ('A' for Active; 'I' for Inactive)
REMARK    1  A    between atoms: C2_3  and  C3_4
REMARK    2  A    between atoms: C3_4  and  N1_5
REMARK    3  A    between atoms: N2_11  and  C8_13
ROOT
HETATM    1  C3  UNL     1      29.494  44.497   9.636  1.00  0.00     0.124 C
ENDROOT
BRANCH   1   2
HETATM    2  C2  UNL     1      29.324  45.845   8.937  1.00  0.00     0.132 A
HETATM    3  C1  UNL     1      28.180  46.492   8.653  1.00  0.00     0.282 A
HETATM    4  O1  UNL     1      27.107  46.089   9.186  1.00  0.00    -0.265 OA
HETATM    5  N6  UNL     1      28.213  47.533   7.821  1.00  0.00    -0.268 N
HETATM    6  C16 UNL     1      29.351  47.926   7.271  1.00  0.00     0.144 A
HETATM    7  C19 UNL     1      27.056  48.204   7.633  1.00  0.00     0.144 A
HETATM    8  N4  UNL     1      30.514  47.263   7.559  1.00  0.00    -0.283 N
HETATM    9  C17 UNL     1      29.383  49.039   6.466  1.00  0.00     0.139 A
HETATM   10  N3  UNL     1      30.480  46.260   8.368  1.00  0.00    -0.293 N
ATOM     11  H4  UNL     1      31.396  47.559   7.140  1.00  0.00     0.188 HD
ATOM     12  H3  UNL     1      31.346  45.767   8.585  1.00  0.00     0.187 HD
HETATM   13  N5  UNL     1      28.241  49.714   6.271  1.00  0.00    -0.352 N
HETATM   14  C18 UNL     1      27.087  49.318   6.844  1.00  0.00     0.119 A
ATOM     15  H5  UNL     1      28.245  50.545   5.678  1.00  0.00     0.166 HD
HETATM   16 CL1  UNL     1      25.618  50.276   6.638  1.00  0.00    -0.063 Cl
ENDBRANCH   1   2
BRANCH   1  17
HETATM   17  N1  UNL     1      30.452  43.830   8.909  1.00  0.00    -0.370 N
HETATM   18  C4  UNL     1      31.630  43.252   9.104  1.00  0.00    -0.013 C
HETATM   19  C5  UNL     1      32.285  43.017   7.735  1.00  0.00     0.058 C
HETATM   20  C15 UNL     1      32.593  43.533  10.174  1.00  0.00     0.058 C
HETATM   21  C6  UNL     1      33.689  43.540   7.716  1.00  0.00     0.057 C
HETATM   22  C7  UNL     1      33.759  44.892   8.456  1.00  0.00    -0.017 C
HETATM   23  N2  UNL     1      34.642  45.755   7.886  1.00  0.00    -0.392 N
HETATM   24  C14 UNL     1      33.644  44.592   9.898  1.00  0.00     0.057 C
ATOM     25  H2  UNL     1      34.232  46.605   7.499  1.00  0.00     0.159 HD
ATOM     26  H1  UNL     1      30.175  43.759   7.930  1.00  0.00     0.165 HD
BRANCH  23  27
HETATM   27  C8  UNL     1      35.990  45.653   7.754  1.00  0.00     0.081 C
HETATM   28  C9  UNL     1      36.595  46.525   6.690  1.00  0.00     0.025 C
HETATM   29  C10 UNL     1      37.832  45.745   6.173  1.00  0.00     0.002 C
HETATM   30  C11 UNL     1      38.480  45.165   7.422  1.00  0.00     0.000 C
HETATM   31  C12 UNL     1      38.242  46.049   8.610  1.00  0.00     0.002 C
HETATM   32  C13 UNL     1      36.780  46.088   9.007  1.00  0.00     0.025 C
ENDBRANCH  23  27
ENDBRANCH   1  17
TORSDOF 3
ENDMDL