MODEL 4
REMARK VINA RESULT: -7.502212307      5.053      8.171
REMARK  7 active torsions:
REMARK  status: ('A' for Active; 'I' for Inactive)
REMARK    1  A    between atoms: O1_1  and  C1_3
REMARK    2  A    between atoms: C1_3  and  C2_4
REMARK    3  A    between atoms: N1_6  and  C4_7
REMARK    4  A    between atoms: C4_7  and  C5_8
REMARK    5  A    between atoms: C9_15  and  C10_16
REMARK    6  A    between atoms: N3_21  and  C15_22
REMARK    7  A    between atoms: C15_22  and  C16_23
ROOT
HETATM    1  C5  UNL     1      32.554  48.686   5.044  1.00  0.00     0.104 A
HETATM    2  N2  UNL     1      31.397  49.370   4.977  1.00  0.00    -0.342 N
ATOM      3  H2  UNL     1      31.246  50.217   4.429  1.00  0.00     0.167 HD
HETATM    4  C6  UNL     1      30.477  48.773   5.736  1.00  0.00     0.062 A
HETATM    5  C7  UNL     1      29.143  49.095   6.011  1.00  0.00     0.056 A
HETATM    6  C8  UNL     1      28.445  48.282   6.861  1.00  0.00     0.043 A
HETATM    7 CL1  UNL     1      26.764  48.683   7.208  1.00  0.00    -0.084 Cl
HETATM    8  C9  UNL     1      29.045  47.163   7.441  1.00  0.00    -0.030 A
HETATM    9  C13 UNL     1      30.327  46.854   7.177  1.00  0.00     0.041 A
HETATM   10  C14 UNL     1      31.062  47.669   6.308  1.00  0.00     0.063 A
HETATM   11  N3  UNL     1      32.347  47.644   5.856  1.00  0.00    -0.333 N
ENDROOT
BRANCH   1  12
HETATM   12  C4  UNL     1      33.822  49.109   4.322  1.00  0.00     0.222 C
BRANCH  12  13
HETATM   13  N1  UNL     1      34.294  50.344   4.964  1.00  0.00    -0.278 N
HETATM   14  C3  UNL     1      35.456  50.451   5.605  1.00  0.00     0.136 A
HETATM   15  C2  UNL     1      35.605  51.735   6.084  1.00  0.00     0.064 A
HETATM   16  N6  UNL     1      34.484  52.373   5.698  1.00  0.00    -0.285 N
HETATM   17  N5  UNL     1      33.706  51.527   5.026  1.00  0.00    -0.020 NA
ATOM     18  H6  UNL     1      34.266  53.351   5.889  1.00  0.00     0.184 HD
BRANCH  15  19
HETATM   19  C1  UNL     1      36.741  52.304   6.853  1.00  0.00     0.223 C
BRANCH  19  20
HETATM   20  O1  UNL     1      36.452  53.594   7.303  1.00  0.00    -0.395 OA
ATOM     21  H1  UNL     1      36.760  54.250   6.689  1.00  0.00     0.209 HD
ENDBRANCH  19  20
ENDBRANCH  15  19
ENDBRANCH  12  13
ENDBRANCH   1  12
BRANCH  11  22
HETATM   22  C15 UNL     1      33.305  46.630   6.188  1.00  0.00     0.137 C
BRANCH  22  23
HETATM   23  C16 UNL     1      33.871  46.623   7.558  1.00  0.00     0.030 C
HETATM   24  C17 UNL     1      33.259  45.683   8.540  1.00  0.00     0.009 C
HETATM   25  C18 UNL     1      34.081  45.662   9.805  1.00  0.00     0.028 C
HETATM   26  C19 UNL     1      35.303  46.544   9.718  1.00  0.00     0.232 C
HETATM   27  N4  UNL     1      34.954  47.880   9.338  1.00  0.00    -0.075 N
HETATM   28  C20 UNL     1      34.067  47.955   8.210  1.00  0.00     0.238 C
ATOM     29  H42 UNL     1      34.567  48.389  10.132  1.00  0.00     0.277 HD
ATOM     30  H41 UNL     1      35.794  48.435   9.170  1.00  0.00     0.277 HD
ENDBRANCH  22  23
ENDBRANCH  11  22
BRANCH   8  31
HETATM   31  C10 UNL     1      28.234  46.333   8.356  1.00  0.00     0.020 A
HETATM   32  C11 UNL     1      28.910  45.218   9.079  1.00  0.00     0.010 A
HETATM   33  C12 UNL     1      28.512  46.411   9.822  1.00  0.00     0.010 A
ENDBRANCH   8  31
TORSDOF 7
ENDMDL