MODEL 4
REMARK VINA RESULT: -6.863015704      4.844      7.298
REMARK  8 active torsions:
REMARK  status: ('A' for Active; 'I' for Inactive)
REMARK    1  A    between atoms: O1_1  and  N1_3
REMARK    2  A    between atoms: C1_5  and  N2_6
REMARK    3  A    between atoms: C1_5  and  C14_26
REMARK    4  A    between atoms: N2_6  and  C2_8
REMARK    5  A    between atoms: N3_11  and  C5_12
REMARK    6  A    between atoms: C5_12  and  C6_13
REMARK    7  A    between atoms: C6_13  and  N4_14
REMARK    8  A    between atoms: C8_20  and  C9_21
ROOT
HETATM    1  C2  UNL     1      33.056  48.615   5.314  1.00  0.00     0.086 C
HETATM    2  C3  UNL     1      33.507  47.651   4.271  1.00  0.00     0.045 C
HETATM    3  C4  UNL     1      33.319  46.225   4.793  1.00  0.00     0.124 C
HETATM    4  N3  UNL     1      34.149  46.005   5.889  1.00  0.00    -0.388 N
HETATM    5  C12 UNL     1      34.305  47.067   6.823  1.00  0.00     0.124 C
HETATM    6  C13 UNL     1      33.203  48.101   6.734  1.00  0.00     0.045 C
ENDROOT
BRANCH   1   7
HETATM    7  N2  UNL     1      31.697  49.016   5.132  1.00  0.00    -0.369 N
ATOM      8  H2  UNL     1      31.204  48.700   4.297  1.00  0.00     0.161 HD
BRANCH   7   9
HETATM    9  C1  UNL     1      31.015  49.819   6.045  1.00  0.00     0.138 C
HETATM   10  N1  UNL     1      31.447  50.953   6.416  1.00  0.00    -0.252 N
ATOM     11  H1  UNL     1      32.329  51.293   6.031  1.00  0.00     0.196 HD
BRANCH  10  12
HETATM   12  O1  UNL     1      30.769  51.742   7.318  1.00  0.00    -0.288 OA
ATOM     13  H1  UNL     1      29.820  51.773   7.355  1.00  0.00     0.244 HD
ENDBRANCH  10  12
BRANCH   9  14
HETATM   14  C14 UNL     1      29.724  49.329   6.586  1.00  0.00     0.052 A
HETATM   15  C15 UNL     1      29.548  48.379   7.556  1.00  0.00     0.025 A
HETATM   16  C16 UNL     1      28.276  48.080   7.889  1.00  0.00     0.033 A
HETATM   17  C17 UNL     1      27.280  48.747   7.233  1.00  0.00     0.075 A
HETATM   18 CL1  UNL     1      25.532  48.549   7.467  1.00  0.00    -0.076 Cl
HETATM   19  S1  UNL     1      28.136  49.770   6.175  1.00  0.00    -0.074 SA
ENDBRANCH   9  14
ENDBRANCH   7   9
ENDBRANCH   1   7
BRANCH   4  20
HETATM   20  C5  UNL     1      34.871  44.851   6.120  1.00  0.00     0.103 C
BRANCH  20  21
HETATM   21  C6  UNL     1      34.391  43.769   7.014  1.00  0.00     0.116 C
BRANCH  21  22
HETATM   22  N4  UNL     1      34.131  43.990   8.379  1.00  0.00    -0.304 N
HETATM   23  C7  UNL     1      35.090  44.260   9.334  1.00  0.00     0.206 A
HETATM   24  N5  UNL     1      34.491  44.442  10.501  1.00  0.00    -0.294 N
HETATM   25  N6  UNL     1      33.214  44.299  10.320  1.00  0.00    -0.287 N
ATOM     26  H5  UNL     1      34.951  44.657  11.385  1.00  0.00     0.187 HD
HETATM   27  C8  UNL     1      32.959  44.015   8.995  1.00  0.00     0.107 A
ATOM     28  H6  UNL     1      32.505  44.384  11.049  1.00  0.00     0.188 HD
BRANCH  27  29
HETATM   29  C9  UNL     1      31.606  43.828   8.528  1.00  0.00     0.055 A
HETATM   30  C10 UNL     1      31.067  45.048   7.715  1.00  0.00     0.013 A
HETATM   31  C11 UNL     1      30.371  44.416   8.951  1.00  0.00     0.013 A
ENDBRANCH  27  29
ENDBRANCH  21  22
ENDBRANCH  20  21
ENDBRANCH   4  20
TORSDOF 8
ENDMDL