MODEL 5
REMARK VINA RESULT: -6.149078089      2.404      6.593
REMARK  7 active torsions:
REMARK  status: ('A' for Active; 'I' for Inactive)
REMARK    1  A    between atoms: C2_2  and  C3_3
REMARK    2  A    between atoms: C3_3  and  N1_4
REMARK    3  A    between atoms: N1_4  and  C4_6
REMARK    4  A    between atoms: C6_11  and  C7_12
REMARK    5  A    between atoms: C7_12  and  S2_13
REMARK    6  A    between atoms: S2_13  and  C8_14
REMARK    7  A    between atoms: C13_20  and  N4_21
ROOT
HETATM    1  C4  UNL     1      31.173  44.176   8.268  1.00  0.00     0.680 A
HETATM    2  N2  UNL     1      29.957  44.563   8.686  1.00  0.00    -0.184 N
ATOM      3  H2  UNL     1      29.445  43.980   9.349  1.00  0.00     0.185 HD
HETATM    4  C5  UNL     1      29.394  45.729   8.237  1.00  0.00     0.106 A
HETATM    5  S1  UNL     1      27.907  46.506   8.549  1.00  0.00    -0.073 SA
HETATM    6  C6  UNL     1      28.100  47.862   7.558  1.00  0.00     0.016 A
HETATM    7  C10 UNL     1      29.337  47.686   6.992  1.00  0.00     0.075 A
HETATM    8  C11 UNL     1      29.803  48.729   6.054  1.00  0.00     0.101 C
HETATM    9  N3  UNL     1      30.145  49.584   5.312  1.00  0.00    -0.191 NA
HETATM   10  C12 UNL     1      30.020  46.565   7.347  1.00  0.00     0.065 A
HETATM   11  C13 UNL     1      31.280  46.129   6.936  1.00  0.00     0.134 A
HETATM   12  N6  UNL     1      31.795  44.968   7.409  1.00  0.00    -0.176 N
ATOM     13  H6  UNL     1      32.720  44.688   7.083  1.00  0.00     0.186 HD
ENDROOT
BRANCH   6  14
HETATM   14  C7  UNL     1      27.106  48.984   7.361  1.00  0.00     0.121 C
BRANCH  14  15
HETATM   15  S2  UNL     1      25.429  48.351   7.396  1.00  0.00    -0.164 SA
BRANCH  15  16
HETATM   16  C8  UNL     1      24.266  49.662   7.008  1.00  0.00     0.069 C
HETATM   17  C9  UNL     1      22.822  49.238   7.064  1.00  0.00     0.016 C
ENDBRANCH  15  16
ENDBRANCH  14  15
ENDBRANCH   6  14
BRANCH  11  18
HETATM   18  N4  UNL     1      32.130  46.792   6.029  1.00  0.00    -0.363 N
HETATM   19  C14 UNL     1      32.076  46.489   4.621  1.00  0.00     0.152 C
HETATM   20  C15 UNL     1      33.506  46.147   4.204  1.00  0.00     0.252 C
HETATM   21  N5  UNL     1      34.384  47.265   4.437  1.00  0.00    -0.072 N
HETATM   22  C16 UNL     1      33.797  48.303   5.244  1.00  0.00     0.252 C
ATOM     23  H52 UNL     1      35.267  46.951   4.840  1.00  0.00     0.277 HD
ATOM     24  H51 UNL     1      34.726  47.645   3.554  1.00  0.00     0.277 HD
HETATM   25  C17 UNL     1      33.110  47.738   6.495  1.00  0.00     0.152 C
ENDBRANCH  11  18
BRANCH   1  26
HETATM   26  N1  UNL     1      31.719  43.087   8.673  1.00  0.00    -0.226 N
ATOM     27  H1  UNL     1      31.405  42.731   9.576  1.00  0.00     0.177 HD
BRANCH  26  28
HETATM   28  C3  UNL     1      32.716  42.321   8.002  1.00  0.00     0.137 C
BRANCH  28  29
HETATM   29  C2  UNL     1      33.853  41.973   8.956  1.00  0.00     0.016 C
HETATM   30  C1  UNL     1      34.837  43.089   9.107  1.00  0.00     0.006 C
ENDBRANCH  28  29
ENDBRANCH  26  28
ENDBRANCH   1  26
TORSDOF 7
ENDMDL