MODEL 1
REMARK VINA RESULT: -7.454272086      0.000      0.000
REMARK  6 active torsions:
REMARK  status: ('A' for Active; 'I' for Inactive)
REMARK    1  A    between atoms: C4_4  and  O1_5
REMARK    2  A    between atoms: O1_5  and  C5_6
REMARK    3  A    between atoms: C5_6  and  C6_7
REMARK    4  A    between atoms: C6_7  and  C7_8
REMARK    5  A    between atoms: C15_24  and  C16_25
REMARK    6  A    between atoms: C17_29  and  C18_30
ROOT
HETATM    1  C1  UNL     1      32.256  49.461   7.023  1.00  0.00     0.011 C
HETATM    2  C2  UNL     1      32.544  48.660   5.791  1.00  0.00    -0.005 C
HETATM    3  C3  UNL     1      33.708  47.727   6.068  1.00  0.00     0.037 C
HETATM    4  C4  UNL     1      34.165  47.197   4.705  1.00  0.00     0.121 C
HETATM    5  C13 UNL     1      33.039  46.313   4.208  1.00  0.00     0.033 C
HETATM    6  C14 UNL     1      31.800  46.412   5.035  1.00  0.00     0.015 C
HETATM    7  C15 UNL     1      31.387  47.842   5.309  1.00  0.00     0.059 C
ENDROOT
BRANCH   4   8
HETATM    8  O1  UNL     1      35.323  46.498   4.856  1.00  0.00    -0.386 OA
BRANCH   8   9
HETATM    9  C5  UNL     1      35.250  45.125   4.734  1.00  0.00     0.170 C
BRANCH   9  10
HETATM   10  C6  UNL     1      36.426  44.490   5.379  1.00  0.00     0.061 C
BRANCH  10  11
HETATM   11  C7  UNL     1      36.365  44.509   6.892  1.00  0.00     0.212 C
HETATM   12  C8  UNL     1      37.126  45.703   7.380  1.00  0.00     0.210 C
HETATM   13  O2  UNL     1      37.042  45.922   8.754  1.00  0.00    -0.332 OA
HETATM   14  C9  UNL     1      36.005  45.778   9.663  1.00  0.00     0.168 A
HETATM   15  N1  UNL     1      35.815  46.522  10.780  1.00  0.00    -0.331 N
HETATM   16  C11 UNL     1      34.994  44.867   9.602  1.00  0.00     0.087 A
HETATM   17  C10 UNL     1      34.705  46.094  11.415  1.00  0.00     0.182 A
ATOM     18  H1  UNL     1      36.417  47.285  11.092  1.00  0.00     0.168 HD
HETATM   19  N2  UNL     1      34.222  45.084  10.676  1.00  0.00    -0.351 N
ATOM     20  H2  UNL     1      33.382  44.553  10.901  1.00  0.00     0.166 HD
HETATM   21  C12 UNL     1      34.761  43.815   8.550  1.00  0.00     0.294 C
HETATM   22  N3  UNL     1      34.984  44.506   7.272  1.00  0.00    -0.063 N
ATOM     23  H32 UNL     1      34.605  45.453   7.294  1.00  0.00     0.278 HD
ATOM     24  H31 UNL     1      34.399  44.114   6.534  1.00  0.00     0.278 HD
ENDBRANCH  10  11
ENDBRANCH   9  10
ENDBRANCH   8   9
ENDBRANCH   4   8
BRANCH   7  25
HETATM   25  C16 UNL     1      30.280  47.852   6.296  1.00  0.00     0.108 A
HETATM   26  N4  UNL     1      29.164  48.608   6.304  1.00  0.00    -0.247 N
HETATM   27  O3  UNL     1      28.456  48.308   7.345  1.00  0.00    -0.222 OA
ATOM     28  H4  UNL     1      28.918  49.305   5.601  1.00  0.00     0.196 HD
HETATM   29  C17 UNL     1      29.046  47.371   8.053  1.00  0.00     0.152 A
HETATM   30  N5  UNL     1      30.186  47.087   7.398  1.00  0.00    -0.326 N
ATOM     31  H5  UNL     1      30.875  46.395   7.694  1.00  0.00     0.169 HD
BRANCH  29  32
HETATM   32  C18 UNL     1      28.547  46.755   9.324  1.00  0.00     0.063 A
HETATM   33  C19 UNL     1      27.528  45.658   9.142  1.00  0.00     0.013 A
HETATM   34  C20 UNL     1      28.888  45.333   9.625  1.00  0.00     0.013 A
ENDBRANCH  29  32
ENDBRANCH   7  25
TORSDOF 6
ENDMDL