MODEL 4
REMARK VINA RESULT: -6.316058938      2.461      7.827
REMARK  9 active torsions:
REMARK  status: ('A' for Active; 'I' for Inactive)
REMARK    1  A    between atoms: C2_2  and  C3_3
REMARK    2  A    between atoms: C3_3  and  N1_4
REMARK    3  A    between atoms: C6_7  and  C7_8
REMARK    4  A    between atoms: C8_9  and  O1_10
REMARK    5  A    between atoms: C11_14  and  O2_15
REMARK    6  A    between atoms: N2_17  and  C12_18
REMARK    7  A    between atoms: C13_20  and  C14_21
REMARK    8  A    between atoms: C14_21  and  O4_23
REMARK    9  A    between atoms: O4_23  and  C15_24
ROOT
HETATM    1  C7  UNL     1      31.115  45.581   8.005  1.00  0.00     0.069 A
HETATM    2  C8  UNL     1      29.968  45.278   8.720  1.00  0.00     0.091 A
HETATM    3  C9  UNL     1      28.912  46.132   8.757  1.00  0.00     0.024 A
HETATM    4  C10 UNL     1      27.699  45.745   9.529  1.00  0.00     0.056 C
HETATM    5  C11 UNL     1      28.929  47.347   8.082  1.00  0.00     0.159 A
HETATM    6  N2  UNL     1      30.024  47.664   7.389  1.00  0.00    -0.247 N
HETATM    7  C17 UNL     1      31.079  46.800   7.352  1.00  0.00     0.268 A
HETATM    8  O5  UNL     1      32.095  47.118   6.686  1.00  0.00    -0.267 OA
ENDROOT
BRANCH   1   9
HETATM    9  C6  UNL     1      32.333  44.745   8.141  1.00  0.00    -0.055 C
HETATM   10  C5  UNL     1      32.156  43.414   7.556  1.00  0.00     0.079 C
HETATM   11  C4  UNL     1      32.917  42.308   8.217  1.00  0.00     0.062 C
HETATM   12  N1  UNL     1      33.576  42.523   9.412  1.00  0.00    -0.389 N
HETATM   13  C19 UNL     1      33.376  43.705  10.175  1.00  0.00     0.126 C
HETATM   14  C18 UNL     1      33.069  44.940   9.394  1.00  0.00     0.055 C
BRANCH  12  15
HETATM   15  C3  UNL     1      34.946  42.040   9.488  1.00  0.00     0.148 C
BRANCH  15  16
HETATM   16  C2  UNL     1      34.991  40.644   9.962  1.00  0.00    -0.018 C
HETATM   17  C1  UNL     1      36.016  40.172  10.701  1.00  0.00     0.008 C
ENDBRANCH  15  16
ENDBRANCH  12  15
ENDBRANCH   1   9
BRANCH   2  18
HETATM   18  O1  UNL     1      29.889  44.092   9.407  1.00  0.00    -0.359 OA
ATOM     19  H1  UNL     1      29.113  43.896   9.919  1.00  0.00     0.217 HD
ENDBRANCH   2  18
BRANCH   6  20
HETATM   20  C12 UNL     1      30.162  48.949   6.792  1.00  0.00     0.120 C
HETATM   21 CL1  UNL     1      29.303  49.179   5.246  1.00  0.00    -0.064 Cl
HETATM   22  C13 UNL     1      30.843  49.965   7.199  1.00  0.00     0.125 C
BRANCH  22  23
HETATM   23  C14 UNL     1      30.912  51.229   6.516  1.00  0.00     0.285 C
HETATM   24  O3  UNL     1      30.182  52.222   6.872  1.00  0.00    -0.260 OA
BRANCH  23  25
HETATM   25  O4  UNL     1      31.771  51.444   5.456  1.00  0.00    -0.318 OA
BRANCH  25  26
HETATM   26  C15 UNL     1      33.043  50.844   5.390  1.00  0.00     0.174 C
HETATM   27  C16 UNL     1      33.068  49.813   4.274  1.00  0.00     0.034 C
ENDBRANCH  25  26
ENDBRANCH  23  25
ENDBRANCH  22  23
ENDBRANCH   6  20
BRANCH   5  28
HETATM   28  O2  UNL     1      27.798  48.132   8.183  1.00  0.00    -0.345 OA
ATOM     29  H2  UNL     1      27.898  48.975   8.609  1.00  0.00     0.219 HD
ENDBRANCH   5  28
TORSDOF 9
ENDMDL