MODEL 3
REMARK VINA RESULT: -6.965255140      1.882      2.783
REMARK  8 active torsions:
REMARK  status: ('A' for Active; 'I' for Inactive)
REMARK    1  A    between atoms: C1_2  and  C2_3
REMARK    2  A    between atoms: C1_2  and  C12_18
REMARK    3  A    between atoms: C2_3  and  C3_4
REMARK    4  A    between atoms: C3_4  and  N1_5
REMARK    5  A    between atoms: C4_6  and  O2_7
REMARK    6  A    between atoms: C7_11  and  O3_12
REMARK    7  A    between atoms: C12_18  and  C13_19
REMARK    8  A    between atoms: C12_18  and  N2_21
ROOT
HETATM    1  O1  UNL     1      35.682  46.959   6.216  1.00  0.00    -0.296 OA
HETATM    2  C1  UNL     1      35.578  47.283   7.383  1.00  0.00     0.154 C
ENDROOT
BRANCH   2   3
HETATM    3  C2  UNL     1      34.639  48.379   7.706  1.00  0.00     0.101 C
BRANCH   3   4
HETATM    4  C3  UNL     1      33.550  48.381   6.673  1.00  0.00     0.140 C
BRANCH   4   5
HETATM    5  N1  UNL     1      32.356  47.698   7.086  1.00  0.00    -0.307 N
HETATM    6  C4  UNL     1      32.005  46.408   6.955  1.00  0.00     0.151 A
HETATM    7  C5  UNL     1      30.766  46.181   7.496  1.00  0.00     0.004 A
HETATM    8  C6  UNL     1      30.334  47.400   7.985  1.00  0.00     0.004 A
HETATM    9  C11 UNL     1      29.838  45.035   7.674  1.00  0.00     0.044 C
HETATM   10  C7  UNL     1      31.337  48.308   7.715  1.00  0.00     0.151 A
HETATM   11  C8  UNL     1      29.002  47.438   8.630  1.00  0.00     0.044 C
HETATM   12  C9  UNL     1      28.696  46.247   9.482  1.00  0.00     0.005 C
HETATM   13  C10 UNL     1      29.474  45.017   9.153  1.00  0.00     0.005 C
BRANCH   6  14
HETATM   14  O2  UNL     1      32.783  45.445   6.361  1.00  0.00    -0.345 OA
ATOM     15  H2  UNL     1      32.523  44.935   5.601  1.00  0.00     0.219 HD
ENDBRANCH   6  14
BRANCH  10  16
HETATM   16  O3  UNL     1      31.243  49.655   8.072  1.00  0.00    -0.345 OA
ATOM     17  H3  UNL     1      30.856  50.361   7.567  1.00  0.00     0.219 HD
ENDBRANCH  10  16
ENDBRANCH   4   5
ENDBRANCH   3   4
ENDBRANCH   2   3
BRANCH   2  18
HETATM   18  C12 UNL     1      36.395  46.561   8.400  1.00  0.00     0.192 C
BRANCH  18  19
HETATM   19  C13 UNL     1      37.816  46.899   8.152  1.00  0.00     0.149 C
HETATM   20 CL1  UNL     1      38.080  48.671   8.045  1.00  0.00    -0.128 Cl
ENDBRANCH  18  19
BRANCH  18  21
HETATM   21  N2  UNL     1      36.022  45.210   8.426  1.00  0.00    -0.267 N
HETATM   22  N3  UNL     1      36.745  44.262   7.853  1.00  0.00    -0.239 N
HETATM   23  N4  UNL     1      36.201  43.100   8.014  1.00  0.00    -0.288 N
ATOM     24  H3  UNL     1      37.617  44.426   7.351  1.00  0.00     0.208 HD
HETATM   25  C14 UNL     1      35.075  43.280   8.720  1.00  0.00     0.051 A
ATOM     26  H4  UNL     1      36.562  42.211   7.669  1.00  0.00     0.188 HD
HETATM   27  C15 UNL     1      34.933  44.618   9.000  1.00  0.00     0.055 A
HETATM   28  C19 UNL     1      34.052  42.319   9.201  1.00  0.00     0.061 C
HETATM   29  C16 UNL     1      33.850  45.244   9.745  1.00  0.00     0.061 C
HETATM   30  C17 UNL     1      32.874  44.160  10.235  1.00  0.00     0.006 C
HETATM   31  C18 UNL     1      32.734  43.061   9.215  1.00  0.00     0.006 C
ENDBRANCH  18  21
ENDBRANCH   2  18
TORSDOF 8
ENDMDL