MODEL 2
REMARK VINA RESULT: -5.477506833      2.577      6.081
REMARK  11 active torsions:
REMARK  status: ('A' for Active; 'I' for Inactive)
REMARK    1  A    between atoms: C2_2  and  C16_26
REMARK    2  A    between atoms: N1_3  and  O1_5
REMARK    3  A    between atoms: O1_5  and  C3_6
REMARK    4  A    between atoms: C3_6  and  C4_8
REMARK    5  A    between atoms: C4_8  and  C5_9
REMARK    6  A    between atoms: C4_8  and  N2_17
REMARK    7  A    between atoms: C5_9  and  O2_10
REMARK    8  A    between atoms: O2_10  and  C6_11
REMARK    9  A    between atoms: C6_11  and  C7_13
REMARK       I    between atoms: N2_17  and  C11_19
REMARK   10  A    between atoms: C11_19  and  O5_21
REMARK   11  A    between atoms: O5_21  and  C12_22
ROOT
HETATM    1  C4  UNL     1      30.140  45.961   8.212  1.00  0.00     0.061 C
ENDROOT
BRANCH   1   2
HETATM    2  C3  UNL     1      29.241  46.623   9.166  1.00  0.00     0.295 C
HETATM    3 CL1  UNL     1      27.749  45.555   9.279  1.00  0.00    -0.086 Cl
BRANCH   2   4
HETATM    4  O1  UNL     1      28.744  47.848   8.633  1.00  0.00    -0.253 OA
BRANCH   4   5
HETATM    5  N1  UNL     1      27.444  47.903   8.298  1.00  0.00    -0.263 N
HETATM    6  C2  UNL     1      26.890  48.672   7.441  1.00  0.00     0.104 C
HETATM    7  C1  UNL     1      25.407  48.519   7.267  1.00  0.00     0.078 C
ATOM      8  H1  UNL     1      26.827  47.253   8.785  1.00  0.00     0.194 HD
BRANCH   6   9
HETATM    9  C16 UNL     1      27.646  49.639   6.673  1.00  0.00     0.224 C
HETATM   10  O6  UNL     1      27.424  50.854   6.798  1.00  0.00    -0.643 OA
HETATM   11  O7  UNL     1      28.627  49.168   5.796  1.00  0.00    -0.643 OA
ENDBRANCH   6   9
ENDBRANCH   4   5
ENDBRANCH   2   4
ENDBRANCH   1   2
BRANCH   1  12
HETATM   12  C5  UNL     1      30.505  46.622   6.933  1.00  0.00     0.235 C
BRANCH  12  13
HETATM   13  O2  UNL     1      31.655  47.309   6.797  1.00  0.00    -0.315 OA
BRANCH  13  14
HETATM   14  C6  UNL     1      32.358  48.143   7.585  1.00  0.00     0.266 C
HETATM   15  O3  UNL     1      31.740  49.075   8.149  1.00  0.00    -0.264 OA
BRANCH  14  16
HETATM   16  C7  UNL     1      33.841  48.007   7.815  1.00  0.00     0.037 C
HETATM   17  C8  UNL     1      34.348  46.852   6.979  1.00  0.00     0.025 C
HETATM   18  C9  UNL     1      34.175  47.752   9.250  1.00  0.00     0.025 C
HETATM   19  C10 UNL     1      34.559  49.253   7.328  1.00  0.00     0.025 C
ENDBRANCH  14  16
ENDBRANCH  13  14
ENDBRANCH  12  13
ENDBRANCH   1  12
BRANCH   1  20
HETATM   20  N2  UNL     1      31.307  45.348   8.854  1.00  0.00    -0.304 N
HETATM   21  C11 UNL     1      31.429  43.962   9.111  1.00  0.00     0.365 C
HETATM   22  O4  UNL     1      30.480  43.212   8.769  1.00  0.00    -0.238 OA
ATOM     23  H2  UNL     1      32.076  45.957   9.131  1.00  0.00     0.171 HD
BRANCH  21  24
HETATM   24  O5  UNL     1      32.511  43.380   9.707  1.00  0.00    -0.294 OA
BRANCH  24  25
HETATM   25  C12 UNL     1      33.731  43.071   9.116  1.00  0.00     0.061 C
HETATM   26  C13 UNL     1      34.779  44.062   9.637  1.00  0.00     0.046 C
HETATM   27  C14 UNL     1      34.244  41.694   9.478  1.00  0.00     0.046 C
HETATM   28  C15 UNL     1      33.713  43.177   7.625  1.00  0.00     0.046 C
ENDBRANCH  24  25
ENDBRANCH  21  24
ENDBRANCH   1  20
TORSDOF 11
ENDMDL