MODEL 4
REMARK VINA RESULT: -6.355664661      1.268      1.688
REMARK  10 active torsions:
REMARK  status: ('A' for Active; 'I' for Inactive)
REMARK    1  A    between atoms: C3_4  and  C4_5
REMARK    2  A    between atoms: C4_5  and  N2_6
REMARK    3  A    between atoms: N2_6  and  C5_8
REMARK    4  A    between atoms: C7_14  and  C8_15
REMARK    5  A    between atoms: C8_15  and  N5_16
REMARK    6  A    between atoms: N5_16  and  N6_18
REMARK    7  A    between atoms: C9_20  and  C10_21
REMARK    8  A    between atoms: C13_24  and  N7_25
REMARK    9  A    between atoms: N7_25  and  C14_27
REMARK   10  A    between atoms: C22_46  and  O2_47
ROOT
HETATM    1  C5  UNL     1     -10.662   8.385  28.637  1.00  0.00     0.684 A
HETATM    2  N3  UNL     1     -10.965   7.846  29.819  1.00  0.00    -0.174 N
ATOM      3  H3  UNL     1     -10.314   7.201  30.265  1.00  0.00     0.186 HD
HETATM    4  C6  UNL     1     -12.145   8.158  30.435  1.00  0.00     0.155 A
HETATM    5  N4  UNL     1     -12.698   7.766  31.605  1.00  0.00    -0.328 N
ATOM      6  H4  UNL     1     -12.269   7.117  32.264  1.00  0.00     0.169 HD
HETATM    7  C7  UNL     1     -13.893   8.354  31.773  1.00  0.00     0.103 A
HETATM    8  N11 UNL     1     -14.086   9.124  30.689  1.00  0.00    -0.337 N
ATOM      9  H11 UNL     1     -14.910   9.701  30.524  1.00  0.00     0.167 HD
HETATM   10  C19 UNL     1     -13.041   9.026  29.856  1.00  0.00     0.148 A
HETATM   11  C20 UNL     1     -12.704   9.568  28.636  1.00  0.00     0.292 A
HETATM   12  O1  UNL     1     -13.511  10.360  28.099  1.00  0.00    -0.265 OA
HETATM   13  N12 UNL     1     -11.537   9.231  28.072  1.00  0.00    -0.150 N
HETATM   14  C21 UNL     1     -11.205   9.813  26.790  1.00  0.00     0.179 C
ENDROOT
BRANCH   7  15
HETATM   15  C8  UNL     1     -14.837   8.185  32.937  1.00  0.00     0.215 C
BRANCH  15  16
HETATM   16  N5  UNL     1     -14.254   7.169  33.791  1.00  0.00    -0.330 N
ATOM     17  H5  UNL     1     -14.254   6.209  33.445  1.00  0.00     0.180 HD
BRANCH  16  18
HETATM   18  N6  UNL     1     -13.713   7.389  35.002  1.00  0.00    -0.315 N
HETATM   19  C9  UNL     1     -12.865   8.125  35.522  1.00  0.00     0.118 C
ATOM     20  H6  UNL     1     -14.122   6.764  35.697  1.00  0.00     0.185 HD
BRANCH  19  21
HETATM   21  C10 UNL     1     -12.027   9.158  34.962  1.00  0.00    -0.019 A
HETATM   22  C11 UNL     1     -10.796   8.853  34.454  1.00  0.00     0.015 A
HETATM   23  C12 UNL     1      -9.979   9.857  33.909  1.00  0.00     0.031 A
HETATM   24  C13 UNL     1     -10.395  11.156  33.875  1.00  0.00     0.049 A
HETATM   25  C17 UNL     1     -11.648  11.464  34.392  1.00  0.00     0.031 A
HETATM   26  C18 UNL     1     -12.438  10.475  34.923  1.00  0.00     0.015 A
BRANCH  24  27
HETATM   27  N7  UNL     1      -9.557  12.160  33.322  1.00  0.00    -0.192 N
ATOM     28  H7  UNL     1      -9.080  12.806  33.952  1.00  0.00     0.184 HD
BRANCH  27  29
HETATM   29  C14 UNL     1      -9.358  12.294  31.911  1.00  0.00     0.677 C
HETATM   30  N8  UNL     1      -8.235  12.004  31.358  1.00  0.00    -0.202 N
HETATM   31  C15 UNL     1      -8.066  12.151  29.929  1.00  0.00     0.373 C
ATOM     32  H8  UNL     1      -7.460  11.669  31.930  1.00  0.00     0.179 HD
HETATM   33  N9  UNL     1      -9.256  11.731  29.249  1.00  0.00    -0.043 N
HETATM   34  C16 UNL     1     -10.442  12.387  29.699  1.00  0.00     0.373 C
ATOM     35  H92 UNL     1      -9.149  11.837  28.240  1.00  0.00     0.281 HD
ATOM     36  H91 UNL     1      -9.363  10.719  29.305  1.00  0.00     0.281 HD
HETATM   37  N10 UNL     1     -10.420  12.760  31.093  1.00  0.00    -0.202 N
ATOM     38  H10 UNL     1     -11.155  13.349  31.484  1.00  0.00     0.179 HD
ENDBRANCH  27  29
ENDBRANCH  24  27
ENDBRANCH  19  21
ENDBRANCH  16  18
ENDBRANCH  15  16
ENDBRANCH   7  15
BRANCH   1  39
HETATM   39  N2  UNL     1      -9.580   8.128  28.014  1.00  0.00    -0.221 N
ATOM     40  H2  UNL     1      -9.616   7.826  27.040  1.00  0.00     0.178 HD
BRANCH  39  41
HETATM   41  C4  UNL     1      -8.311   8.261  28.669  1.00  0.00     0.182 C
BRANCH  41  42
HETATM   42  C3  UNL     1      -7.480   7.053  28.577  1.00  0.00     0.029 A
HETATM   43  C2  UNL     1      -6.150   6.952  28.232  1.00  0.00     0.122 A
HETATM   44  N1  UNL     1      -5.793   5.654  28.271  1.00  0.00    -0.305 N
HETATM   45  C1  UNL     1      -4.466   5.112  27.970  1.00  0.00     0.177 C
HETATM   46  N13 UNL     1      -6.868   4.954  28.631  1.00  0.00    -0.278 N
HETATM   47  C22 UNL     1      -7.926   5.775  28.830  1.00  0.00     0.164 A
ATOM     48  H13 UNL     1      -6.889   3.941  28.742  1.00  0.00     0.189 HD
BRANCH  47  49
HETATM   49  O2  UNL     1      -9.206   5.387  29.214  1.00  0.00    -0.345 OA
ATOM     50  H2  UNL     1      -9.443   4.678  29.801  1.00  0.00     0.219 HD
ENDBRANCH  47  49
ENDBRANCH  41  42
ENDBRANCH  39  41
ENDBRANCH   1  39
TORSDOF 10
ENDMDL