MODEL 4
REMARK VINA RESULT: -5.348652212      2.356      4.036
REMARK  12 active torsions:
REMARK  status: ('A' for Active; 'I' for Inactive)
REMARK       I    between atoms: C2_2  and  N1_4
REMARK    1  A    between atoms: N1_4  and  C3_6
REMARK    2  A    between atoms: C4_7  and  C5_8
REMARK    3  A    between atoms: C9_22  and  C10_23
REMARK    4  A    between atoms: C10_23  and  O3_24
REMARK    5  A    between atoms: O3_24  and  C11_25
REMARK    6  A    between atoms: C11_25  and  C12_27
REMARK    7  A    between atoms: C12_27  and  S1_28
REMARK    8  A    between atoms: S1_28  and  C13_29
REMARK    9  A    between atoms: C14_34  and  C15_35
REMARK   10  A    between atoms: C15_35  and  N9_37
REMARK   11  A    between atoms: C15_35  and  N10_41
REMARK   12  A    between atoms: N10_41  and  O5_42
ROOT
HETATM    1  C5  UNL     1     -10.203   7.093  29.429  1.00  0.00     0.150 A
HETATM    2  N2  UNL     1     -10.066   6.125  28.533  1.00  0.00    -0.281 N
ATOM      3  H2  UNL     1     -10.878   5.856  27.977  1.00  0.00     0.188 HD
HETATM    4  N3  UNL     1      -8.920   5.492  28.332  1.00  0.00    -0.262 N
ATOM      5  H3  UNL     1      -8.878   4.756  27.627  1.00  0.00     0.190 HD
HETATM    6  C6  UNL     1      -7.811   5.794  29.029  1.00  0.00     0.297 A
HETATM    7  O2  UNL     1      -6.700   5.199  28.854  1.00  0.00    -0.263 OA
HETATM    8  C7  UNL     1      -7.907   6.802  29.979  1.00  0.00     0.185 A
HETATM    9  C8  UNL     1      -6.735   7.168  30.765  1.00  0.00     0.123 C
HETATM   10  N4  UNL     1      -5.807   7.458  31.401  1.00  0.00    -0.190 NA
HETATM   11  N5  UNL     1      -9.080   7.413  30.148  1.00  0.00    -0.326 N
ATOM     12  H5  UNL     1      -9.146   8.153  30.847  1.00  0.00     0.168 HD
ENDROOT
BRANCH   1  13
HETATM   13  C4  UNL     1     -11.458   7.776  29.696  1.00  0.00     0.110 A
HETATM   14  C3  UNL     1     -11.785   8.927  29.063  1.00  0.00     0.116 A
HETATM   15  C18 UNL     1     -13.017   9.562  29.317  1.00  0.00     0.203 A
HETATM   16  C17 UNL     1     -13.916   8.996  30.231  1.00  0.00     0.088 A
HETATM   17  O6  UNL     1     -13.323  10.621  28.738  1.00  0.00    -0.286 OA
HETATM   18  C9  UNL     1     -13.562   7.844  30.846  1.00  0.00     0.059 A
HETATM   19  N6  UNL     1     -12.340   7.259  30.566  1.00  0.00    -0.350 N
ATOM     20  H6  UNL     1     -12.097   6.392  31.044  1.00  0.00     0.166 HD
BRANCH  14  21
HETATM   21  N1  UNL     1     -10.933   9.543  28.089  1.00  0.00    -0.322 N
HETATM   22  C2  UNL     1      -9.919  10.437  28.550  1.00  0.00     0.218 C
HETATM   23  C1  UNL     1      -9.042  11.066  27.540  1.00  0.00     0.117 C
HETATM   24  O1  UNL     1      -9.778  10.681  29.763  1.00  0.00    -0.274 OA
ATOM     25  H1  UNL     1     -11.046   9.348  27.094  1.00  0.00     0.169 HD
ENDBRANCH  14  21
BRANCH  18  26
HETATM   26  C10 UNL     1     -14.387   7.111  31.813  1.00  0.00     0.175 C
BRANCH  26  27
HETATM   27  O3  UNL     1     -15.657   7.370  32.065  1.00  0.00    -0.288 OA
BRANCH  27  28
HETATM   28  C11 UNL     1     -16.489   7.371  33.135  1.00  0.00     0.273 C
HETATM   29  O4  UNL     1     -17.092   6.359  33.501  1.00  0.00    -0.264 OA
BRANCH  28  30
HETATM   30  C12 UNL     1     -16.650   8.670  33.859  1.00  0.00     0.193 C
BRANCH  30  31
HETATM   31  S1  UNL     1     -15.626   8.825  35.318  1.00  0.00    -0.083 SA
BRANCH  31  32
HETATM   32  C13 UNL     1     -13.902   8.762  34.895  1.00  0.00     0.161 A
HETATM   33  N7  UNL     1     -13.007   7.801  35.291  1.00  0.00    -0.278 N
HETATM   34  N8  UNL     1     -11.810   8.049  34.806  1.00  0.00    -0.284 N
ATOM     35  H7  UNL     1     -13.239   7.002  35.881  1.00  0.00     0.189 HD
HETATM   36  C14 UNL     1     -11.871   9.165  34.083  1.00  0.00     0.153 A
ATOM     37  H8  UNL     1     -10.975   7.482  34.958  1.00  0.00     0.188 HD
HETATM   38  N11 UNL     1     -13.154   9.589  34.150  1.00  0.00    -0.321 N
ATOM     39  H11 UNL     1     -13.507  10.429  33.691  1.00  0.00     0.169 HD
BRANCH  36  40
HETATM   40  C15 UNL     1     -10.801   9.882  33.300  1.00  0.00     0.273 C
HETATM   41  C16 UNL     1      -9.971  10.605  34.357  1.00  0.00     0.077 C
BRANCH  40  42
HETATM   42  N9  UNL     1     -11.404  10.824  32.388  1.00  0.00    -0.047 N
ATOM     43  H93 UNL     1     -12.242  11.253  32.781  1.00  0.00     0.277 HD
ATOM     44  H92 UNL     1     -10.840  11.668  32.282  1.00  0.00     0.277 HD
ATOM     45  H91 UNL     1     -11.590  10.373  31.493  1.00  0.00     0.277 HD
ENDBRANCH  40  42
BRANCH  40  46
HETATM   46  N10 UNL     1     -10.016   8.936  32.541  1.00  0.00    -0.056 NA
BRANCH  46  47
HETATM   47  O5  UNL     1      -8.847   9.525  32.205  1.00  0.00    -0.293 OA
ATOM     48  H5  UNL     1      -9.032  10.403  31.893  1.00  0.00     0.238 HD
ENDBRANCH  46  47
ENDBRANCH  40  46
ENDBRANCH  36  40
ENDBRANCH  31  32
ENDBRANCH  30  31
ENDBRANCH  28  30
ENDBRANCH  27  28
ENDBRANCH  26  27
ENDBRANCH  18  26
ENDBRANCH   1  13
TORSDOF 12
ENDMDL