MODEL 1
REMARK VINA RESULT: -5.275190166      0.000      0.000
REMARK  10 active torsions:
REMARK  status: ('A' for Active; 'I' for Inactive)
REMARK    1  A    between atoms: O1_2  and  N1_3
REMARK    2  A    between atoms: C2_5  and  C3_6
REMARK    3  A    between atoms: C2_5  and  C6_15
REMARK    4  A    between atoms: C5_9  and  N2_10
REMARK    5  A    between atoms: C6_15  and  N4_16
REMARK    6  A    between atoms: C6_15  and  C17_39
REMARK    7  A    between atoms: N4_16  and  C7_18
REMARK    8  A    between atoms: C7_18  and  C9_20
REMARK       I    between atoms: C9_20  and  N5_22
REMARK    9  A    between atoms: N8_29  and  N9_30
REMARK   10  A    between atoms: C13_33  and  C14_34
ROOT
HETATM    1  N4  UNL     1      -8.510  12.764  30.516  1.00  0.00    -0.395 N
ATOM      2  H4  UNL     1      -7.584  13.171  30.382  1.00  0.00     0.155 HD
ENDROOT
BRANCH   1   3
HETATM    3  C6  UNL     1      -9.396  12.627  29.429  1.00  0.00     0.184 C
BRANCH   3   4
HETATM    4  C2  UNL     1      -8.759  11.800  28.364  1.00  0.00     0.087 C
HETATM    5  N1  UNL     1      -7.556  12.076  28.092  1.00  0.00    -0.267 N
ATOM      6  H1  UNL     1      -7.177  12.848  28.640  1.00  0.00     0.194 HD
BRANCH   5   7
HETATM    7  O1  UNL     1      -6.693  11.554  27.232  1.00  0.00    -0.285 OA
HETATM    8  C1  UNL     1      -5.277  11.685  27.351  1.00  0.00     0.237 C
ENDBRANCH   5   7
BRANCH   4   9
HETATM    9  C3  UNL     1      -9.544  10.705  27.698  1.00  0.00     0.068 A
HETATM   10  C4  UNL     1     -10.852  10.497  28.085  1.00  0.00     0.085 A
HETATM   11  S1  UNL     1     -11.339   9.183  27.105  1.00  0.00    -0.064 SA
HETATM   12  C5  UNL     1      -9.885   8.965  26.263  1.00  0.00     0.142 A
HETATM   13  N3  UNL     1      -9.086   9.897  26.760  1.00  0.00    -0.335 N
ATOM     14  H3  UNL     1      -8.128   9.989  26.422  1.00  0.00     0.168 HD
BRANCH  12  15
HETATM   15  N2  UNL     1      -9.597   8.076  25.325  1.00  0.00    -0.380 N
ATOM     16  H22 UNL     1      -9.463   7.072  25.444  1.00  0.00     0.158 HD
ATOM     17  H21 UNL     1      -9.458   8.227  24.326  1.00  0.00     0.158 HD
ENDBRANCH  12  15
ENDBRANCH   4   9
ENDBRANCH   3   4
BRANCH   3  18
HETATM   18  C17 UNL     1      -9.713  13.963  28.791  1.00  0.00     0.056 A
HETATM   19  C18 UNL     1      -8.750  14.878  28.419  1.00  0.00     0.116 A
HETATM   20  N11 UNL     1      -9.394  15.923  27.887  1.00  0.00    -0.360 N
HETATM   21  C19 UNL     1     -10.708  15.682  27.922  1.00  0.00     0.182 A
ATOM     22  H11 UNL     1      -8.955  16.766  27.517  1.00  0.00     0.166 HD
HETATM   23  N12 UNL     1     -10.896  14.463  28.484  1.00  0.00    -0.348 N
HETATM   24  C20 UNL     1     -12.194  13.833  28.690  1.00  0.00     0.157 C
ENDBRANCH   3  18
ENDBRANCH   1   3
BRANCH   1  25
HETATM   25  C7  UNL     1      -8.923  12.332  31.793  1.00  0.00     0.166 C
HETATM   26  C8  UNL     1     -10.374  12.435  32.111  1.00  0.00     0.042 C
BRANCH  25  27
HETATM   27  C9  UNL     1      -8.471  10.926  32.041  1.00  0.00     0.244 C
HETATM   28  O2  UNL     1      -7.401  10.772  32.726  1.00  0.00    -0.271 OA
HETATM   29  N5  UNL     1      -9.126   9.802  31.586  1.00  0.00    -0.322 N
HETATM   30  C10 UNL     1      -8.870   8.903  30.756  1.00  0.00     0.089 A
ATOM     31  H5  UNL     1     -10.033   9.673  32.033  1.00  0.00     0.169 HD
HETATM   32  C11 UNL     1      -9.844   7.901  30.584  1.00  0.00     0.118 A
HETATM   33  C16 UNL     1      -7.751   8.748  29.972  1.00  0.00     0.107 A
HETATM   34  N6  UNL     1     -11.039   7.975  31.352  1.00  0.00    -0.096 NA
HETATM   35  C12 UNL     1      -9.701   6.866  29.720  1.00  0.00     0.164 A
HETATM   36  N7  UNL     1     -10.714   5.864  29.569  1.00  0.00    -0.079 NA
HETATM   37  N8  UNL     1      -8.571   6.755  28.960  1.00  0.00    -0.241 N
HETATM   38  C13 UNL     1      -7.610   7.687  29.088  1.00  0.00     0.129 A
HETATM   39  N10 UNL     1      -6.703   9.691  30.058  1.00  0.00    -0.097 NA
BRANCH  37  40
HETATM   40  N9  UNL     1      -8.494   5.663  28.093  1.00  0.00    -0.337 N
ATOM     41  H92 UNL     1      -9.088   4.837  28.158  1.00  0.00     0.177 HD
ATOM     42  H91 UNL     1      -7.795   5.709  27.351  1.00  0.00     0.177 HD
ENDBRANCH  37  40
BRANCH  38  43
HETATM   43  C14 UNL     1      -6.390   7.616  28.303  1.00  0.00     0.176 C
HETATM   44  C15 UNL     1      -5.109   7.039  28.768  1.00  0.00     0.098 C
HETATM   45  O3  UNL     1      -6.375   8.076  27.106  1.00  0.00    -0.291 OA
ENDBRANCH  38  43
ENDBRANCH  25  27
ENDBRANCH   1  25
TORSDOF 10
ENDMDL