MODEL 2
REMARK VINA RESULT: -6.136785804      0.984      1.508
REMARK  11 active torsions:
REMARK  status: ('A' for Active; 'I' for Inactive)
REMARK    1  A    between atoms: N1_1  and  C1_4
REMARK    2  A    between atoms: C3_8  and  C4_9
REMARK    3  A    between atoms: N3_10  and  N4_12
REMARK    4  A    between atoms: N4_12  and  C5_14
REMARK    5  A    between atoms: C8_17  and  S1_18
REMARK    6  A    between atoms: S1_18  and  N5_21
REMARK    7  A    between atoms: C11_28  and  C12_29
REMARK    8  A    between atoms: C12_29  and  O4_30
REMARK    9  A    between atoms: C12_29  and  O5_32
REMARK   10  A    between atoms: C14_35  and  N8_36
REMARK   11  A    between atoms: C16_40  and  N9_41
ROOT
HETATM    1  C5  UNL     1      -9.282  10.595  33.625  1.00  0.00     0.081 A
HETATM    2  C6  UNL     1      -9.455   9.243  33.901  1.00  0.00     0.035 A
HETATM    3  C7  UNL     1     -10.680   8.709  34.282  1.00  0.00     0.027 A
HETATM    4  C8  UNL     1     -11.777   9.531  34.396  1.00  0.00     0.077 A
HETATM    5  C13 UNL     1     -11.588  10.874  34.117  1.00  0.00     0.063 A
HETATM    6  C14 UNL     1     -10.378  11.418  33.738  1.00  0.00     0.132 A
ENDROOT
BRANCH   1   7
HETATM    7  N4  UNL     1      -7.997  11.088  33.233  1.00  0.00    -0.299 N
ATOM      8  H4  UNL     1      -7.278  11.169  33.952  1.00  0.00     0.187 HD
BRANCH   7   9
HETATM    9  N3  UNL     1      -7.674  11.454  31.969  1.00  0.00    -0.311 N
HETATM   10  C4  UNL     1      -7.462  10.863  30.883  1.00  0.00     0.120 C
ATOM     11  H3  UNL     1      -7.578  12.465  31.877  1.00  0.00     0.186 HD
BRANCH  10  12
HETATM   12  C3  UNL     1      -7.506   9.435  30.620  1.00  0.00    -0.001 A
HETATM   13  C2  UNL     1      -6.386   8.696  31.030  1.00  0.00     0.102 A
HETATM   14  N2  UNL     1      -6.309   7.373  30.843  1.00  0.00    -0.350 N
HETATM   15  C1  UNL     1      -7.303   6.715  30.257  1.00  0.00     0.132 A
ATOM     16  H2  UNL     1      -5.480   6.866  31.153  1.00  0.00     0.166 HD
HETATM   17  C16 UNL     1      -8.429   7.367  29.831  1.00  0.00     0.147 A
HETATM   18  C15 UNL     1      -8.519   8.753  30.021  1.00  0.00     0.054 A
BRANCH  15  19
HETATM   19  N1  UNL     1      -7.228   5.434  30.077  1.00  0.00    -0.383 N
ATOM     20  H12 UNL     1      -7.617   4.820  30.793  1.00  0.00     0.157 HD
ATOM     21  H11 UNL     1      -6.788   5.054  29.239  1.00  0.00     0.157 HD
ENDBRANCH  15  19
BRANCH  17  22
HETATM   22  N9  UNL     1      -9.484   6.667  29.207  1.00  0.00    -0.112 N
HETATM   23  O8  UNL     1     -10.463   6.266  29.843  1.00  0.00    -0.532 OA
HETATM   24  O9  UNL     1      -9.417   6.423  27.861  1.00  0.00    -0.532 OA
ENDBRANCH  17  22
ENDBRANCH  10  12
ENDBRANCH   7   9
ENDBRANCH   1   7
BRANCH   6  25
HETATM   25  N8  UNL     1     -10.218  12.799  33.452  1.00  0.00    -0.113 N
HETATM   26  O6  UNL     1     -10.002  13.690  34.273  1.00  0.00    -0.532 OA
HETATM   27  O7  UNL     1     -10.321  13.146  32.105  1.00  0.00    -0.532 OA
ENDBRANCH   6  25
BRANCH   4  28
HETATM   28  S1  UNL     1     -13.354   8.940  34.870  1.00  0.00     0.245 S
HETATM   29  O1  UNL     1     -13.837   9.844  35.988  1.00  0.00    -0.206 OA
HETATM   30  O2  UNL     1     -13.150   7.575  35.500  1.00  0.00    -0.206 OA
BRANCH  28  31
HETATM   31  N5  UNL     1     -14.470   8.922  33.587  1.00  0.00    -0.172 NA
HETATM   32  C9  UNL     1     -15.796   8.895  34.083  1.00  0.00     0.243 C
HETATM   33  N6  UNL     1     -16.387   7.571  34.127  1.00  0.00    -0.123 NA
HETATM   34  N7  UNL     1     -16.469   7.079  32.823  1.00  0.00    -0.271 N
HETATM   35  C10 UNL     1     -15.480   7.565  31.924  1.00  0.00     0.257 C
ATOM     36  H7  UNL     1     -17.189   6.415  32.535  1.00  0.00     0.185 HD
HETATM   37  O3  UNL     1     -15.695   7.614  30.686  1.00  0.00    -0.270 OA
HETATM   38  C11 UNL     1     -14.202   8.000  32.539  1.00  0.00     0.223 C
BRANCH  38  39
HETATM   39  C12 UNL     1     -13.231   8.527  31.514  1.00  0.00     0.281 C
BRANCH  39  40
HETATM   40  O4  UNL     1     -12.995   7.550  30.549  1.00  0.00    -0.369 OA
ATOM     41  H4  UNL     1     -12.313   7.845  29.956  1.00  0.00     0.212 HD
ENDBRANCH  39  40
BRANCH  39  42
HETATM   42  O5  UNL     1     -13.749   9.641  30.838  1.00  0.00    -0.369 OA
ATOM     43  H5  UNL     1     -13.111  10.343  30.783  1.00  0.00     0.212 HD
ENDBRANCH  39  42
ENDBRANCH  38  39
ENDBRANCH  28  31
ENDBRANCH   4  28
TORSDOF 11
ENDMDL