MODEL 4
REMARK VINA RESULT: -5.060619790      3.781      7.956
REMARK  14 active torsions:
REMARK  status: ('A' for Active; 'I' for Inactive)
REMARK    1  A    between atoms: N1_2  and  C2_3
REMARK    2  A    between atoms: N1_2  and  N9_32
REMARK    3  A    between atoms: C2_3  and  C3_4
REMARK    4  A    between atoms: C3_4  and  N2_5
REMARK    5  A    between atoms: N2_5  and  C4_7
REMARK    6  A    between atoms: C7_12  and  N5_13
REMARK    7  A    between atoms: N5_13  and  C8_15
REMARK    8  A    between atoms: C8_15  and  N6_17
REMARK    9  A    between atoms: N6_17  and  C9_19
REMARK   10  A    between atoms: C12_22  and  N7_23
REMARK   11  A    between atoms: C17_34  and  O4_35
REMARK   12  A    between atoms: C17_34  and  C18_37
REMARK   13  A    between atoms: C18_37  and  N10_38
REMARK   14  A    between atoms: C18_37  and  C19_42
ROOT
HETATM    1  C4  UNL     1      -9.359   9.103  30.817  1.00  0.00     0.689 A
HETATM    2  N3  UNL     1      -9.645   7.942  30.105  1.00  0.00    -0.172 N
HETATM    3  C5  UNL     1     -10.841   7.210  30.493  1.00  0.00     0.177 C
HETATM    4  C6  UNL     1      -8.898   7.487  29.120  1.00  0.00     0.166 A
HETATM    5  N4  UNL     1      -9.218   6.278  28.397  1.00  0.00    -0.079 NA
HETATM    6  C7  UNL     1      -7.783   8.187  28.771  1.00  0.00     0.146 A
HETATM    7  C15 UNL     1      -7.480   9.334  29.456  1.00  0.00     0.291 A
HETATM    8  O3  UNL     1      -6.441  10.025  29.164  1.00  0.00    -0.265 OA
HETATM    9  N8  UNL     1      -8.258   9.791  30.469  1.00  0.00    -0.149 N
HETATM   10  C16 UNL     1      -7.859  11.033  31.153  1.00  0.00     0.179 C
ENDROOT
BRANCH   1  11
HETATM   11  N2  UNL     1     -10.122   9.448  31.725  1.00  0.00    -0.203 N
ATOM     12  H2  UNL     1     -11.052   9.414  31.309  1.00  0.00     0.183 HD
BRANCH  11  13
HETATM   13  C3  UNL     1     -10.331   9.848  33.000  1.00  0.00     0.100 C
BRANCH  13  14
HETATM   14  C2  UNL     1     -10.848   8.763  33.945  1.00  0.00     0.187 C
BRANCH  14  15
HETATM   15  N1  UNL     1     -12.253   8.965  34.155  1.00  0.00    -0.326 N
HETATM   16  C1  UNL     1     -12.692  10.077  34.956  1.00  0.00     0.171 C
BRANCH  15  17
HETATM   17  N9  UNL     1     -13.183   8.106  33.599  1.00  0.00    -0.284 N
HETATM   18  C17 UNL     1     -13.730   8.314  32.443  1.00  0.00     0.168 C
ATOM     19  H9  UNL     1     -13.450   7.272  34.121  1.00  0.00     0.188 HD
BRANCH  18  20
HETATM   20  O4  UNL     1     -13.416   9.435  31.668  1.00  0.00    -0.346 OA
ATOM     21  H4  UNL     1     -14.066  10.093  31.451  1.00  0.00     0.219 HD
ENDBRANCH  18  20
BRANCH  18  22
HETATM   22  C18 UNL     1     -14.715   7.364  31.901  1.00  0.00     0.322 C
BRANCH  22  23
HETATM   23  N10 UNL     1     -15.009   6.349  32.874  1.00  0.00    -0.061 N
ATOM     24 3H10 UNL     1     -14.542   5.468  32.660  1.00  0.00     0.275 HD
ATOM     25 2H10 UNL     1     -14.564   6.540  33.771  1.00  0.00     0.275 HD
ATOM     26 1H10 UNL     1     -16.018   6.233  32.965  1.00  0.00     0.275 HD
ENDBRANCH  22  23
BRANCH  22  27
HETATM   27  C19 UNL     1     -15.964   8.025  31.442  1.00  0.00     0.125 C
HETATM   28  N11 UNL     1     -17.012   8.102  32.191  1.00  0.00    -0.389 N
ATOM     29 2H11 UNL     1     -16.952   7.687  33.121  1.00  0.00     0.157 HD
ATOM     30 1H11 UNL     1     -17.869   8.557  31.876  1.00  0.00     0.157 HD
HETATM   31  N12 UNL     1     -16.047   8.603  30.145  1.00  0.00    -0.085 NA
ENDBRANCH  22  27
ENDBRANCH  18  22
ENDBRANCH  15  17
ENDBRANCH  14  15
ENDBRANCH  13  14
ENDBRANCH  11  13
ENDBRANCH   1  11
BRANCH   6  32
HETATM   32  N5  UNL     1      -6.938   7.736  27.708  1.00  0.00    -0.326 N
ATOM     33  H5  UNL     1      -7.170   8.001  26.751  1.00  0.00     0.168 HD
BRANCH  32  34
HETATM   34  C8  UNL     1      -5.785   6.933  27.939  1.00  0.00     0.177 C
HETATM   35  S1  UNL     1      -4.462   7.221  27.057  1.00  0.00    -0.041 SA
BRANCH  34  36
HETATM   36  N6  UNL     1      -5.835   5.945  28.942  1.00  0.00    -0.333 N
ATOM     37  H6  UNL     1      -6.444   5.152  28.743  1.00  0.00     0.168 HD
BRANCH  36  38
HETATM   38  C9  UNL     1      -5.167   5.896  30.177  1.00  0.00     0.034 A
HETATM   39  C10 UNL     1      -5.813   6.383  31.317  1.00  0.00     0.032 A
HETATM   40  C11 UNL     1      -5.235   6.343  32.560  1.00  0.00     0.038 A
HETATM   41  C12 UNL     1      -3.989   5.816  32.733  1.00  0.00     0.103 A
HETATM   42  C13 UNL     1      -3.337   5.330  31.626  1.00  0.00     0.038 A
HETATM   43  C14 UNL     1      -3.933   5.374  30.355  1.00  0.00     0.032 A
BRANCH  41  44
HETATM   44  N7  UNL     1      -3.365   5.761  34.012  1.00  0.00    -0.116 N
HETATM   45  O1  UNL     1      -2.868   4.696  34.423  1.00  0.00    -0.532 OA
HETATM   46  O2  UNL     1      -3.294   6.855  34.816  1.00  0.00    -0.532 OA
ENDBRANCH  41  44
ENDBRANCH  36  38
ENDBRANCH  34  36
ENDBRANCH  32  34
ENDBRANCH   6  32
TORSDOF 14
ENDMDL