MODEL 5
REMARK VINA RESULT: -5.844898257      3.824      6.149
REMARK  14 active torsions:
REMARK  status: ('A' for Active; 'I' for Inactive)
REMARK    1  A    between atoms: C3_3  and  C4_4
REMARK    2  A    between atoms: C4_4  and  O1_5
REMARK    3  A    between atoms: C4_4  and  N1_7
REMARK    4  A    between atoms: N1_7  and  N2_8
REMARK       I    between atoms: N2_8  and  C5_10
REMARK    5  A    between atoms: C5_10  and  C6_12
REMARK    6  A    between atoms: C6_12  and  S1_13
REMARK    7  A    between atoms: S1_13  and  C7_14
REMARK    8  A    between atoms: C8_17  and  C9_18
REMARK    9  A    between atoms: C9_18  and  N5_22
REMARK   10  A    between atoms: N5_22  and  N6_24
REMARK   11  A    between atoms: N7_28  and  C11_29
REMARK   12  A    between atoms: C11_29  and  C12_30
REMARK   13  A    between atoms: N10_39  and  N11_40
REMARK   14  A    between atoms: N11_40  and  C18_42
ROOT
HETATM    1  N2  UNL     1      -7.447   9.576  27.616  1.00  0.00    -0.200 N
ATOM      2  H2  UNL     1      -7.499  10.581  27.783  1.00  0.00     0.205 HD
HETATM    3  C5  UNL     1      -6.169   8.874  27.494  1.00  0.00     0.256 C
HETATM    4  O2  UNL     1      -6.181   7.696  27.242  1.00  0.00    -0.270 OA
ENDROOT
BRANCH   3   5
HETATM    5  C6  UNL     1      -4.894   9.633  27.700  1.00  0.00     0.187 C
BRANCH   5   6
HETATM    6  S1  UNL     1      -4.450   9.928  29.315  1.00  0.00    -0.084 SA
BRANCH   6   7
HETATM    7  C7  UNL     1      -5.566   9.686  30.626  1.00  0.00     0.147 A
HETATM    8  N3  UNL     1      -6.567  10.674  30.835  1.00  0.00    -0.332 N
HETATM    9  C8  UNL     1      -7.308  10.310  31.877  1.00  0.00     0.095 A
ATOM     10  H3  UNL     1      -6.696  11.519  30.279  1.00  0.00     0.168 HD
HETATM   11  C10 UNL     1      -6.799   9.129  32.327  1.00  0.00     0.127 A
HETATM   12  N7  UNL     1      -5.729   8.757  31.539  1.00  0.00    -0.331 N
BRANCH   9  13
HETATM   13  C9  UNL     1      -8.462  11.064  32.379  1.00  0.00     0.141 C
HETATM   14  N4  UNL     1      -9.518  11.131  31.668  1.00  0.00    -0.383 N
ATOM     15  H42 UNL     1      -9.580  10.627  30.783  1.00  0.00     0.157 HD
ATOM     16  H41 UNL     1     -10.321  11.654  32.017  1.00  0.00     0.157 HD
BRANCH  13  17
HETATM   17  N5  UNL     1      -8.376  11.763  33.608  1.00  0.00    -0.291 N
ATOM     18  H5  UNL     1      -7.506  11.652  34.129  1.00  0.00     0.188 HD
BRANCH  17  19
HETATM   19  N6  UNL     1      -9.337  12.584  34.187  1.00  0.00    -0.344 N
ATOM     20  H62 UNL     1      -9.462  12.460  35.192  1.00  0.00     0.176 HD
ATOM     21  H61 UNL     1      -9.921  13.282  33.726  1.00  0.00     0.176 HD
ENDBRANCH  17  19
ENDBRANCH  13  17
ENDBRANCH   9  13
BRANCH  12  22
HETATM   22  C11 UNL     1      -5.086   7.460  31.760  1.00  0.00     0.169 C
BRANCH  22  23
HETATM   23  C12 UNL     1      -5.453   6.464  30.708  1.00  0.00    -0.040 A
HETATM   24  C13 UNL     1      -4.406   5.859  29.976  1.00  0.00     0.009 A
HETATM   25  C14 UNL     1      -4.700   4.946  28.997  1.00  0.00     0.001 A
HETATM   26  C15 UNL     1      -6.015   4.623  28.735  1.00  0.00     0.000 A
HETATM   27  C16 UNL     1      -7.044   5.198  29.428  1.00  0.00     0.001 A
HETATM   28  C17 UNL     1      -6.739   6.133  30.430  1.00  0.00     0.009 A
ENDBRANCH  22  23
ENDBRANCH  12  22
ENDBRANCH   6   7
ENDBRANCH   5   6
ENDBRANCH   3   5
BRANCH   1  29
HETATM   29  N1  UNL     1      -8.565   8.803  27.494  1.00  0.00    -0.295 NA
BRANCH  29  30
HETATM   30  C4  UNL     1      -9.635   8.009  27.461  1.00  0.00     0.268 C
BRANCH  30  31
HETATM   31  C3  UNL     1     -10.414   7.428  28.572  1.00  0.00     0.139 A
HETATM   32  C2  UNL     1     -11.259   8.188  29.415  1.00  0.00     0.080 A
HETATM   33  C1  UNL     1     -11.596   9.589  29.096  1.00  0.00     0.074 C
HETATM   34  N10 UNL     1     -11.726   7.456  30.417  1.00  0.00    -0.180 N
HETATM   35  N9  UNL     1     -11.180   6.212  30.211  1.00  0.00     0.002 NA
HETATM   36  N8  UNL     1     -10.420   6.233  29.129  1.00  0.00    -0.276 N
ATOM     37  H8  UNL     1      -9.905   5.428  28.771  1.00  0.00     0.184 HD
BRANCH  34  38
HETATM   38  N11 UNL     1     -12.556   7.768  31.483  1.00  0.00    -0.251 N
ATOM     39  H11 UNL     1     -13.452   7.281  31.511  1.00  0.00     0.192 HD
BRANCH  38  40
HETATM   40  C18 UNL     1     -12.313   8.674  32.531  1.00  0.00     0.195 A
HETATM   41  N12 UNL     1     -11.498   8.418  33.498  1.00  0.00    -0.339 N
HETATM   42  C19 UNL     1     -11.371   9.448  34.450  1.00  0.00     0.083 A
ATOM     43  H12 UNL     1     -10.986   7.539  33.568  1.00  0.00     0.168 HD
HETATM   44  C20 UNL     1     -12.270  10.524  33.930  1.00  0.00     0.167 A
HETATM   45  N13 UNL     1     -12.868   9.969  32.727  1.00  0.00    -0.356 N
ATOM     46  H13 UNL     1     -13.560  10.426  32.131  1.00  0.00     0.162 HD
ENDBRANCH  38  40
ENDBRANCH  34  38
ENDBRANCH  30  31
BRANCH  30  47
HETATM   47  O1  UNL     1     -10.148   7.617  26.312  1.00  0.00    -0.332 OA
ATOM     48  H1  UNL     1      -9.501   7.722  25.624  1.00  0.00     0.220 HD
ENDBRANCH  30  47
ENDBRANCH  29  30
ENDBRANCH   1  29
TORSDOF 14
ENDMDL