MODEL 2
REMARK VINA RESULT: -6.444913810      2.537      5.480
REMARK  11 active torsions:
REMARK  status: ('A' for Active; 'I' for Inactive)
REMARK    1  A    between atoms: C4_7  and  N4_8
REMARK    2  A    between atoms: N4_8  and  C5_10
REMARK    3  A    between atoms: C6_13  and  N6_14
REMARK    4  A    between atoms: C9_23  and  C10_24
REMARK    5  A    between atoms: C10_24  and  C11_26
REMARK    6  A    between atoms: C11_26  and  C12_27
REMARK    7  A    between atoms: C11_26  and  N10_32
REMARK    8  A    between atoms: C12_27  and  N9_28
REMARK    9  A    between atoms: N10_32  and  N11_34
REMARK   10  A    between atoms: C13_36  and  C14_37
REMARK   11  A    between atoms: C17_40  and  N12_41
ROOT
HETATM    1  C5  UNL     1      -6.694   5.361  29.080  1.00  0.00     0.133 A
HETATM    2  N5  UNL     1      -6.123   4.743  28.034  1.00  0.00    -0.176 N
ATOM      3  H5  UNL     1      -6.721   4.216  27.397  1.00  0.00     0.186 HD
HETATM    4  C6  UNL     1      -4.788   4.785  27.780  1.00  0.00     0.679 A
HETATM    5  N7  UNL     1      -3.989   5.470  28.604  1.00  0.00    -0.176 N
ATOM      6  H7  UNL     1      -2.987   5.502  28.416  1.00  0.00     0.186 HD
HETATM    7  C7  UNL     1      -4.482   6.120  29.682  1.00  0.00     0.135 A
HETATM    8  N8  UNL     1      -3.660   6.804  30.491  1.00  0.00    -0.350 N
ATOM      9  H8  UNL     1      -2.659   6.830  30.295  1.00  0.00     0.166 HD
HETATM   10  C8  UNL     1      -4.158   7.463  31.575  1.00  0.00     0.105 A
HETATM   11  C9  UNL     1      -5.488   7.450  31.866  1.00  0.00     0.028 A
HETATM   12  C18 UNL     1      -6.317   6.734  31.013  1.00  0.00     0.035 A
HETATM   13  C19 UNL     1      -5.830   6.069  29.922  1.00  0.00     0.054 A
ENDROOT
BRANCH  11  14
HETATM   14  C10 UNL     1      -6.058   8.158  32.985  1.00  0.00     0.186 C
HETATM   15  O1  UNL     1      -5.938   7.698  34.172  1.00  0.00    -0.290 OA
BRANCH  14  16
HETATM   16  C11 UNL     1      -6.797   9.428  32.824  1.00  0.00     0.199 C
BRANCH  16  17
HETATM   17  C12 UNL     1      -5.792  10.442  32.237  1.00  0.00     0.264 C
BRANCH  17  18
HETATM   18  N9  UNL     1      -6.319  11.026  31.025  1.00  0.00    -0.077 N
ATOM     19  H93 UNL     1      -7.313  11.238  31.105  1.00  0.00     0.274 HD
ATOM     20  H92 UNL     1      -5.973  11.975  30.879  1.00  0.00     0.274 HD
ATOM     21  H91 UNL     1      -6.121  10.423  30.226  1.00  0.00     0.274 HD
ENDBRANCH  17  18
ENDBRANCH  16  17
BRANCH  16  22
HETATM   22  N10 UNL     1      -7.876   9.271  31.833  1.00  0.00    -0.323 N
ATOM     23  H10 UNL     1      -7.654   9.388  30.844  1.00  0.00     0.181 HD
BRANCH  22  24
HETATM   24  N11 UNL     1      -9.177   8.972  32.190  1.00  0.00    -0.314 N
HETATM   25  C13 UNL     1      -9.814   9.541  33.141  1.00  0.00     0.125 C
ATOM     26  H11 UNL     1      -9.661   8.249  31.659  1.00  0.00     0.185 HD
BRANCH  25  27
HETATM   27  C14 UNL     1     -11.189   9.131  33.415  1.00  0.00     0.024 A
HETATM   28  C15 UNL     1     -12.286   9.208  32.591  1.00  0.00     0.023 A
HETATM   29  C16 UNL     1     -13.447   8.763  33.074  1.00  0.00     0.045 A
HETATM   30  C17 UNL     1     -13.464   8.265  34.347  1.00  0.00     0.144 A
HETATM   31  S1  UNL     1     -11.840   8.434  34.837  1.00  0.00    -0.065 SA
BRANCH  30  32
HETATM   32  N12 UNL     1     -14.567   7.740  35.073  1.00  0.00    -0.108 N
HETATM   33  O2  UNL     1     -15.673   7.665  34.530  1.00  0.00    -0.531 OA
HETATM   34  O3  UNL     1     -14.411   7.324  36.356  1.00  0.00    -0.531 OA
ENDBRANCH  30  32
ENDBRANCH  25  27
ENDBRANCH  22  24
ENDBRANCH  16  22
ENDBRANCH  14  16
ENDBRANCH  11  14
BRANCH   1  35
HETATM   35  N4  UNL     1      -7.934   5.361  29.369  1.00  0.00    -0.343 N
ATOM     36  H4  UNL     1      -8.235   4.696  30.081  1.00  0.00     0.164 HD
BRANCH  35  37
HETATM   37  C4  UNL     1      -8.942   6.190  28.806  1.00  0.00     0.286 C
HETATM   38  N3  UNL     1      -9.492   7.082  29.826  1.00  0.00    -0.195 NA
HETATM   39  N2  UNL     1     -10.434   7.917  29.256  1.00  0.00    -0.217 NA
HETATM   40  C3  UNL     1     -10.935   6.918  30.078  1.00  0.00     0.221 A
HETATM   41  C2  UNL     1     -10.538   7.814  27.829  1.00  0.00     0.218 C
HETATM   42  N1  UNL     1      -9.198   7.937  27.241  1.00  0.00    -0.221 NA
HETATM   43  C1  UNL     1      -8.807   9.325  27.490  1.00  0.00     0.133 C
HETATM   44  N13 UNL     1      -8.303   7.042  27.800  1.00  0.00    -0.121 NA
ENDBRANCH  35  37
ENDBRANCH   1  35
BRANCH   4  45
HETATM   45  N6  UNL     1      -4.325   4.159  26.749  1.00  0.00    -0.234 N
ATOM     46  H62 UNL     1      -4.734   4.277  25.823  1.00  0.00     0.174 HD
ATOM     47  H61 UNL     1      -3.528   3.533  26.865  1.00  0.00     0.174 HD
ENDBRANCH   4  45
TORSDOF 11
ENDMDL