MODEL 3
REMARK VINA RESULT: -6.069703479      2.025      4.132
REMARK  12 active torsions:
REMARK  status: ('A' for Active; 'I' for Inactive)
REMARK       I    between atoms: C1_2  and  N3_4
REMARK    1  A    between atoms: N3_4  and  N4_6
REMARK    2  A    between atoms: N4_6  and  C2_8
REMARK    3  A    between atoms: C2_8  and  C11_33
REMARK    4  A    between atoms: C3_9  and  O1_10
REMARK    5  A    between atoms: C3_9  and  N5_12
REMARK    6  A    between atoms: N5_12  and  N6_14
REMARK    7  A    between atoms: C4_16  and  C5_17
REMARK    8  A    between atoms: C4_16  and  C7_22
REMARK    9  A    between atoms: C5_17  and  C6_19
REMARK   10  A    between atoms: C9_27  and  C10_28
REMARK   11  A    between atoms: C10_28  and  O7_29
REMARK   12  A    between atoms: C10_28  and  O8_31
ROOT
HETATM    1  C2  UNL     1     -10.456   7.899  29.411  1.00  0.00     0.117 C
HETATM    2  C3  UNL     1     -11.188   7.248  30.462  1.00  0.00     0.185 C
ENDROOT
BRANCH   2   3
HETATM    3  O1  UNL     1     -11.331   5.945  30.288  1.00  0.00    -0.343 OA
ATOM      4  H1  UNL     1     -10.763   5.419  30.839  1.00  0.00     0.219 HD
ENDBRANCH   2   3
BRANCH   2   5
HETATM    5  N5  UNL     1     -11.763   7.780  31.627  1.00  0.00    -0.278 N
ATOM      6  H5  UNL     1     -11.188   8.292  32.296  1.00  0.00     0.189 HD
BRANCH   5   7
HETATM    7  N6  UNL     1     -13.107   7.604  31.861  1.00  0.00    -0.293 N
HETATM    8  C4  UNL     1     -14.093   8.465  31.680  1.00  0.00     0.125 C
ATOM      9  H6  UNL     1     -13.378   6.689  32.222  1.00  0.00     0.187 HD
BRANCH   8  10
HETATM   10  C5  UNL     1     -15.369   7.913  32.034  1.00  0.00     0.277 C
HETATM   11  O2  UNL     1     -16.417   8.120  31.422  1.00  0.00    -0.278 OA
BRANCH  10  12
HETATM   12  C6  UNL     1     -15.456   7.021  33.227  1.00  0.00     0.253 C
HETATM   13  O3  UNL     1     -15.240   5.803  33.203  1.00  0.00    -0.642 OA
HETATM   14  O4  UNL     1     -15.807   7.633  34.438  1.00  0.00    -0.642 OA
ENDBRANCH  10  12
ENDBRANCH   8  10
BRANCH   8  15
HETATM   15  C7  UNL     1     -13.695   9.797  31.274  1.00  0.00     0.077 A
HETATM   16  S1  UNL     1     -13.872  10.392  29.604  1.00  0.00    -0.016 SA
HETATM   17  C8  UNL     1     -13.056  11.862  29.792  1.00  0.00     0.332 A
HETATM   18  O5  UNL     1     -12.826  12.789  28.921  1.00  0.00    -0.251 OA
HETATM   19  O6  UNL     1     -12.721  11.825  31.014  1.00  0.00    -0.268 OA
HETATM   20  C9  UNL     1     -13.009  10.848  31.778  1.00  0.00     0.131 A
BRANCH  20  21
HETATM   21  C10 UNL     1     -12.562  10.949  33.233  1.00  0.00     0.314 C
BRANCH  21  22
HETATM   22  O7  UNL     1     -11.761  12.140  33.341  1.00  0.00    -0.365 OA
ATOM     23  H7  UNL     1     -11.108  12.097  32.653  1.00  0.00     0.213 HD
ENDBRANCH  21  22
BRANCH  21  24
HETATM   24  O8  UNL     1     -11.715   9.925  33.561  1.00  0.00    -0.365 OA
ATOM     25  H8  UNL     1     -11.359  10.041  34.435  1.00  0.00     0.213 HD
ENDBRANCH  21  24
ENDBRANCH  20  21
ENDBRANCH   8  15
ENDBRANCH   5   7
ENDBRANCH   2   5
BRANCH   1  26
HETATM   26  N4  UNL     1     -10.035   7.088  28.445  1.00  0.00    -0.293 N
ATOM     27  H4  UNL     1     -10.722   6.492  27.984  1.00  0.00     0.187 HD
BRANCH  26  28
HETATM   28  N3  UNL     1      -8.751   7.007  28.038  1.00  0.00    -0.275 N
HETATM   29  C1  UNL     1      -7.885   6.238  28.636  1.00  0.00     0.215 C
HETATM   30  N1  UNL     1      -8.227   5.425  29.759  1.00  0.00    -0.065 NA
HETATM   31  N2  UNL     1      -6.561   6.232  28.155  1.00  0.00    -0.065 NA
ATOM     32  H3  UNL     1      -8.449   7.564  27.238  1.00  0.00     0.189 HD
ENDBRANCH  26  28
ENDBRANCH   1  26
BRANCH   1  33
HETATM   33  C11 UNL     1     -10.103   9.310  29.260  1.00  0.00     0.040 A
HETATM   34  C12 UNL     1      -9.620  10.251  30.105  1.00  0.00     0.031 A
HETATM   35  C13 UNL     1      -9.370  11.497  29.624  1.00  0.00    -0.023 A
HETATM   36  C14 UNL     1      -9.623  11.722  28.306  1.00  0.00     0.077 A
HETATM   37  C17 UNL     1      -8.816  12.699  30.397  1.00  0.00     0.043 C
HETATM   38  S2  UNL     1     -10.194  10.221  27.773  1.00  0.00    -0.070 SA
HETATM   39  N7  UNL     1      -9.394  13.020  27.698  1.00  0.00    -0.384 N
HETATM   40  C15 UNL     1      -8.518  13.999  28.279  1.00  0.00     0.120 C
ATOM     41  H7  UNL     1      -9.873  13.245  26.826  1.00  0.00     0.160 HD
HETATM   42  C16 UNL     1      -7.852  13.404  29.469  1.00  0.00     0.024 C
ENDBRANCH   1  33
TORSDOF 12
ENDMDL