MODEL 3
REMARK VINA RESULT: -5.482437015      3.107      6.914
REMARK  14 active torsions:
REMARK  status: ('A' for Active; 'I' for Inactive)
REMARK    1  A    between atoms: C3_3  and  N1_4
REMARK    2  A    between atoms: C4_5  and  O1_6
REMARK    3  A    between atoms: C5_8  and  C6_9
REMARK    4  A    between atoms: C6_9  and  N2_10
REMARK    5  A    between atoms: N2_10  and  N3_12
REMARK       I    between atoms: N3_12  and  C7_14
REMARK       I    between atoms: C7_14  and  N4_15
REMARK       I    between atoms: C7_14  and  N6_32
REMARK    6  A    between atoms: N4_15  and  N5_17
REMARK    7  A    between atoms: N5_17  and  C8_19
REMARK    8  A    between atoms: C8_19  and  C9_20
REMARK    9  A    between atoms: C11_22  and  O2_23
REMARK   10  A    between atoms: C12_25  and  O3_26
REMARK   11  A    between atoms: C13_28  and  O4_29
REMARK   12  A    between atoms: N6_32  and  N7_34
REMARK   13  A    between atoms: N7_34  and  C16_36
REMARK   14  A    between atoms: N10_44  and  N11_45
ROOT
HETATM    1  C1  UNL     1     -10.548   8.845  34.544  1.00  0.00     0.014 C
HETATM    2  C2  UNL     1     -11.018   9.915  34.245  1.00  0.00    -0.097 C
HETATM    3  C3  UNL     1     -11.579  11.231  33.861  1.00  0.00     0.228 C
ENDROOT
BRANCH   3   4
HETATM    4  N1  UNL     1     -10.995  11.630  32.594  1.00  0.00    -0.265 N
HETATM    5  C4  UNL     1     -11.554  11.426  31.365  1.00  0.00     0.178 A
HETATM    6  C5  UNL     1     -10.702  11.942  30.412  1.00  0.00     0.128 A
HETATM    7  N10 UNL     1      -9.635  12.455  31.047  1.00  0.00    -0.206 N
HETATM    8  C19 UNL     1      -9.829  12.258  32.367  1.00  0.00     0.350 A
HETATM    9  O5  UNL     1      -8.997  12.630  33.245  1.00  0.00    -0.244 OA
BRANCH   5  10
HETATM   10  O1  UNL     1     -12.779  10.798  31.166  1.00  0.00    -0.344 OA
ATOM     11  H1  UNL     1     -13.607  11.146  31.474  1.00  0.00     0.219 HD
ENDBRANCH   5  10
BRANCH   6  12
HETATM   12  C6  UNL     1     -10.959  11.912  28.964  1.00  0.00     0.143 C
BRANCH  12  13
HETATM   13  N2  UNL     1     -11.589  10.898  28.488  1.00  0.00    -0.295 N
ATOM     14  H2  UNL     1     -12.567  10.974  28.207  1.00  0.00     0.186 HD
BRANCH  13  15
HETATM   15  N3  UNL     1     -10.901   9.691  28.363  1.00  0.00    -0.130 N
HETATM   16  C7  UNL     1     -11.399   8.587  28.767  1.00  0.00     0.726 C
HETATM   17  N4  UNL     1     -12.692   8.599  29.359  1.00  0.00    -0.130 N
HETATM   18  N6  UNL     1     -10.675   7.379  28.627  1.00  0.00    -0.127 N
ATOM     19  H4  UNL     1     -13.417   9.189  28.951  1.00  0.00     0.205 HD
ATOM     20  H6  UNL     1     -10.754   6.842  27.763  1.00  0.00     0.205 HD
ATOM     21  H3  UNL     1      -9.974   9.691  27.937  1.00  0.00     0.205 HD
BRANCH  17  22
HETATM   22  N5  UNL     1     -12.991   7.847  30.450  1.00  0.00    -0.297 N
ATOM     23  H5  UNL     1     -12.187   7.694  31.060  1.00  0.00     0.186 HD
BRANCH  22  24
HETATM   24  C8  UNL     1     -14.037   7.299  30.874  1.00  0.00     0.119 C
BRANCH  24  25
HETATM   25  C9  UNL     1     -14.754   7.489  32.111  1.00  0.00    -0.014 A
HETATM   26  C10 UNL     1     -16.040   7.072  32.339  1.00  0.00     0.052 A
HETATM   27  C11 UNL     1     -16.686   7.283  33.562  1.00  0.00     0.102 A
HETATM   28  C12 UNL     1     -16.033   7.927  34.583  1.00  0.00     0.132 A
HETATM   29  C13 UNL     1     -14.748   8.355  34.388  1.00  0.00     0.104 A
HETATM   30  C15 UNL     1     -14.138   8.134  33.178  1.00  0.00     0.052 A
BRANCH  27  31
HETATM   31  O2  UNL     1     -17.988   6.860  33.787  1.00  0.00    -0.358 OA
ATOM     32  H2  UNL     1     -18.385   6.894  34.649  1.00  0.00     0.217 HD
ENDBRANCH  27  31
BRANCH  28  33
HETATM   33  O3  UNL     1     -16.662   8.149  35.817  1.00  0.00    -0.356 OA
ATOM     34  H3  UNL     1     -16.807   9.030  36.141  1.00  0.00     0.218 HD
ENDBRANCH  28  33
BRANCH  29  35
HETATM   35  O4  UNL     1     -14.095   9.000  35.414  1.00  0.00    -0.353 OA
HETATM   36  C14 UNL     1     -13.497   8.255  36.480  1.00  0.00     0.210 C
ENDBRANCH  29  35
ENDBRANCH  24  25
ENDBRANCH  22  24
ENDBRANCH  17  22
BRANCH  18  37
HETATM   37  N7  UNL     1      -9.855   6.911  29.655  1.00  0.00    -0.264 N
ATOM     38  H7  UNL     1     -10.128   7.017  30.632  1.00  0.00     0.189 HD
BRANCH  37  39
HETATM   39  C16 UNL     1      -8.726   6.331  29.332  1.00  0.00     0.180 A
HETATM   40  N8  UNL     1      -8.472   5.547  28.279  1.00  0.00    -0.278 N
HETATM   41  N9  UNL     1      -7.303   5.075  28.136  1.00  0.00    -0.296 N
ATOM     42  H8  UNL     1      -9.204   5.333  27.603  1.00  0.00     0.189 HD
HETATM   43  C17 UNL     1      -6.356   5.358  29.019  1.00  0.00     0.066 A
ATOM     44  H9  UNL     1      -7.092   4.475  27.339  1.00  0.00     0.187 HD
HETATM   45  C18 UNL     1      -4.924   4.903  29.029  1.00  0.00     0.078 C
HETATM   46  S1  UNL     1      -7.204   6.360  30.111  1.00  0.00    -0.037 SA
ENDBRANCH  37  39
ENDBRANCH  18  37
ENDBRANCH  13  15
ENDBRANCH  12  13
ENDBRANCH   6  12
BRANCH   7  47
HETATM   47  N11 UNL     1      -8.557  13.067  30.411  1.00  0.00    -0.334 N
ATOM     48 2H11 UNL     1      -8.028  12.740  29.604  1.00  0.00     0.177 HD
ATOM     49 1H11 UNL     1      -8.150  13.959  30.694  1.00  0.00     0.177 HD
ENDBRANCH   7  47
ENDBRANCH   3   4
TORSDOF 14
ENDMDL