MODEL 5
REMARK VINA RESULT: -5.490055246      2.662      7.422
REMARK  15 active torsions:
REMARK  status: ('A' for Active; 'I' for Inactive)
REMARK    1  A    between atoms: C2_4  and  O1_5
REMARK    2  A    between atoms: C2_4  and  C4_7
REMARK    3  A    between atoms: C4_7  and  N2_8
REMARK    4  A    between atoms: C4_7  and  C12_34
REMARK       I    between atoms: N2_8  and  C5_10
REMARK    5  A    between atoms: C5_10  and  C6_12
REMARK    6  A    between atoms: C6_12  and  N3_13
REMARK    7  A    between atoms: C6_12  and  C7_17
REMARK    8  A    between atoms: C7_17  and  O3_18
REMARK    9  A    between atoms: C7_17  and  N4_20
REMARK   10  A    between atoms: N4_20  and  C8_22
REMARK   11  A    between atoms: C9_26  and  C10_27
REMARK   12  A    between atoms: C10_27  and  O5_28
REMARK   13  A    between atoms: C10_27  and  O6_30
REMARK   14  A    between atoms: C14_36  and  C15_37
REMARK   15  A    between atoms: C20_42  and  N7_43
ROOT
HETATM    1  N2  UNL     1      -8.407   8.303  30.141  1.00  0.00    -0.342 N
ATOM      2  H2  UNL     1      -8.780   9.137  29.686  1.00  0.00     0.163 HD
HETATM    3  C5  UNL     1      -7.228   8.429  30.899  1.00  0.00     0.253 C
HETATM    4  O2  UNL     1      -6.810   7.355  31.448  1.00  0.00    -0.271 OA
ENDROOT
BRANCH   1   5
HETATM    5  C4  UNL     1      -9.121   7.054  29.972  1.00  0.00     0.211 C
BRANCH   5   6
HETATM    6  C2  UNL     1      -9.096   6.593  28.567  1.00  0.00     0.142 C
HETATM    7  N1  UNL     1      -8.193   5.826  28.096  1.00  0.00    -0.377 N
HETATM    8  C1  UNL     1      -7.076   5.291  28.823  1.00  0.00     0.148 C
ATOM      9  H1  UNL     1      -8.270   5.570  27.111  1.00  0.00     0.160 HD
BRANCH   6  10
HETATM   10  O1  UNL     1     -10.099   7.007  27.705  1.00  0.00    -0.342 OA
HETATM   11  C3  UNL     1      -9.929   8.139  26.871  1.00  0.00     0.211 C
ENDBRANCH   6  10
ENDBRANCH   5   6
BRANCH   5  12
HETATM   12  C12 UNL     1     -10.533   7.311  30.416  1.00  0.00     0.066 A
HETATM   13  C13 UNL     1     -11.010   8.468  31.010  1.00  0.00     0.070 A
HETATM   14  C14 UNL     1     -12.379   8.311  31.268  1.00  0.00     0.113 A
HETATM   15  O9  UNL     1     -12.625   7.117  30.831  1.00  0.00    -0.237 OA
HETATM   16  N8  UNL     1     -11.603   6.512  30.337  1.00  0.00    -0.262 N
ATOM     17  H8  UNL     1     -11.607   5.569  29.947  1.00  0.00     0.194 HD
BRANCH  14  18
HETATM   18  C15 UNL     1     -13.197   9.341  31.890  1.00  0.00     0.033 A
HETATM   19  C16 UNL     1     -12.728   9.974  33.059  1.00  0.00     0.017 A
HETATM   20  C17 UNL     1     -13.411  10.983  33.693  1.00  0.00     0.001 A
HETATM   21  C18 UNL     1     -14.614  11.428  33.201  1.00  0.00     0.002 A
HETATM   22  C19 UNL     1     -15.092  10.838  32.078  1.00  0.00     0.037 A
HETATM   23  C20 UNL     1     -14.391   9.792  31.416  1.00  0.00     0.116 A
BRANCH  23  24
HETATM   24  N7  UNL     1     -15.018   9.276  30.254  1.00  0.00    -0.115 N
HETATM   25  O7  UNL     1     -15.774   8.243  30.395  1.00  0.00    -0.532 OA
HETATM   26  O8  UNL     1     -14.870   9.805  29.025  1.00  0.00    -0.532 OA
ENDBRANCH  23  24
ENDBRANCH  14  18
ENDBRANCH   5  12
ENDBRANCH   1   5
BRANCH   3  27
HETATM   27  C6  UNL     1      -6.466   9.679  31.098  1.00  0.00     0.322 C
BRANCH  27  28
HETATM   28  N3  UNL     1      -6.341  10.359  29.818  1.00  0.00    -0.062 N
ATOM     29  H33 UNL     1      -6.724   9.813  29.047  1.00  0.00     0.275 HD
ATOM     30  H32 UNL     1      -6.962  11.165  29.742  1.00  0.00     0.275 HD
ATOM     31  H31 UNL     1      -5.362  10.607  29.673  1.00  0.00     0.275 HD
ENDBRANCH  27  28
BRANCH  27  32
HETATM   32  C7  UNL     1      -7.254  10.567  32.075  1.00  0.00     0.259 C
BRANCH  32  33
HETATM   33  O3  UNL     1      -6.326  11.043  33.003  1.00  0.00    -0.374 OA
ATOM     34  H3  UNL     1      -6.543  10.631  33.830  1.00  0.00     0.212 HD
ENDBRANCH  32  33
BRANCH  32  35
HETATM   35  N4  UNL     1      -7.820  11.707  31.435  1.00  0.00    -0.345 N
ATOM     36  H4  UNL     1      -7.147  12.377  31.062  1.00  0.00     0.163 HD
BRANCH  35  37
HETATM   37  C8  UNL     1      -9.036  12.007  31.262  1.00  0.00     0.150 A
HETATM   38  N5  UNL     1      -9.925  12.618  32.063  1.00  0.00    -0.243 N
HETATM   39  O4  UNL     1     -11.076  12.711  31.469  1.00  0.00    -0.233 OA
ATOM     40  H5  UNL     1      -9.724  12.960  33.003  1.00  0.00     0.196 HD
HETATM   41  C9  UNL     1     -11.048  12.192  30.274  1.00  0.00     0.158 A
HETATM   42  C11 UNL     1      -9.749  11.724  30.098  1.00  0.00     0.128 A
HETATM   43  N6  UNL     1      -9.199  11.075  28.966  1.00  0.00    -0.095 NA
BRANCH  41  44
HETATM   44  C10 UNL     1     -12.135  12.090  29.264  1.00  0.00     0.317 C
BRANCH  44  45
HETATM   45  O5  UNL     1     -13.350  12.572  29.744  1.00  0.00    -0.365 OA
ATOM     46  H5  UNL     1     -13.331  13.509  29.898  1.00  0.00     0.213 HD
ENDBRANCH  44  45
BRANCH  44  47
HETATM   47  O6  UNL     1     -12.231  10.827  28.697  1.00  0.00    -0.365 OA
ATOM     48  H6  UNL     1     -11.523  10.637  28.092  1.00  0.00     0.213 HD
ENDBRANCH  44  47
ENDBRANCH  41  44
ENDBRANCH  35  37
ENDBRANCH  32  35
ENDBRANCH  27  32
ENDBRANCH   3  27
TORSDOF 15
ENDMDL