MODEL 2
REMARK VINA RESULT: -7.079150917      2.039      4.221
REMARK  12 active torsions:
REMARK  status: ('A' for Active; 'I' for Inactive)
REMARK    1  A    between atoms: N1_2  and  C1_4
REMARK    2  A    between atoms: C4_7  and  N2_8
REMARK    3  A    between atoms: C8_14  and  O4_15
REMARK    4  A    between atoms: C9_17  and  N4_18
REMARK    5  A    between atoms: N4_18  and  C10_20
REMARK    6  A    between atoms: C10_20  and  C11_21
REMARK    7  A    between atoms: C11_21  and  S1_22
REMARK    8  A    between atoms: S1_22  and  S2_23
REMARK    9  A    between atoms: S2_23  and  C12_24
REMARK   10  A    between atoms: C14_29  and  O5_30
REMARK   11  A    between atoms: C15_32  and  C16_33
REMARK   12  A    between atoms: C16_33  and  O6_34
ROOT
HETATM    1  N4  UNL     1      47.902 -52.308  73.155  1.00  0.00    -0.385 N
ATOM      2  H4  UNL     1      47.556 -53.024  72.516  1.00  0.00     0.159 HD
ENDROOT
BRANCH   1   3
HETATM    3  C9  UNL     1      47.213 -51.051  73.261  1.00  0.00     0.097 A
HETATM    4  C1  UNL     1      47.558 -49.999  72.503  1.00  0.00     0.132 A
HETATM    5  C2  UNL     1      46.889 -48.782  72.726  1.00  0.00     0.041 A
HETATM    6  C3  UNL     1      45.920 -48.699  73.688  1.00  0.00     0.036 A
HETATM    7  C4  UNL     1      45.542 -49.787  74.487  1.00  0.00     0.083 A
HETATM    8  C8  UNL     1      46.213 -50.960  74.248  1.00  0.00     0.122 A
BRANCH   4   9
HETATM    9  N1  UNL     1      48.516 -50.004  71.442  1.00  0.00    -0.113 N
HETATM   10  O1  UNL     1      48.179 -49.978  70.234  1.00  0.00    -0.532 OA
HETATM   11  O2  UNL     1      49.841 -50.004  71.794  1.00  0.00    -0.532 OA
ENDBRANCH   4   9
BRANCH   7  12
HETATM   12  N2  UNL     1      44.522 -49.634  75.449  1.00  0.00    -0.289 N
HETATM   13  C5  UNL     1      43.199 -49.103  75.116  1.00  0.00     0.171 C
HETATM   14  C6  UNL     1      42.807 -48.049  76.151  1.00  0.00     0.191 C
HETATM   15  O3  UNL     1      43.791 -47.958  77.130  1.00  0.00    -0.372 OA
HETATM   16  C7  UNL     1      43.969 -49.213  77.691  1.00  0.00     0.302 C
HETATM   17  N3  UNL     1      44.801 -50.001  76.788  1.00  0.00    -0.112 NA
ENDBRANCH   7  12
BRANCH   8  18
HETATM   18  O4  UNL     1      45.907 -52.090  74.993  1.00  0.00    -0.356 OA
ATOM     19  H4  UNL     1      46.442 -52.871  74.905  1.00  0.00     0.218 HD
ENDBRANCH   8  18
ENDBRANCH   1   3
BRANCH   1  20
HETATM   20  C10 UNL     1      49.069 -52.557  73.940  1.00  0.00     0.131 C
BRANCH  20  21
HETATM   21  C11 UNL     1      49.270 -53.912  74.519  1.00  0.00     0.105 C
BRANCH  21  22
HETATM   22  S1  UNL     1      50.899 -54.124  75.226  1.00  0.00    -0.092 SA
BRANCH  22  23
HETATM   23  S2  UNL     1      51.119 -52.968  77.023  1.00  0.00    -0.037 SA
BRANCH  23  24
HETATM   24  C12 UNL     1      51.434 -51.261  76.489  1.00  0.00     0.396 C
HETATM   25  N5  UNL     1      52.624 -50.819  77.151  1.00  0.00    -0.036 N
HETATM   26  C13 UNL     1      52.735 -49.375  77.206  1.00  0.00     0.270 C
ATOM     27  H52 UNL     1      52.696 -51.226  78.083  1.00  0.00     0.281 HD
ATOM     28  H51 UNL     1      53.453 -51.232  76.725  1.00  0.00     0.281 HD
HETATM   29  C14 UNL     1      51.814 -48.761  76.176  1.00  0.00     0.175 C
HETATM   30  C15 UNL     1      50.409 -49.188  76.528  1.00  0.00     0.178 C
HETATM   31  O7  UNL     1      50.303 -50.527  76.828  1.00  0.00    -0.341 OA
BRANCH  29  32
HETATM   32  O5  UNL     1      51.875 -47.378  76.318  1.00  0.00    -0.391 OA
ATOM     33  H5  UNL     1      51.070 -47.013  75.970  1.00  0.00     0.210 HD
ENDBRANCH  29  32
BRANCH  30  34
HETATM   34  C16 UNL     1      49.485 -48.760  75.412  1.00  0.00     0.198 C
BRANCH  34  35
HETATM   35  O6  UNL     1      50.148 -48.424  74.256  1.00  0.00    -0.398 OA
ATOM     36  H6  UNL     1      49.583 -48.400  73.493  1.00  0.00     0.209 HD
ENDBRANCH  34  35
ENDBRANCH  30  34
ENDBRANCH  23  24
ENDBRANCH  22  23
ENDBRANCH  21  22
ENDBRANCH  20  21
ENDBRANCH   1  20
TORSDOF 12
ENDMDL