MODEL 3
REMARK VINA RESULT: -7.223411704      4.005      6.927
REMARK  13 active torsions:
REMARK  status: ('A' for Active; 'I' for Inactive)
REMARK    1  A    between atoms: O1_2  and  C2_3
REMARK    2  A    between atoms: C4_5  and  N1_6
REMARK    3  A    between atoms: N1_6  and  N2_8
REMARK    4  A    between atoms: N2_8  and  C5_9
REMARK    5  A    between atoms: C6_10  and  O2_11
REMARK    6  A    between atoms: C9_18  and  O3_19
REMARK    7  A    between atoms: O3_19  and  C10_20
REMARK    8  A    between atoms: C10_20  and  C11_22
REMARK    9  A    between atoms: C12_23  and  O5_24
REMARK   10  A    between atoms: C13_27  and  O7_28
REMARK   11  A    between atoms: C16_32  and  O8_33
REMARK   12  A    between atoms: C17_35  and  O9_36
REMARK   13  A    between atoms: C19_38  and  O10_39
ROOT
HETATM    1  C5  UNL     1      49.439 -49.073  74.329  1.00  0.00     0.185 C
HETATM    2  C6  UNL     1      49.076 -50.017  73.200  1.00  0.00     0.342 C
HETATM    3  N3  UNL     1      49.454 -51.332  73.668  1.00  0.00    -0.047 N
ATOM      4  H31 UNL     1      50.449 -51.365  73.891  1.00  0.00     0.280 HD
ATOM      5  H32 UNL     1      49.431 -52.009  72.904  1.00  0.00     0.280 HD
HETATM    6  C7  UNL     1      48.671 -51.788  74.774  1.00  0.00     0.238 C
HETATM    7  C8  UNL     1      48.262 -50.781  75.764  1.00  0.00     0.062 C
HETATM    8  C9  UNL     1      48.406 -49.357  75.401  1.00  0.00     0.159 C
ENDROOT
BRANCH   1   9
HETATM    9  N2  UNL     1      50.779 -49.408  74.743  1.00  0.00    -0.129 NA
BRANCH   9  10
HETATM   10  N1  UNL     1      51.083 -49.006  76.035  1.00  0.00    -0.301 N
ATOM     11  H1  UNL     1      50.657 -48.153  76.395  1.00  0.00     0.182 HD
BRANCH  10  12
HETATM   12  C4  UNL     1      51.962 -49.734  76.874  1.00  0.00     0.083 A
HETATM   13  C3  UNL     1      51.862 -51.103  77.076  1.00  0.00     0.073 A
HETATM   14  C2  UNL     1      52.723 -51.802  77.896  1.00  0.00     0.106 A
HETATM   15  C19 UNL     1      53.717 -51.084  78.533  1.00  0.00     0.138 A
HETATM   16  C17 UNL     1      53.843 -49.726  78.355  1.00  0.00     0.140 A
HETATM   17  C16 UNL     1      52.969 -49.062  77.531  1.00  0.00     0.130 A
BRANCH  14  18
HETATM   18  O1  UNL     1      52.609 -53.174  78.087  1.00  0.00    -0.353 OA
HETATM   19  C1  UNL     1      52.800 -54.067  77.022  1.00  0.00     0.210 C
ENDBRANCH  14  18
BRANCH  15  20
HETATM   20  O10 UNL     1      54.595 -51.785  79.368  1.00  0.00    -0.351 OA
HETATM   21  C20 UNL     1      55.825 -52.305  78.915  1.00  0.00     0.210 C
ENDBRANCH  15  20
BRANCH  16  22
HETATM   22  O9  UNL     1      54.856 -49.033  79.011  1.00  0.00    -0.350 OA
HETATM   23  C18 UNL     1      54.561 -48.566  80.315  1.00  0.00     0.210 C
ENDBRANCH  16  22
BRANCH  17  24
HETATM   24  O8  UNL     1      53.095 -47.699  77.352  1.00  0.00    -0.356 OA
ATOM     25  H8  UNL     1      53.587 -47.373  76.607  1.00  0.00     0.218 HD
ENDBRANCH  17  24
ENDBRANCH  10  12
ENDBRANCH   9  10
ENDBRANCH   1   9
BRANCH   2  26
HETATM   26  O2  UNL     1      49.808 -49.715  72.064  1.00  0.00    -0.368 OA
ATOM     27  H2  UNL     1      49.353 -50.017  71.287  1.00  0.00     0.212 HD
ENDBRANCH   2  26
BRANCH   8  28
HETATM   28  O3  UNL     1      47.157 -48.883  74.871  1.00  0.00    -0.310 OA
BRANCH  28  29
HETATM   29  C10 UNL     1      46.515 -47.786  75.423  1.00  0.00     0.299 C
HETATM   30  O4  UNL     1      47.181 -46.764  75.652  1.00  0.00    -0.259 OA
BRANCH  29  31
HETATM   31  C11 UNL     1      45.090 -47.903  75.700  1.00  0.00     0.108 A
HETATM   32  C12 UNL     1      44.105 -47.069  75.165  1.00  0.00     0.202 A
HETATM   33  O6  UNL     1      42.944 -47.457  75.624  1.00  0.00    -0.263 OA
HETATM   34  C13 UNL     1      43.068 -48.472  76.416  1.00  0.00     0.192 A
HETATM   35  C14 UNL     1      44.425 -48.803  76.501  1.00  0.00     0.018 A
HETATM   36  C15 UNL     1      45.031 -49.885  77.283  1.00  0.00     0.054 C
BRANCH  32  37
HETATM   37  O5  UNL     1      44.358 -46.007  74.289  1.00  0.00    -0.340 OA
ATOM     38  H5  UNL     1      43.761 -45.284  74.136  1.00  0.00     0.220 HD
ENDBRANCH  32  37
BRANCH  34  39
HETATM   39  O7  UNL     1      42.077 -49.165  77.095  1.00  0.00    -0.340 OA
ATOM     40  H7  UNL     1      41.650 -49.978  76.852  1.00  0.00     0.220 HD
ENDBRANCH  34  39
ENDBRANCH  29  31
ENDBRANCH  28  29
ENDBRANCH   8  28
TORSDOF 13
ENDMDL