MODEL 4
REMARK VINA RESULT: -7.639733239      2.325      2.945
REMARK  11 active torsions:
REMARK  status: ('A' for Active; 'I' for Inactive)
REMARK    1  A    between atoms: O1_2  and  C2_3
REMARK    2  A    between atoms: C2_3  and  C3_7
REMARK    3  A    between atoms: C4_9  and  N2_10
REMARK    4  A    between atoms: N2_10  and  N3_12
REMARK    5  A    between atoms: N3_12  and  C5_14
REMARK    6  A    between atoms: C8_17  and  N4_18
REMARK    7  A    between atoms: C10_22  and  N5_23
REMARK    8  A    between atoms: C11_26  and  C12_27
REMARK       I    between atoms: C12_27  and  N6_29
REMARK    9  A    between atoms: N6_29  and  N7_31
REMARK       I    between atoms: N7_31  and  C13_33
REMARK   10  A    between atoms: C13_33  and  C14_35
REMARK   11  A    between atoms: C14_35  and  N8_36
ROOT
HETATM    1  C3  UNL     1      44.899 -48.243  74.859  1.00  0.00     0.082 A
HETATM    2  S1  UNL     1      46.349 -47.369  75.228  1.00  0.00    -0.064 SA
HETATM    3  C4  UNL     1      47.465 -48.372  74.459  1.00  0.00     0.107 A
HETATM    4  C11 UNL     1      46.694 -49.384  73.919  1.00  0.00     0.094 A
HETATM    5  C15 UNL     1      45.375 -49.296  74.138  1.00  0.00     0.086 A
HETATM    6  N9  UNL     1      44.417 -50.272  73.641  1.00  0.00    -0.100 NA
ENDROOT
BRANCH   3   7
HETATM    7  N2  UNL     1      48.895 -48.186  74.403  1.00  0.00    -0.292 N
ATOM      8  H2  UNL     1      49.369 -48.020  73.515  1.00  0.00     0.187 HD
BRANCH   7   9
HETATM    9  N3  UNL     1      49.587 -48.240  75.567  1.00  0.00    -0.297 N
ATOM     10  H3  UNL     1      49.583 -47.340  76.048  1.00  0.00     0.187 HD
BRANCH   9  11
HETATM   11  C5  UNL     1      50.302 -49.200  76.281  1.00  0.00     0.081 A
HETATM   12  C6  UNL     1      51.691 -48.932  76.432  1.00  0.00     0.036 A
HETATM   13  C7  UNL     1      52.530 -49.718  77.134  1.00  0.00     0.038 A
HETATM   14  C8  UNL     1      52.019 -50.840  77.736  1.00  0.00     0.105 A
HETATM   15  C9  UNL     1      50.689 -51.124  77.609  1.00  0.00     0.074 A
HETATM   16  C10 UNL     1      49.779 -50.305  76.869  1.00  0.00     0.133 A
BRANCH  14  17
HETATM   17  N4  UNL     1      52.902 -51.681  78.476  1.00  0.00    -0.116 N
HETATM   18  O2  UNL     1      53.627 -51.184  79.365  1.00  0.00    -0.532 OA
HETATM   19  O3  UNL     1      52.987 -53.020  78.250  1.00  0.00    -0.532 OA
ENDBRANCH  14  17
BRANCH  16  20
HETATM   20  N5  UNL     1      48.452 -50.729  76.881  1.00  0.00    -0.113 N
HETATM   21  O4  UNL     1      48.259 -51.902  76.383  1.00  0.00    -0.532 OA
HETATM   22  O5  UNL     1      47.366 -50.135  77.339  1.00  0.00    -0.532 OA
ENDBRANCH  16  20
ENDBRANCH   9  11
ENDBRANCH   7   9
ENDBRANCH   3   7
BRANCH   4  23
HETATM   23  C12 UNL     1      47.382 -50.466  73.174  1.00  0.00     0.274 C
HETATM   24  O6  UNL     1      48.021 -50.189  72.090  1.00  0.00    -0.266 OA
HETATM   25  N6  UNL     1      47.422 -51.818  73.521  1.00  0.00    -0.263 N
ATOM     26  H6  UNL     1      46.954 -52.164  74.358  1.00  0.00     0.190 HD
BRANCH  25  27
HETATM   27  N7  UNL     1      48.145 -52.693  72.658  1.00  0.00    -0.266 N
HETATM   28  C13 UNL     1      47.438 -53.708  71.979  1.00  0.00     0.261 C
HETATM   29  O7  UNL     1      46.207 -53.840  72.130  1.00  0.00    -0.270 OA
ATOM     30  H7  UNL     1      49.152 -52.588  72.533  1.00  0.00     0.190 HD
BRANCH  28  31
HETATM   31  C14 UNL     1      48.216 -54.615  71.078  1.00  0.00     0.333 C
BRANCH  31  32
HETATM   32  N8  UNL     1      48.665 -53.884  69.892  1.00  0.00    -0.071 N
ATOM     33  H83 UNL     1      47.893 -53.673  69.260  1.00  0.00     0.274 HD
ATOM     34  H82 UNL     1      48.941 -52.928  70.115  1.00  0.00     0.274 HD
ATOM     35  H81 UNL     1      49.412 -54.398  69.424  1.00  0.00     0.274 HD
ENDBRANCH  31  32
ENDBRANCH  28  31
ENDBRANCH  25  27
ENDBRANCH   4  23
BRANCH   1  36
HETATM   36  C2  UNL     1      43.529 -47.873  75.268  1.00  0.00     0.154 C
HETATM   37  N1  UNL     1      42.551 -47.634  74.525  1.00  0.00    -0.379 N
ATOM     38  H12 UNL     1      41.605 -47.379  74.808  1.00  0.00     0.158 HD
ATOM     39  H11 UNL     1      42.720 -47.705  73.522  1.00  0.00     0.158 HD
BRANCH  36  40
HETATM   40  O1  UNL     1      43.294 -47.776  76.658  1.00  0.00    -0.340 OA
HETATM   41  C1  UNL     1      43.659 -48.887  77.448  1.00  0.00     0.211 C
ENDBRANCH  36  40
ENDBRANCH   1  36
TORSDOF 11
ENDMDL