MODEL 4
REMARK VINA RESULT: -8.222138061      0.789      1.394
REMARK  11 active torsions:
REMARK  status: ('A' for Active; 'I' for Inactive)
REMARK    1  A    between atoms: C2_2  and  C3_3
REMARK    2  A    between atoms: C2_2  and  N5_36
REMARK    3  A    between atoms: C3_3  and  N1_4
REMARK    4  A    between atoms: C4_6  and  C5_7
REMARK    5  A    between atoms: C7_11  and  C8_12
REMARK       I    between atoms: C8_12  and  N2_14
REMARK    6  A    between atoms: N2_14  and  N3_16
REMARK    7  A    between atoms: N3_16  and  C9_18
REMARK    8  A    between atoms: C13_27  and  O7_28
REMARK    9  A    between atoms: C16_33  and  O9_34
REMARK   10  A    between atoms: N5_36  and  N6_38
REMARK   11  A    between atoms: N6_38  and  O10_42
ROOT
HETATM    1  C5  UNL     1      53.004 -51.026  78.183  1.00  0.00     0.127 A
HETATM    2  O1  UNL     1      52.041 -51.674  77.608  1.00  0.00    -0.283 OA
HETATM    3  C6  UNL     1      51.325 -50.909  76.800  1.00  0.00     0.209 A
HETATM    4  O2  UNL     1      50.289 -51.149  76.043  1.00  0.00    -0.278 OA
HETATM    5  C7  UNL     1      49.699 -50.223  75.285  1.00  0.00     0.184 A
HETATM    6  C13 UNL     1      50.212 -48.961  75.311  1.00  0.00     0.157 A
HETATM    7  C14 UNL     1      51.338 -48.658  76.121  1.00  0.00     0.225 A
HETATM    8  O8  UNL     1      51.814 -47.521  76.158  1.00  0.00    -0.284 OA
HETATM    9  C15 UNL     1      51.894 -49.659  76.874  1.00  0.00     0.112 A
HETATM   10  C16 UNL     1      52.969 -49.720  77.756  1.00  0.00     0.120 A
ENDROOT
BRANCH   5  11
HETATM   11  C8  UNL     1      48.540 -50.647  74.482  1.00  0.00     0.296 C
HETATM   12  O3  UNL     1      48.648 -51.462  73.577  1.00  0.00    -0.264 OA
HETATM   13  N2  UNL     1      47.259 -50.100  74.763  1.00  0.00    -0.262 N
ATOM     14  H2  UNL     1      47.201 -49.419  75.520  1.00  0.00     0.190 HD
BRANCH  13  15
HETATM   15  N3  UNL     1      46.089 -50.409  74.102  1.00  0.00    -0.277 N
ATOM     16  H3  UNL     1      46.074 -51.199  73.457  1.00  0.00     0.189 HD
BRANCH  15  17
HETATM   17  C9  UNL     1      44.899 -49.650  74.298  1.00  0.00     0.172 A
HETATM   18  C10 UNL     1      43.666 -50.241  74.068  1.00  0.00     0.132 A
HETATM   19  C11 UNL     1      42.517 -49.516  74.255  1.00  0.00     0.253 A
HETATM   20  O4  UNL     1      41.379 -50.005  74.059  1.00  0.00    -0.268 OA
HETATM   21  N4  UNL     1      42.616 -48.233  74.663  1.00  0.00    -0.269 N
HETATM   22  C12 UNL     1      43.832 -47.682  74.882  1.00  0.00     0.374 A
ATOM     23  H4  UNL     1      41.773 -47.678  74.807  1.00  0.00     0.174 HD
HETATM   24  O5  UNL     1      43.876 -46.485  75.262  1.00  0.00    -0.238 OA
HETATM   25  O6  UNL     1      44.911 -48.410  74.690  1.00  0.00    -0.242 OA
ENDBRANCH  15  17
ENDBRANCH  13  15
ENDBRANCH   5  11
BRANCH   6  26
HETATM   26  O7  UNL     1      49.707 -47.936  74.592  1.00  0.00    -0.355 OA
ATOM     27  H7  UNL     1      50.207 -47.162  74.361  1.00  0.00     0.218 HD
ENDBRANCH   6  26
BRANCH   1  28
HETATM   28  C4  UNL     1      53.979 -51.607  79.142  1.00  0.00     0.123 C
HETATM   29  N1  UNL     1      55.195 -51.167  79.107  1.00  0.00    -0.395 N
ATOM     30  H1  UNL     1      55.452 -50.444  78.434  1.00  0.00     0.159 HD
BRANCH  29  31
HETATM   31  C3  UNL     1      56.182 -51.684  80.002  1.00  0.00     0.145 C
BRANCH  31  32
HETATM   32  C2  UNL     1      57.019 -50.595  80.619  1.00  0.00     0.117 C
HETATM   33  C1  UNL     1      58.371 -51.202  80.960  1.00  0.00     0.035 C
BRANCH  32  34
HETATM   34  N5  UNL     1      56.381 -50.090  81.802  1.00  0.00    -0.289 N
ATOM     35  H5  UNL     1      56.749 -50.340  82.720  1.00  0.00     0.184 HD
BRANCH  34  36
HETATM   36  N6  UNL     1      55.262 -49.261  81.708  1.00  0.00    -0.106 N
HETATM   37  N7  UNL     1      54.342 -49.274  82.572  1.00  0.00    -0.304 N
ATOM     38  H72 UNL     1      54.426 -49.915  83.361  1.00  0.00     0.180 HD
ATOM     39  H71 UNL     1      53.524 -48.668  82.504  1.00  0.00     0.180 HD
BRANCH  36  40
HETATM   40  O10 UNL     1      55.150 -48.398  80.648  1.00  0.00    -0.254 OA
ATOM     41  H10 UNL     1      55.890 -48.275  80.066  1.00  0.00     0.248 HD
ENDBRANCH  36  40
ENDBRANCH  34  36
ENDBRANCH  32  34
ENDBRANCH  31  32
ENDBRANCH  29  31
ENDBRANCH   1  28
BRANCH  10  42
HETATM   42  O9  UNL     1      53.816 -48.669  78.114  1.00  0.00    -0.357 OA
ATOM     43  H9  UNL     1      53.661 -47.734  78.036  1.00  0.00     0.218 HD
ENDBRANCH  10  42
TORSDOF 11
ENDMDL