MODEL 5
REMARK VINA RESULT: -7.386180117      1.510      2.561
REMARK  10 active torsions:
REMARK  status: ('A' for Active; 'I' for Inactive)
REMARK       I    between atoms: N1_2  and  C2_4
REMARK       I    between atoms: C2_4  and  N3_9
REMARK    1  A    between atoms: N2_5  and  O1_7
REMARK    2  A    between atoms: N3_9  and  C3_11
REMARK    3  A    between atoms: C6_14  and  N4_15
REMARK    4  A    between atoms: N4_15  and  N5_17
REMARK    5  A    between atoms: N5_17  and  C7_19
REMARK    6  A    between atoms: C9_21  and  O2_22
REMARK    7  A    between atoms: C11_24  and  O3_25
REMARK    8  A    between atoms: C13_27  and  O4_28
REMARK    9  A    between atoms: C14_30  and  N6_31
REMARK   10  A    between atoms: C15_36  and  S1_37
ROOT
HETATM    1  C3  UNL     1      46.802 -48.686  74.342  1.00  0.00     0.090 A
HETATM    2  C4  UNL     1      46.873 -48.191  75.653  1.00  0.00     0.037 A
HETATM    3  C5  UNL     1      48.072 -48.139  76.320  1.00  0.00     0.052 A
HETATM    4  C6  UNL     1      49.207 -48.582  75.681  1.00  0.00     0.120 A
HETATM    5  N7  UNL     1      49.097 -49.045  74.437  1.00  0.00    -0.328 N
ATOM      6  H7  UNL     1      49.948 -49.370  73.979  1.00  0.00     0.168 HD
HETATM    7  C15 UNL     1      47.948 -49.118  73.736  1.00  0.00     0.179 A
ENDROOT
BRANCH   4   8
HETATM    8  N4  UNL     1      50.461 -48.528  76.380  1.00  0.00    -0.285 N
ATOM      9  H4  UNL     1      50.595 -47.937  77.200  1.00  0.00     0.188 HD
BRANCH   8  10
HETATM   10  N5  UNL     1      51.500 -49.339  75.868  1.00  0.00    -0.297 N
ATOM     11  H5  UNL     1      51.668 -49.435  74.867  1.00  0.00     0.187 HD
BRANCH  10  12
HETATM   12  C7  UNL     1      52.288 -50.005  76.822  1.00  0.00     0.086 A
HETATM   13  C8  UNL     1      53.172 -49.283  77.583  1.00  0.00     0.073 A
HETATM   14  C9  UNL     1      53.969 -49.867  78.543  1.00  0.00     0.106 A
HETATM   15  C11 UNL     1      53.888 -51.249  78.766  1.00  0.00     0.137 A
HETATM   16  C13 UNL     1      52.999 -51.959  77.997  1.00  0.00     0.137 A
HETATM   17  C14 UNL     1      52.195 -51.360  77.026  1.00  0.00     0.166 A
BRANCH  14  18
HETATM   18  O2  UNL     1      54.874 -49.190  79.336  1.00  0.00    -0.353 OA
HETATM   19  C10 UNL     1      54.572 -48.350  80.409  1.00  0.00     0.210 C
ENDBRANCH  14  18
BRANCH  15  20
HETATM   20  O3  UNL     1      54.673 -51.878  79.724  1.00  0.00    -0.351 OA
HETATM   21  C12 UNL     1      55.935 -52.376  79.257  1.00  0.00     0.210 C
ENDBRANCH  15  20
BRANCH  16  22
HETATM   22  O4  UNL     1      52.939 -53.344  78.243  1.00  0.00    -0.356 OA
ATOM     23  H4  UNL     1      52.075 -53.700  78.415  1.00  0.00     0.218 HD
ENDBRANCH  16  22
BRANCH  17  24
HETATM   24  N6  UNL     1      51.302 -52.174  76.281  1.00  0.00    -0.110 N
HETATM   25  O5  UNL     1      51.708 -53.261  75.835  1.00  0.00    -0.532 OA
HETATM   26  O6  UNL     1      50.017 -51.775  76.056  1.00  0.00    -0.532 OA
ENDBRANCH  17  24
ENDBRANCH  10  12
ENDBRANCH   8  10
ENDBRANCH   4   8
BRANCH   7  27
HETATM   27  S1  UNL     1      47.939 -49.773  72.123  1.00  0.00     0.157 S
HETATM   28  O7  UNL     1      47.389 -48.858  71.092  1.00  0.00    -0.590 OA
HETATM   29  O8  UNL     1      47.085 -51.046  72.099  1.00  0.00    -0.590 OA
HETATM   30  O9  UNL     1      49.487 -50.283  71.701  1.00  0.00    -0.590 OA
ENDBRANCH   7  27
BRANCH   1  31
HETATM   31  N3  UNL     1      45.535 -48.678  73.734  1.00  0.00    -0.187 N
HETATM   32  C2  UNL     1      44.348 -49.045  74.423  1.00  0.00     0.697 C
HETATM   33  N1  UNL     1      43.581 -48.114  75.158  1.00  0.00    -0.229 N
HETATM   34  N2  UNL     1      43.965 -50.265  74.371  1.00  0.00    -0.099 N
HETATM   35  C1  UNL     1      42.864 -48.582  76.330  1.00  0.00     0.165 C
ATOM     36  H1  UNL     1      43.533 -47.137  74.873  1.00  0.00     0.177 HD
ATOM     37  H2  UNL     1      43.113 -50.540  74.861  1.00  0.00     0.213 HD
ATOM     38  H3  UNL     1      45.464 -48.397  72.756  1.00  0.00     0.184 HD
BRANCH  34  39
HETATM   39  O1  UNL     1      44.673 -51.220  73.670  1.00  0.00    -0.276 OA
ATOM     40  H1  UNL     1      45.500 -51.019  73.248  1.00  0.00     0.245 HD
ENDBRANCH  34  39
ENDBRANCH   1  31
TORSDOF 10
ENDMDL