MODEL 2
REMARK VINA RESULT: -6.498305997      2.303      3.682
REMARK  14 active torsions:
REMARK  status: ('A' for Active; 'I' for Inactive)
REMARK    1  A    between atoms: O1_2  and  C2_3
REMARK    2  A    between atoms: C2_3  and  C3_5
REMARK    3  A    between atoms: C4_6  and  S1_7
REMARK    4  A    between atoms: S1_7  and  C5_8
REMARK    5  A    between atoms: C5_8  and  C6_9
REMARK    6  A    between atoms: C8_12  and  C9_13
REMARK    7  A    between atoms: C9_13  and  O4_15
REMARK    8  A    between atoms: C11_17  and  C12_18
REMARK    9  A    between atoms: C12_18  and  S3_19
REMARK   10  A    between atoms: S3_19  and  C13_20
REMARK   11  A    between atoms: C13_20  and  C14_21
REMARK   12  A    between atoms: C14_21  and  N1_22
REMARK   13  A    between atoms: C14_21  and  N2_26
REMARK   14  A    between atoms: N2_26  and  O5_27
ROOT
HETATM    1  C6  UNL     1      49.673 -51.337  75.149  1.00  0.00     0.062 C
HETATM    2  S2  UNL     1      50.155 -50.922  76.898  1.00  0.00    -0.162 SA
HETATM    3  C7  UNL     1      51.043 -52.455  77.245  1.00  0.00     0.089 C
HETATM    4  C8  UNL     1      50.868 -53.195  75.924  1.00  0.00     0.101 C
HETATM    5  C11 UNL     1      49.543 -52.843  75.352  1.00  0.00     0.024 C
ENDROOT
BRANCH   1   6
HETATM    6  C5  UNL     1      48.422 -50.626  74.802  1.00  0.00     0.096 C
BRANCH   6   7
HETATM    7  S1  UNL     1      47.574 -49.949  76.256  1.00  0.00    -0.109 SA
BRANCH   7   8
HETATM    8  C4  UNL     1      45.943 -49.372  75.926  1.00  0.00     0.103 A
HETATM    9  C3  UNL     1      45.853 -48.157  75.360  1.00  0.00     0.107 A
HETATM   10  C16 UNL     1      44.536 -47.612  75.050  1.00  0.00     0.128 A
HETATM   11  C15 UNL     1      43.387 -48.292  75.314  1.00  0.00     0.214 A
HETATM   12  N5  UNL     1      43.759 -46.633  74.563  1.00  0.00    -0.254 N
HETATM   13  N4  UNL     1      43.473 -49.562  75.905  1.00  0.00    -0.275 N
HETATM   14  O6  UNL     1      42.680 -47.312  74.828  1.00  0.00    -0.215 OA
HETATM   15  N3  UNL     1      44.757 -50.081  76.202  1.00  0.00    -0.291 N
ATOM     16  H4  UNL     1      42.631 -50.098  76.116  1.00  0.00     0.189 HD
ATOM     17  H3  UNL     1      44.825 -51.003  76.632  1.00  0.00     0.187 HD
ATOM     18  H5  UNL     1      43.941 -45.719  74.149  1.00  0.00     0.195 HD
BRANCH   9  19
HETATM   19  C2  UNL     1      47.066 -47.397  75.056  1.00  0.00     0.298 C
HETATM   20  O2  UNL     1      47.592 -46.698  75.955  1.00  0.00    -0.259 OA
BRANCH  19  21
HETATM   21  O1  UNL     1      47.655 -47.419  73.814  1.00  0.00    -0.322 OA
HETATM   22  C1  UNL     1      47.095 -47.954  72.653  1.00  0.00     0.213 C
ENDBRANCH  19  21
ENDBRANCH   9  19
ENDBRANCH   7   8
ENDBRANCH   6   7
ENDBRANCH   1   6
BRANCH   5  23
HETATM   23  C12 UNL     1      49.254 -53.612  74.113  1.00  0.00     0.080 C
BRANCH  23  24
HETATM   24  S3  UNL     1      47.727 -54.552  74.113  1.00  0.00    -0.165 SA
BRANCH  24  25
HETATM   25  C13 UNL     1      46.415 -53.790  73.161  1.00  0.00     0.126 C
BRANCH  25  26
HETATM   26  C14 UNL     1      45.735 -52.763  74.060  1.00  0.00     0.311 C
BRANCH  26  27
HETATM   27  N1  UNL     1      44.532 -53.321  74.633  1.00  0.00    -0.058 N
ATOM     28  H13 UNL     1      43.708 -52.760  74.411  1.00  0.00     0.276 HD
ATOM     29  H12 UNL     1      44.254 -54.185  74.168  1.00  0.00     0.276 HD
ATOM     30  H11 UNL     1      44.646 -53.448  75.638  1.00  0.00     0.276 HD
ENDBRANCH  26  27
BRANCH  26  31
HETATM   31  N2  UNL     1      45.301 -51.672  73.183  1.00  0.00    -0.070 NA
BRANCH  31  32
HETATM   32  O5  UNL     1      44.060 -51.264  73.547  1.00  0.00    -0.294 OA
ATOM     33  H5  UNL     1      43.412 -51.858  73.188  1.00  0.00     0.238 HD
ENDBRANCH  31  32
ENDBRANCH  26  31
ENDBRANCH  25  26
ENDBRANCH  24  25
ENDBRANCH  23  24
ENDBRANCH   5  23
BRANCH   4  34
HETATM   34  C9  UNL     1      51.178 -54.620  76.079  1.00  0.00     0.263 C
HETATM   35  O3  UNL     1      50.616 -55.445  76.799  1.00  0.00    -0.265 OA
BRANCH  34  36
HETATM   36  O4  UNL     1      52.257 -55.106  75.311  1.00  0.00    -0.326 OA
HETATM   37  C10 UNL     1      53.572 -54.623  75.536  1.00  0.00     0.213 C
ENDBRANCH  34  36
ENDBRANCH   4  34
TORSDOF 14
ENDMDL