MODEL 4
REMARK VINA RESULT: -7.362277970      3.491      7.243
REMARK  11 active torsions:
REMARK  status: ('A' for Active; 'I' for Inactive)
REMARK    1  A    between atoms: N1_2  and  C1_4
REMARK    2  A    between atoms: C3_6  and  N2_7
REMARK    3  A    between atoms: C4_10  and  N3_11
REMARK    4  A    between atoms: N3_11  and  N4_13
REMARK    5  A    between atoms: N4_13  and  C5_15
REMARK    6  A    between atoms: C5_15  and  O5_16
REMARK    7  A    between atoms: C5_15  and  C6_18
REMARK    8  A    between atoms: N7_24  and  N8_26
REMARK    9  A    between atoms: C8_28  and  C9_29
REMARK   10  A    between atoms: C12_34  and  O6_35
REMARK   11  A    between atoms: C13_38  and  N10_39
ROOT
HETATM    1  C5  UNL     1      49.728 -50.139  73.807  1.00  0.00     0.310 C
ENDROOT
BRANCH   1   2
HETATM    2  N4  UNL     1      48.952 -50.979  73.008  1.00  0.00    -0.300 N
ATOM      3  H4  UNL     1      49.416 -51.706  72.462  1.00  0.00     0.183 HD
BRANCH   2   4
HETATM    4  N3  UNL     1      47.608 -50.864  72.932  1.00  0.00    -0.298 N
ATOM      5  H3  UNL     1      47.053 -51.572  72.451  1.00  0.00     0.187 HD
BRANCH   4   6
HETATM    6  C4  UNL     1      46.979 -49.735  73.534  1.00  0.00     0.114 A
HETATM    7  C3  UNL     1      46.542 -49.758  74.844  1.00  0.00     0.135 A
HETATM    8  C2  UNL     1      45.939 -48.660  75.436  1.00  0.00     0.074 A
HETATM    9  C1  UNL     1      45.742 -47.485  74.743  1.00  0.00     0.107 A
HETATM   10  C14 UNL     1      46.164 -47.444  73.453  1.00  0.00     0.074 A
HETATM   11  C13 UNL     1      46.774 -48.556  72.855  1.00  0.00     0.135 A
BRANCH   7  12
HETATM   12  N2  UNL     1      46.708 -50.920  75.625  1.00  0.00    -0.113 N
HETATM   13  O3  UNL     1      45.983 -51.901  75.416  1.00  0.00    -0.532 OA
HETATM   14  O4  UNL     1      47.656 -50.964  76.601  1.00  0.00    -0.532 OA
ENDBRANCH   7  12
BRANCH   9  15
HETATM   15  N1  UNL     1      45.117 -46.352  75.361  1.00  0.00    -0.116 N
HETATM   16  O1  UNL     1      43.974 -46.034  74.982  1.00  0.00    -0.532 OA
HETATM   17  O2  UNL     1      45.789 -45.670  76.329  1.00  0.00    -0.532 OA
ENDBRANCH   9  15
BRANCH  11  18
HETATM   18  N10 UNL     1      47.174 -48.431  71.500  1.00  0.00    -0.113 N
HETATM   19  O8  UNL     1      48.216 -48.953  71.048  1.00  0.00    -0.532 OA
HETATM   20  O9  UNL     1      46.396 -47.713  70.648  1.00  0.00    -0.532 OA
ENDBRANCH  11  18
ENDBRANCH   4   6
ENDBRANCH   2   4
ENDBRANCH   1   2
BRANCH   1  21
HETATM   21  O5  UNL     1      50.647 -49.418  73.006  1.00  0.00    -0.368 OA
ATOM     22  H5  UNL     1      51.536 -49.608  73.280  1.00  0.00     0.212 HD
ENDBRANCH   1  21
BRANCH   1  23
HETATM   23  C6  UNL     1      50.478 -50.740  74.912  1.00  0.00     0.192 A
HETATM   24  N5  UNL     1      50.425 -52.000  75.350  1.00  0.00    -0.276 N
HETATM   25  N6  UNL     1      51.258 -52.132  76.364  1.00  0.00    -0.262 N
ATOM     26  H5  UNL     1      49.837 -52.738  74.964  1.00  0.00     0.189 HD
HETATM   27  C7  UNL     1      51.829 -50.934  76.550  1.00  0.00     0.260 A
ATOM     28  H6  UNL     1      51.433 -52.980  76.902  1.00  0.00     0.190 HD
HETATM   29  N7  UNL     1      52.723 -50.609  77.453  1.00  0.00    -0.264 N
HETATM   30  O7  UNL     1      51.346 -50.122  75.670  1.00  0.00    -0.258 OA
ATOM     31  H7  UNL     1      53.068 -49.650  77.472  1.00  0.00     0.190 HD
BRANCH  29  32
HETATM   32  N8  UNL     1      53.214 -51.494  78.371  1.00  0.00    -0.308 N
HETATM   33  C8  UNL     1      53.772 -51.291  79.487  1.00  0.00     0.123 C
ATOM     34  H8  UNL     1      53.114 -52.476  78.114  1.00  0.00     0.186 HD
BRANCH  33  35
HETATM   35  C9  UNL     1      54.038 -49.997  80.086  1.00  0.00     0.033 A
HETATM   36  C10 UNL     1      53.912 -49.576  81.387  1.00  0.00     0.034 A
HETATM   37  C11 UNL     1      54.282 -48.244  81.495  1.00  0.00     0.091 A
HETATM   38  N9  UNL     1      54.637 -47.836  80.269  1.00  0.00    -0.346 N
HETATM   39  C12 UNL     1      54.502 -48.856  79.410  1.00  0.00     0.151 A
ATOM     40  H9  UNL     1      54.958 -46.898  80.028  1.00  0.00     0.167 HD
BRANCH  39  41
HETATM   41  O6  UNL     1      54.787 -48.766  78.054  1.00  0.00    -0.345 OA
ATOM     42  H6  UNL     1      55.640 -48.605  77.670  1.00  0.00     0.219 HD
ENDBRANCH  39  41
ENDBRANCH  33  35
ENDBRANCH  29  32
ENDBRANCH   1  23
TORSDOF 11
ENDMDL