MODEL 3
REMARK VINA RESULT: -7.586841586      1.501      1.594
REMARK  11 active torsions:
REMARK  status: ('A' for Active; 'I' for Inactive)
REMARK    1  A    between atoms: C1_2  and  C2_4
REMARK    2  A    between atoms: C3_6  and  C4_7
REMARK    3  A    between atoms: C4_7  and  C5_8
REMARK    4  A    between atoms: C5_8  and  C6_9
REMARK    5  A    between atoms: C6_9  and  C7_10
REMARK    6  A    between atoms: C7_10  and  N2_11
REMARK    7  A    between atoms: N2_11  and  C8_13
REMARK    8  A    between atoms: C12_22  and  S2_23
REMARK    9  A    between atoms: S2_23  and  C13_24
REMARK   10  A    between atoms: C15_29  and  N7_30
REMARK   11  A    between atoms: N7_30  and  C16_32
ROOT
HETATM    1  C2  UNL     1      50.296 -49.654  75.402  1.00  0.00     0.089 A
HETATM    2  S1  UNL     1      51.863 -50.088  75.905  1.00  0.00    -0.086 SA
HETATM    3  C3  UNL     1      51.469 -51.144  77.168  1.00  0.00     0.009 A
HETATM    4  C11 UNL     1      50.099 -51.140  77.174  1.00  0.00     0.078 A
HETATM    5  N5  UNL     1      49.418 -51.970  78.165  1.00  0.00    -0.100 NA
HETATM    6  C12 UNL     1      49.479 -50.363  76.254  1.00  0.00     0.053 A
ENDROOT
BRANCH   6   7
HETATM    7  S2  UNL     1      47.678 -50.177  76.037  1.00  0.00    -0.081 SA
BRANCH   7   8
HETATM    8  C13 UNL     1      47.052 -50.966  74.613  1.00  0.00     0.076 A
HETATM    9  C14 UNL     1      46.860 -52.318  74.428  1.00  0.00     0.137 A
HETATM   10  N6  UNL     1      46.348 -52.476  73.193  1.00  0.00    -0.269 N
HETATM   11  O2  UNL     1      46.224 -51.328  72.638  1.00  0.00    -0.219 OA
ATOM     12  H6  UNL     1      46.099 -53.368  72.766  1.00  0.00     0.194 HD
HETATM   13  C15 UNL     1      46.637 -50.359  73.454  1.00  0.00     0.191 A
BRANCH  13  14
HETATM   14  N7  UNL     1      46.602 -48.992  73.075  1.00  0.00    -0.305 N
ATOM     15  H7  UNL     1      47.042 -48.732  72.192  1.00  0.00     0.171 HD
BRANCH  14  16
HETATM   16  C16 UNL     1      46.000 -47.966  73.840  1.00  0.00     0.194 C
HETATM   17  N8  UNL     1      44.755 -47.704  73.937  1.00  0.00    -0.346 N
HETATM   18  C17 UNL     1      44.506 -46.580  74.809  1.00  0.00     0.259 C
ATOM     19  H8  UNL     1      44.022 -48.226  73.455  1.00  0.00     0.163 HD
HETATM   20  N9  UNL     1      45.753 -46.403  75.507  1.00  0.00    -0.119 NA
HETATM   21  N10 UNL     1      46.685 -47.024  74.650  1.00  0.00    -0.274 N
ATOM     22  H10 UNL     1      47.685 -46.829  74.619  1.00  0.00     0.185 HD
ENDBRANCH  14  16
ENDBRANCH  13  14
ENDBRANCH   7   8
ENDBRANCH   6   7
BRANCH   1  23
HETATM   23  C1  UNL     1      49.915 -48.734  74.308  1.00  0.00     0.273 C
HETATM   24  N1  UNL     1      49.910 -49.255  72.997  1.00  0.00    -0.057 NA
HETATM   25  O1  UNL     1      49.612 -47.560  74.516  1.00  0.00    -0.270 OA
ENDBRANCH   1  23
BRANCH   3  26
HETATM   26  C4  UNL     1      52.415 -51.895  78.045  1.00  0.00     0.048 C
BRANCH  26  27
HETATM   27  C5  UNL     1      52.973 -51.001  79.148  1.00  0.00     0.007 C
BRANCH  27  28
HETATM   28  C6  UNL     1      54.462 -50.924  79.070  1.00  0.00     0.020 C
BRANCH  28  29
HETATM   29  C7  UNL     1      54.974 -49.530  78.986  1.00  0.00     0.122 C
BRANCH  29  30
HETATM   30  N2  UNL     1      54.966 -48.797  80.202  1.00  0.00    -0.362 N
ATOM     31  H2  UNL     1      54.704 -47.814  80.123  1.00  0.00     0.162 HD
BRANCH  30  32
HETATM   32  C8  UNL     1      55.271 -49.244  81.502  1.00  0.00     0.171 C
HETATM   33  N3  UNL     1      54.561 -49.280  82.586  1.00  0.00    -0.361 N
HETATM   34  C9  UNL     1      55.281 -49.822  83.699  1.00  0.00     0.142 C
ATOM     35  H3  UNL     1      53.595 -48.957  82.640  1.00  0.00     0.162 HD
HETATM   36  C10 UNL     1      56.720 -49.670  83.270  1.00  0.00     0.142 C
HETATM   37  N4  UNL     1      56.587 -49.755  81.830  1.00  0.00    -0.361 N
ATOM     38  H4  UNL     1      57.285 -50.107  81.174  1.00  0.00     0.162 HD
ENDBRANCH  30  32
ENDBRANCH  29  30
ENDBRANCH  28  29
ENDBRANCH  27  28
ENDBRANCH  26  27
ENDBRANCH   3  26
TORSDOF 11
ENDMDL