MODEL 4
REMARK VINA RESULT: -7.423162636      1.490      6.252
REMARK  11 active torsions:
REMARK  status: ('A' for Active; 'I' for Inactive)
REMARK    1  A    between atoms: C1_2  and  C2_4
REMARK    2  A    between atoms: C4_6  and  C5_7
REMARK    3  A    between atoms: C5_7  and  O2_8
REMARK    4  A    between atoms: C6_10  and  O3_11
REMARK    5  A    between atoms: C7_13  and  N2_14
REMARK    6  A    between atoms: C8_17  and  N3_18
REMARK    7  A    between atoms: N3_18  and  N4_20
REMARK    8  A    between atoms: N4_20  and  C9_22
REMARK    9  A    between atoms: C10_23  and  N5_24
REMARK   10  A    between atoms: C12_28  and  N6_29
REMARK   11  A    between atoms: C14_34  and  C15_35
ROOT
HETATM    1  N3  UNL     1      47.710 -50.947  72.833  1.00  0.00    -0.297 N
ATOM      2  H3  UNL     1      47.188 -51.412  72.090  1.00  0.00     0.187 HD
ENDROOT
BRANCH   1   3
HETATM    3  C8  UNL     1      47.014 -49.891  73.442  1.00  0.00     0.099 A
HETATM    4  C2  UNL     1      46.825 -48.747  72.670  1.00  0.00     0.060 A
HETATM    5  C3  UNL     1      46.113 -47.667  73.181  1.00  0.00     0.031 A
HETATM    6  C4  UNL     1      45.578 -47.681  74.437  1.00  0.00     0.002 A
HETATM    7  C6  UNL     1      45.764 -48.802  75.192  1.00  0.00     0.109 A
HETATM    8  C7  UNL     1      46.475 -49.892  74.696  1.00  0.00     0.165 A
BRANCH   4   9
HETATM    9  C1  UNL     1      47.296 -48.617  71.309  1.00  0.00     0.267 C
HETATM   10  N1  UNL     1      46.745 -47.652  70.439  1.00  0.00    -0.057 NA
HETATM   11  O1  UNL     1      48.204 -49.364  70.895  1.00  0.00    -0.271 OA
ENDBRANCH   4   9
BRANCH   6  12
HETATM   12  C5  UNL     1      44.802 -46.519  74.986  1.00  0.00     0.205 C
BRANCH  12  13
HETATM   13  O2  UNL     1      45.524 -45.986  76.049  1.00  0.00    -0.396 OA
ATOM     14  H2  UNL     1      45.652 -45.059  75.881  1.00  0.00     0.209 HD
ENDBRANCH  12  13
ENDBRANCH   6  12
BRANCH   7  15
HETATM   15  O3  UNL     1      45.232 -48.839  76.462  1.00  0.00    -0.357 OA
ATOM     16  H3  UNL     1      45.743 -49.235  77.158  1.00  0.00     0.217 HD
ENDBRANCH   7  15
BRANCH   8  17
HETATM   17  N2  UNL     1      46.636 -51.029  75.529  1.00  0.00    -0.110 N
HETATM   18  O4  UNL     1      46.020 -52.071  75.205  1.00  0.00    -0.532 OA
HETATM   19  O5  UNL     1      47.455 -50.947  76.629  1.00  0.00    -0.532 OA
ENDBRANCH   8  17
ENDBRANCH   1   3
BRANCH   1  20
HETATM   20  N4  UNL     1      48.948 -51.469  73.045  1.00  0.00    -0.297 N
ATOM     21  H4  UNL     1      49.403 -51.804  72.196  1.00  0.00     0.187 HD
BRANCH  20  22
HETATM   22  C9  UNL     1      49.718 -51.634  74.204  1.00  0.00     0.100 A
HETATM   23  C10 UNL     1      50.374 -50.524  74.741  1.00  0.00     0.134 A
HETATM   24  C11 UNL     1      51.151 -50.668  75.896  1.00  0.00     0.076 A
HETATM   25  C12 UNL     1      51.269 -51.895  76.497  1.00  0.00     0.130 A
HETATM   26  C13 UNL     1      50.630 -52.992  75.975  1.00  0.00     0.098 A
HETATM   27  N7  UNL     1      50.764 -54.274  76.590  1.00  0.00    -0.099 NA
HETATM   28  C14 UNL     1      49.848 -52.850  74.813  1.00  0.00     0.098 A
BRANCH  23  29
HETATM   29  N5  UNL     1      50.288 -49.255  74.119  1.00  0.00    -0.113 N
HETATM   30  O6  UNL     1      50.458 -49.111  72.908  1.00  0.00    -0.532 OA
HETATM   31  O7  UNL     1      50.029 -48.161  74.899  1.00  0.00    -0.532 OA
ENDBRANCH  23  29
BRANCH  25  32
HETATM   32  N6  UNL     1      52.054 -52.048  77.681  1.00  0.00    -0.114 N
HETATM   33  O8  UNL     1      52.823 -52.997  77.766  1.00  0.00    -0.532 OA
HETATM   34  O9  UNL     1      51.924 -51.136  78.690  1.00  0.00    -0.532 OA
ENDBRANCH  25  32
BRANCH  28  35
HETATM   35  C15 UNL     1      49.209 -54.042  74.319  1.00  0.00     0.213 C
HETATM   36  O10 UNL     1      48.211 -54.529  74.931  1.00  0.00    -0.644 OA
HETATM   37  O11 UNL     1      49.662 -54.669  73.191  1.00  0.00    -0.644 OA
ENDBRANCH  28  35
ENDBRANCH  20  22
ENDBRANCH   1  20
TORSDOF 11
ENDMDL