MODEL 1
REMARK VINA RESULT: -6.288227063      0.000      0.000
REMARK  8 active torsions:
REMARK  status: ('A' for Active; 'I' for Inactive)
REMARK    1  A    between atoms: C3_6  and  C4_7
REMARK    2  A    between atoms: C4_7  and  C5_8
REMARK    3  A    between atoms: C5_8  and  N3_9
REMARK    4  A    between atoms: C7_14  and  N4_15
REMARK    5  A    between atoms: N5_18  and  C8_19
REMARK    6  A    between atoms: C8_19  and  C9_20
REMARK    7  A    between atoms: C9_20  and  O1_21
REMARK    8  A    between atoms: O1_21  and  C10_22
ROOT
HETATM    1  C1  UNL     1     -21.645  88.658  14.543  1.00  0.00     0.233 C
HETATM    2  N1  UNL     1     -21.795  89.666  13.971  1.00  0.00    -0.395 NA
HETATM    3  C2  UNL     1     -21.991  90.869  13.324  1.00  0.00     0.262 A
HETATM    4  N2  UNL     1     -23.171  91.494  13.438  1.00  0.00    -0.320 N
ATOM      5  H2  UNL     1     -23.908  91.053  13.989  1.00  0.00     0.170 HD
HETATM    6  C3  UNL     1     -23.421  92.676  12.857  1.00  0.00     0.018 A
HETATM    7  C6  UNL     1     -22.410  93.232  12.132  1.00  0.00     0.073 A
HETATM    8  C7  UNL     1     -21.182  92.558  12.027  1.00  0.00     0.106 A
HETATM    9  N5  UNL     1     -20.937  91.380  12.604  1.00  0.00    -0.291 N
ENDROOT
BRANCH   9  10
HETATM   10  C8  UNL     1     -19.693  90.656  12.544  1.00  0.00     0.161 C
BRANCH  10  11
HETATM   11  C9  UNL     1     -18.613  91.071  13.451  1.00  0.00     0.196 C
BRANCH  11  12
HETATM   12  O1  UNL     1     -18.733  91.074  14.810  1.00  0.00    -0.350 OA
BRANCH  12  13
HETATM   13  C10 UNL     1     -18.653  90.123  15.768  1.00  0.00     0.068 A
HETATM   14  C11 UNL     1     -19.074  90.212  17.075  1.00  0.00     0.037 A
HETATM   15  C12 UNL     1     -18.955  89.194  17.987  1.00  0.00     0.003 A
HETATM   16  C13 UNL     1     -18.384  88.014  17.581  1.00  0.00     0.000 A
HETATM   17  C14 UNL     1     -17.943  87.857  16.294  1.00  0.00     0.003 A
HETATM   18  C15 UNL     1     -18.078  88.898  15.403  1.00  0.00     0.037 A
ENDBRANCH  12  13
ENDBRANCH  11  12
ENDBRANCH  10  11
ENDBRANCH   9  10
BRANCH   6  19
HETATM   19  C4  UNL     1     -24.741  93.330  13.011  1.00  0.00     0.084 C
BRANCH  19  20
HETATM   20  C5  UNL     1     -24.527  94.524  13.936  1.00  0.00     0.235 C
BRANCH  20  21
HETATM   21  N3  UNL     1     -25.083  94.206  15.217  1.00  0.00    -0.079 N
ATOM     22  H33 UNL     1     -26.073  94.442  15.285  1.00  0.00     0.274 HD
ATOM     23  H32 UNL     1     -25.169  93.201  15.369  1.00  0.00     0.274 HD
ATOM     24  H31 UNL     1     -24.520  94.665  15.933  1.00  0.00     0.274 HD
ENDBRANCH  20  21
ENDBRANCH  19  20
ENDBRANCH   6  19
BRANCH   8  25
HETATM   25  N4  UNL     1     -20.225  93.135  11.368  1.00  0.00    -0.385 N
ATOM     26  H42 UNL     1     -20.024  94.116  11.562  1.00  0.00     0.157 HD
ATOM     27  H41 UNL     1     -19.735  92.590  10.659  1.00  0.00     0.157 HD
ENDBRANCH   8  25
TORSDOF 8
ENDMDL