MODEL 2
REMARK VINA RESULT: -6.167988410      3.352      5.366
REMARK  6 active torsions:
REMARK  status: ('A' for Active; 'I' for Inactive)
REMARK    1  A    between atoms: C2_2  and  C3_3
REMARK    2  A    between atoms: C6_10  and  C7_11
REMARK    3  A    between atoms: C7_11  and  C8_12
REMARK    4  A    between atoms: C8_12  and  C9_13
REMARK    5  A    between atoms: C9_13  and  C10_14
REMARK    6  A    between atoms: C10_14  and  C11_15
ROOT
HETATM    1  C3  UNL     1     -23.474  92.958  11.316  1.00  0.00     0.154 A
HETATM    2  N1  UNL     1     -22.487  93.868  11.821  1.00  0.00    -0.363 N
ATOM      3  H1  UNL     1     -22.483  94.879  11.684  1.00  0.00     0.162 HD
HETATM    4  C4  UNL     1     -21.611  93.196  12.475  1.00  0.00     0.114 A
HETATM    5  N2  UNL     1     -20.454  93.391  13.188  1.00  0.00    -0.351 N
ATOM      6  H2  UNL     1     -20.013  94.298  13.344  1.00  0.00     0.166 HD
HETATM    7  C5  UNL     1     -19.988  92.224  13.649  1.00  0.00     0.097 A
HETATM    8  C6  UNL     1     -20.870  91.265  13.218  1.00  0.00    -0.027 A
HETATM    9  C16 UNL     1     -21.897  91.850  12.479  1.00  0.00     0.038 A
HETATM   10  C17 UNL     1     -23.007  91.644  11.797  1.00  0.00     0.065 A
HETATM   11  N4  UNL     1     -23.668  90.422  11.546  1.00  0.00    -0.103 NA
ENDROOT
BRANCH   8  12
HETATM   12  C7  UNL     1     -20.761  89.800  13.487  1.00  0.00     0.041 C
BRANCH  12  13
HETATM   13  C8  UNL     1     -21.781  89.374  14.497  1.00  0.00     0.005 C
BRANCH  13  14
HETATM   14  C9  UNL     1     -21.552  87.952  14.905  1.00  0.00     0.006 C
BRANCH  14  15
HETATM   15  C10 UNL     1     -21.500  87.849  16.406  1.00  0.00     0.057 C
BRANCH  15  16
HETATM   16  C11 UNL     1     -20.084  88.207  16.784  1.00  0.00     0.009 A
HETATM   17  C12 UNL     1     -19.906  89.300  17.588  1.00  0.00     0.025 A
HETATM   18  C13 UNL     1     -18.603  89.623  17.934  1.00  0.00     0.003 A
HETATM   19  C14 UNL     1     -17.598  88.820  17.443  1.00  0.00     0.017 A
HETATM   20  C15 UNL     1     -17.824  87.724  16.633  1.00  0.00     0.088 A
HETATM   21  N3  UNL     1     -19.111  87.424  16.305  1.00  0.00    -0.369 N
ATOM     22  H3  UNL     1     -19.327  86.624  15.710  1.00  0.00     0.165 HD
ENDBRANCH  15  16
ENDBRANCH  14  15
ENDBRANCH  13  14
ENDBRANCH  12  13
ENDBRANCH   8  12
BRANCH   1  23
HETATM   23  C2  UNL     1     -24.841  93.278  11.783  1.00  0.00    -0.006 C
HETATM   24  C1  UNL     1     -25.726  93.818  10.979  1.00  0.00     0.009 C
ENDBRANCH   1  23
TORSDOF 6
ENDMDL