MODEL 3
REMARK VINA RESULT: -6.247786850      2.748      3.421
REMARK  6 active torsions:
REMARK  status: ('A' for Active; 'I' for Inactive)
REMARK    1  A    between atoms: N3_4  and  C2_6
REMARK    2  A    between atoms: C2_6  and  C3_7
REMARK    3  A    between atoms: C3_7  and  C4_8
REMARK    4  A    between atoms: C4_8  and  N4_9
REMARK    5  A    between atoms: N5_12  and  C7_13
REMARK    6  A    between atoms: C7_13  and  C8_14
ROOT
HETATM    1  N4  UNL     1     -22.518  92.068  13.094  1.00  0.00     0.091 N
HETATM    2  C5  UNL     1     -21.496  92.265  12.090  1.00  0.00     0.302 C
HETATM    3  C6  UNL     1     -20.271  91.416  12.365  1.00  0.00     0.303 C
HETATM    4  N5  UNL     1     -20.293  90.751  13.627  1.00  0.00     0.096 N
HETATM    5  C14 UNL     1     -21.516  90.049  13.903  1.00  0.00     0.303 C
HETATM    6  C15 UNL     1     -22.704  90.609  13.196  1.00  0.00     0.302 C
ENDROOT
BRANCH   1   7
HETATM    7  C4  UNL     1     -23.748  92.691  12.671  1.00  0.00     0.274 C
BRANCH   7   8
HETATM    8  C3  UNL     1     -23.869  94.094  13.204  1.00  0.00     0.050 C
BRANCH   8   9
HETATM    9  C2  UNL     1     -25.286  94.350  13.688  1.00  0.00     0.123 C
BRANCH   9  10
HETATM   10  N3  UNL     1     -25.630  93.600  14.857  1.00  0.00    -0.367 N
HETATM   11  C1  UNL     1     -26.677  92.863  14.979  1.00  0.00     0.196 C
HETATM   12  N1  UNL     1     -27.569  92.786  13.865  1.00  0.00    -0.067 NA
HETATM   13  N2  UNL     1     -26.951  92.141  16.192  1.00  0.00    -0.067 NA
ATOM     14  H3  UNL     1     -24.996  93.653  15.654  1.00  0.00     0.161 HD
ENDBRANCH   9  10
ENDBRANCH   8   9
ENDBRANCH   7   8
ENDBRANCH   1   7
BRANCH   4  15
HETATM   15  C7  UNL     1     -19.216  89.782  13.664  1.00  0.00     0.311 C
BRANCH  15  16
HETATM   16  C8  UNL     1     -18.788  89.402  15.014  1.00  0.00    -0.030 A
HETATM   17  C9  UNL     1     -18.470  88.059  15.243  1.00  0.00     0.009 A
HETATM   18  C10 UNL     1     -18.071  87.695  16.520  1.00  0.00     0.001 A
HETATM   19  C11 UNL     1     -17.973  88.568  17.556  1.00  0.00     0.000 A
HETATM   20  C12 UNL     1     -18.287  89.890  17.321  1.00  0.00     0.001 A
HETATM   21  C13 UNL     1     -18.689  90.298  16.064  1.00  0.00     0.009 A
ENDBRANCH  15  16
ENDBRANCH   4  15
TORSDOF 6
ENDMDL