MODEL 2
REMARK VINA RESULT: -6.005638197      0.139      1.048
REMARK  9 active torsions:
REMARK  status: ('A' for Active; 'I' for Inactive)
REMARK    1  A    between atoms: N1_2  and  C2_3
REMARK    2  A    between atoms: N1_2  and  C4_7
REMARK    3  A    between atoms: C2_3  and  C3_4
REMARK    4  A    between atoms: C3_4  and  O1_5
REMARK    5  A    between atoms: C4_7  and  C5_8
REMARK    6  A    between atoms: C5_8  and  C6_9
REMARK    7  A    between atoms: C9_12  and  C10_13
REMARK    8  A    between atoms: C10_13  and  N2_14
REMARK    9  A    between atoms: C13_17  and  N3_18
ROOT
HETATM    1  C6  UNL     1     -18.911  93.101  11.878  1.00  0.00    -0.053 A
HETATM    2  C7  UNL     1     -19.463  93.255  13.128  1.00  0.00     0.008 A
HETATM    3  C8  UNL     1     -19.073  92.469  14.220  1.00  0.00     0.009 A
HETATM    4  C9  UNL     1     -18.102  91.508  14.033  1.00  0.00    -0.040 A
HETATM    5  C15 UNL     1     -17.534  91.343  12.764  1.00  0.00     0.009 A
HETATM    6  C16 UNL     1     -17.936  92.130  11.707  1.00  0.00     0.008 A
ENDROOT
BRANCH   4   7
HETATM    7  C10 UNL     1     -17.586  90.607  15.078  1.00  0.00     0.167 C
BRANCH   7   8
HETATM    8  N2  UNL     1     -18.545  89.692  15.614  1.00  0.00    -0.349 N
HETATM    9  C11 UNL     1     -19.192  89.940  16.762  1.00  0.00     0.096 A
HETATM   10  C12 UNL     1     -20.116  89.074  17.299  1.00  0.00     0.065 A
HETATM   11  C13 UNL     1     -20.388  87.904  16.629  1.00  0.00     0.100 A
HETATM   12  N4  UNL     1     -19.731  87.658  15.471  1.00  0.00    -0.339 N
HETATM   13  C14 UNL     1     -18.839  88.534  14.987  1.00  0.00     0.184 A
ATOM     14  H4  UNL     1     -19.919  86.796  14.960  1.00  0.00     0.168 HD
BRANCH  11  15
HETATM   15  N3  UNL     1     -21.259  87.071  17.112  1.00  0.00    -0.385 N
ATOM     16  H32 UNL     1     -21.728  87.239  18.002  1.00  0.00     0.157 HD
ATOM     17  H31 UNL     1     -21.486  86.220  16.598  1.00  0.00     0.157 HD
ENDBRANCH  11  15
ENDBRANCH   7   8
ENDBRANCH   4   7
BRANCH   1  18
HETATM   18  C5  UNL     1     -19.324  93.928  10.752  1.00  0.00     0.082 C
BRANCH  18  19
HETATM   19  C4  UNL     1     -20.752  94.395  10.817  1.00  0.00     0.062 C
BRANCH  19  20
HETATM   20  N1  UNL     1     -21.681  93.689  10.029  1.00  0.00    -0.395 N
HETATM   21  C1  UNL     1     -21.894  94.057   8.692  1.00  0.00     0.148 C
BRANCH  20  22
HETATM   22  C2  UNL     1     -22.737  93.035  10.720  1.00  0.00     0.147 C
BRANCH  22  23
HETATM   23  C3  UNL     1     -22.313  91.696  11.268  1.00  0.00     0.183 C
BRANCH  23  24
HETATM   24  O1  UNL     1     -22.424  90.765  10.238  1.00  0.00    -0.399 OA
ATOM     25  H1  UNL     1     -23.237  90.291  10.365  1.00  0.00     0.209 HD
ENDBRANCH  23  24
ENDBRANCH  22  23
ENDBRANCH  20  22
ENDBRANCH  19  20
ENDBRANCH  18  19
ENDBRANCH   1  18
TORSDOF 9
ENDMDL