MODEL 4
REMARK VINA RESULT: -6.112113326      1.781      2.614
REMARK  11 active torsions:
REMARK  status: ('A' for Active; 'I' for Inactive)
REMARK    1  A    between atoms: N3_4  and  C2_6
REMARK    2  A    between atoms: C2_6  and  C3_7
REMARK    3  A    between atoms: C3_7  and  C4_8
REMARK    4  A    between atoms: C4_8  and  C5_9
REMARK    5  A    between atoms: C5_9  and  C6_10
REMARK    6  A    between atoms: C6_10  and  C7_11
REMARK    7  A    between atoms: C7_11  and  C8_12
REMARK    8  A    between atoms: C9_13  and  C10_14
REMARK    9  A    between atoms: N4_17  and  O1_18
REMARK   10  A    between atoms: C14_21  and  C15_22
REMARK   11  A    between atoms: C15_22  and  O2_23
ROOT
HETATM    1  C8  UNL     1     -18.240  88.977  14.752  1.00  0.00    -0.101 C
HETATM    2  C9  UNL     1     -18.408  89.858  13.962  1.00  0.00    -0.066 C
ENDROOT
BRANCH   1   3
HETATM    3  C7  UNL     1     -18.046  87.877  15.767  1.00  0.00     0.098 C
BRANCH   3   4
HETATM    4  C6  UNL     1     -17.634  88.567  17.003  1.00  0.00     0.039 C
BRANCH   4   5
HETATM    5  C5  UNL     1     -18.660  88.783  18.019  1.00  0.00    -0.030 C
BRANCH   5   6
HETATM    6  C4  UNL     1     -19.810  89.666  17.849  1.00  0.00    -0.029 C
BRANCH   6   7
HETATM    7  C3  UNL     1     -21.190  89.218  18.107  1.00  0.00     0.046 C
BRANCH   7   8
HETATM    8  C2  UNL     1     -21.516  88.229  16.934  1.00  0.00     0.125 C
BRANCH   8   9
HETATM    9  N3  UNL     1     -22.099  89.055  15.897  1.00  0.00    -0.367 N
HETATM   10  C1  UNL     1     -22.059  88.657  14.689  1.00  0.00     0.196 C
HETATM   11  N1  UNL     1     -21.455  87.428  14.363  1.00  0.00    -0.067 NA
HETATM   12  N2  UNL     1     -22.625  89.458  13.672  1.00  0.00    -0.067 NA
ATOM     13  H3  UNL     1     -22.537  89.945  16.133  1.00  0.00     0.161 HD
ENDBRANCH   8   9
ENDBRANCH   7   8
ENDBRANCH   6   7
ENDBRANCH   5   6
ENDBRANCH   4   5
ENDBRANCH   3   4
ENDBRANCH   1   3
BRANCH   2  14
HETATM   14  C10 UNL     1     -18.587  90.924  13.017  1.00  0.00     0.029 A
HETATM   15  C11 UNL     1     -19.802  91.105  12.361  1.00  0.00     0.041 A
HETATM   16  C12 UNL     1     -19.944  92.139  11.459  1.00  0.00     0.124 A
HETATM   17  N4  UNL     1     -18.916  92.964  11.216  1.00  0.00    -0.247 N
HETATM   18  C13 UNL     1     -17.739  92.799  11.842  1.00  0.00     0.133 A
HETATM   19  C14 UNL     1     -17.543  91.777  12.757  1.00  0.00     0.002 A
BRANCH  17  20
HETATM   20  O1  UNL     1     -19.125  93.975  10.304  1.00  0.00    -0.284 OA
ATOM     21  H1  UNL     1     -19.155  93.731   9.386  1.00  0.00     0.245 HD
ENDBRANCH  17  20
BRANCH  19  22
HETATM   22  C15 UNL     1     -16.270  91.564  13.463  1.00  0.00     0.205 C
BRANCH  22  23
HETATM   23  O2  UNL     1     -15.229  91.253  12.590  1.00  0.00    -0.396 OA
ATOM     24  H2  UNL     1     -14.638  91.986  12.461  1.00  0.00     0.209 HD
ENDBRANCH  22  23
ENDBRANCH  19  22
ENDBRANCH   2  14
TORSDOF 11
ENDMDL