MODEL 3
REMARK VINA RESULT: -6.197738993      1.759      4.179
REMARK  9 active torsions:
REMARK  status: ('A' for Active; 'I' for Inactive)
REMARK    1  A    between atoms: C3_6  and  N3_7
REMARK    2  A    between atoms: N3_7  and  C4_9
REMARK    3  A    between atoms: C4_9  and  C5_10
REMARK    4  A    between atoms: C5_10  and  N4_11
REMARK    5  A    between atoms: C6_17  and  N6_18
REMARK    6  A    between atoms: N6_18  and  C7_20
REMARK    7  A    between atoms: C7_20  and  C8_21
REMARK    8  A    between atoms: C8_21  and  C9_22
REMARK    9  A    between atoms: C9_22  and  C10_23
ROOT
HETATM    1  C1  UNL     1     -18.941  90.431  12.162  1.00  0.00     0.176 C
HETATM    2  N1  UNL     1     -20.072  91.303  12.381  1.00  0.00    -0.183 N
HETATM    3  C2  UNL     1     -20.087  92.541  11.837  1.00  0.00     0.217 A
HETATM    4  N2  UNL     1     -21.154  93.364  12.044  1.00  0.00    -0.187 N
ATOM      5  H2  UNL     1     -21.172  94.299  11.636  1.00  0.00     0.185 HD
HETATM    6  C3  UNL     1     -22.180  92.930  12.790  1.00  0.00     0.693 A
HETATM    7  N5  UNL     1     -22.123  91.668  13.323  1.00  0.00    -0.022 N
ATOM      8  H5  UNL     1     -22.907  91.342  13.890  1.00  0.00     0.203 HD
HETATM    9  C6  UNL     1     -21.086  90.843  13.133  1.00  0.00     0.695 A
ENDROOT
BRANCH   9  10
HETATM   10  N6  UNL     1     -21.021  89.663  13.624  1.00  0.00    -0.225 N
ATOM     11  H6  UNL     1     -20.145  89.154  13.502  1.00  0.00     0.177 HD
BRANCH  10  12
HETATM   12  C7  UNL     1     -22.070  88.998  14.328  1.00  0.00     0.138 C
BRANCH  12  13
HETATM   13  C8  UNL     1     -21.494  87.678  14.850  1.00  0.00     0.025 C
BRANCH  13  14
HETATM   14  C9  UNL     1     -21.428  87.744  16.380  1.00  0.00     0.040 C
BRANCH  14  15
HETATM   15  C10 UNL     1     -20.105  88.234  16.789  1.00  0.00    -0.058 A
HETATM   16  C11 UNL     1     -19.993  89.349  17.600  1.00  0.00     0.007 A
HETATM   17  C12 UNL     1     -18.749  89.815  17.988  1.00  0.00     0.001 A
HETATM   18  C13 UNL     1     -17.581  89.195  17.592  1.00  0.00     0.000 A
HETATM   19  C14 UNL     1     -17.681  88.078  16.782  1.00  0.00     0.001 A
HETATM   20  C15 UNL     1     -18.924  87.620  16.398  1.00  0.00     0.007 A
ENDBRANCH  14  15
ENDBRANCH  13  14
ENDBRANCH  12  13
ENDBRANCH  10  12
ENDBRANCH   9  10
BRANCH   6  21
HETATM   21  N3  UNL     1     -23.187  93.675  12.999  1.00  0.00    -0.224 N
ATOM     22  H3  UNL     1     -23.024  94.679  12.913  1.00  0.00     0.177 HD
BRANCH  21  23
HETATM   23  C4  UNL     1     -24.514  93.292  13.338  1.00  0.00     0.165 C
BRANCH  23  24
HETATM   24  C5  UNL     1     -25.121  94.271  14.353  1.00  0.00     0.249 C
BRANCH  24  25
HETATM   25  N4  UNL     1     -25.686  93.572  15.489  1.00  0.00    -0.078 N
ATOM     26  H43 UNL     1     -26.613  93.926  15.723  1.00  0.00     0.274 HD
ATOM     27  H42 UNL     1     -25.941  92.614  15.248  1.00  0.00     0.274 HD
ATOM     28  H41 UNL     1     -25.061  93.601  16.294  1.00  0.00     0.274 HD
ENDBRANCH  24  25
ENDBRANCH  23  24
ENDBRANCH  21  23
ENDBRANCH   6  21
TORSDOF 9
ENDMDL