MODEL 2
REMARK VINA RESULT: -6.304518318      2.952      3.858
REMARK  7 active torsions:
REMARK  status: ('A' for Active; 'I' for Inactive)
REMARK    1  A    between atoms: C2_2  and  C3_3
REMARK    2  A    between atoms: C3_3  and  N1_4
REMARK    3  A    between atoms: C9_10  and  N2_11
REMARK    4  A    between atoms: N2_11  and  C10_13
REMARK    5  A    between atoms: C10_13  and  C11_14
REMARK    6  A    between atoms: C11_14  and  C12_15
REMARK    7  A    between atoms: C12_15  and  N3_16
ROOT
HETATM    1  N1  UNL     1     -19.347  90.456  15.975  1.00  0.00     0.097 N
HETATM    2  C4  UNL     1     -18.204  90.547  15.148  1.00  0.00     0.278 C
HETATM    3  C5  UNL     1     -18.430  90.111  13.720  1.00  0.00     0.070 C
HETATM    4  C6  UNL     1     -19.767  90.575  13.272  1.00  0.00    -0.032 A
HETATM    5  C7  UNL     1     -20.034  91.172  12.081  1.00  0.00     0.013 A
HETATM    6  C8  UNL     1     -21.343  91.565  11.777  1.00  0.00     0.049 A
HETATM    7  C9  UNL     1     -22.354  91.347  12.681  1.00  0.00     0.101 A
HETATM    8  N6  UNL     1     -22.057  90.757  13.848  1.00  0.00    -0.344 N
ATOM      9  H6  UNL     1     -22.804  90.593  14.523  1.00  0.00     0.167 HD
HETATM   10  C14 UNL     1     -20.811  90.374  14.156  1.00  0.00     0.045 A
HETATM   11  C15 UNL     1     -20.451  89.721  15.454  1.00  0.00     0.330 C
ENDROOT
BRANCH   7  12
HETATM   12  N2  UNL     1     -23.555  91.693  12.439  1.00  0.00    -0.376 N
ATOM     13  H2  UNL     1     -24.260  90.956  12.453  1.00  0.00     0.161 HD
BRANCH  12  14
HETATM   14  C10 UNL     1     -24.009  93.023  12.149  1.00  0.00     0.123 C
BRANCH  14  15
HETATM   15  C11 UNL     1     -23.873  93.953  13.337  1.00  0.00     0.039 C
BRANCH  15  16
HETATM   16  C12 UNL     1     -25.269  94.305  13.802  1.00  0.00     0.123 C
BRANCH  16  17
HETATM   17  N3  UNL     1     -25.638  93.593  14.998  1.00  0.00    -0.367 N
HETATM   18  C13 UNL     1     -26.691  92.864  15.001  1.00  0.00     0.196 C
HETATM   19  N4  UNL     1     -27.044  92.166  16.190  1.00  0.00    -0.067 NA
HETATM   20  N5  UNL     1     -27.510  92.733  13.866  1.00  0.00    -0.067 NA
ATOM     21  H3  UNL     1     -25.064  93.668  15.838  1.00  0.00     0.161 HD
ENDBRANCH  16  17
ENDBRANCH  15  16
ENDBRANCH  14  15
ENDBRANCH  12  14
ENDBRANCH   7  12
BRANCH   1  22
HETATM   22  C3  UNL     1     -19.091  90.045  17.330  1.00  0.00     0.299 C
BRANCH  22  23
HETATM   23  C2  UNL     1     -17.881  89.204  17.453  1.00  0.00    -0.007 C
HETATM   24  C1  UNL     1     -17.972  87.878  17.622  1.00  0.00     0.008 C
ENDBRANCH  22  23
ENDBRANCH   1  22
TORSDOF 7
ENDMDL