MODEL 1
REMARK VINA RESULT: -6.144479819      0.000      0.000
REMARK  6 active torsions:
REMARK  status: ('A' for Active; 'I' for Inactive)
REMARK    1  A    between atoms: N3_4  and  C2_6
REMARK    2  A    between atoms: C2_6  and  C3_7
REMARK    3  A    between atoms: C3_7  and  S1_8
REMARK    4  A    between atoms: S1_8  and  C4_9
REMARK    5  A    between atoms: N4_13  and  C8_14
REMARK    6  A    between atoms: C8_14  and  C9_15
ROOT
HETATM    1  C4  UNL     1     -18.802  92.104  12.800  1.00  0.00     0.016 A
HETATM    2  C5  UNL     1     -17.762  92.852  13.309  1.00  0.00     0.021 A
HETATM    3  C6  UNL     1     -16.898  92.224  14.199  1.00  0.00     0.019 A
HETATM    4  C7  UNL     1     -17.084  90.907  14.548  1.00  0.00     0.091 A
HETATM    5  N4  UNL     1     -18.105  90.181  14.045  1.00  0.00    -0.358 N
HETATM    6  C12 UNL     1     -18.931  90.805  13.185  1.00  0.00     0.109 A
ENDROOT
BRANCH   1   7
HETATM    7  S1  UNL     1     -19.909  92.920  11.656  1.00  0.00    -0.127 SA
BRANCH   7   8
HETATM    8  C3  UNL     1     -21.116  93.862  12.642  1.00  0.00     0.099 C
BRANCH   8   9
HETATM    9  C2  UNL     1     -22.467  93.204  12.476  1.00  0.00     0.132 C
BRANCH   9  10
HETATM   10  N3  UNL     1     -22.564  91.952  13.171  1.00  0.00    -0.366 N
HETATM   11  C1  UNL     1     -23.004  90.861  12.701  1.00  0.00     0.196 C
HETATM   12  N1  UNL     1     -23.025  89.720  13.540  1.00  0.00    -0.067 NA
HETATM   13  N2  UNL     1     -23.490  90.697  11.371  1.00  0.00    -0.067 NA
ATOM     14  H3  UNL     1     -22.246  91.939  14.140  1.00  0.00     0.161 HD
ENDBRANCH   9  10
ENDBRANCH   8   9
ENDBRANCH   7   8
ENDBRANCH   1   7
BRANCH   5  15
HETATM   15  C8  UNL     1     -18.253  88.818  14.439  1.00  0.00     0.204 C
BRANCH  15  16
HETATM   16  C9  UNL     1     -19.489  88.518  15.167  1.00  0.00     0.099 A
HETATM   17  N5  UNL     1     -20.265  87.447  14.936  1.00  0.00    -0.353 N
HETATM   18  C10 UNL     1     -21.328  87.467  15.780  1.00  0.00     0.106 A
ATOM     19  H5  UNL     1     -20.084  86.729  14.234  1.00  0.00     0.166 HD
HETATM   20  C11 UNL     1     -21.212  88.587  16.564  1.00  0.00     0.106 A
HETATM   21  N6  UNL     1     -20.090  89.202  16.169  1.00  0.00    -0.353 N
ATOM     22  H6  UNL     1     -19.735  90.070  16.570  1.00  0.00     0.166 HD
ENDBRANCH  15  16
ENDBRANCH   5  15
TORSDOF 6
ENDMDL