MODEL 1
REMARK VINA RESULT: -6.324287941      0.000      0.000
REMARK  8 active torsions:
REMARK  status: ('A' for Active; 'I' for Inactive)
REMARK    1  A    between atoms: N2_7  and  C4_8
REMARK    2  A    between atoms: C4_8  and  O1_9
REMARK    3  A    between atoms: O1_9  and  C5_10
REMARK    4  A    between atoms: C5_10  and  C6_11
REMARK    5  A    between atoms: C6_11  and  N3_12
REMARK    6  A    between atoms: N3_12  and  C7_15
REMARK    7  A    between atoms: C7_15  and  C8_16
REMARK    8  A    between atoms: C9_17  and  C10_18
ROOT
HETATM    1  C5  UNL     1     -19.921  93.516  11.279  1.00  0.00     0.197 C
ENDROOT
BRANCH   1   2
HETATM    2  O1  UNL     1     -20.622  92.342  11.266  1.00  0.00    -0.370 OA
BRANCH   2   3
HETATM    3  C4  UNL     1     -21.820  92.381  11.957  1.00  0.00     0.298 C
BRANCH   3   4
HETATM    4  N2  UNL     1     -21.802  91.291  12.912  1.00  0.00    -0.331 N
HETATM    5  C3  UNL     1     -20.722  91.004  13.664  1.00  0.00     0.098 A
HETATM    6  C2  UNL     1     -20.791  89.950  14.547  1.00  0.00     0.065 A
HETATM    7  C1  UNL     1     -21.947  89.208  14.652  1.00  0.00     0.100 A
HETATM    8  N1  UNL     1     -21.988  88.219  15.492  1.00  0.00    -0.385 N
HETATM    9  N4  UNL     1     -23.010  89.515  13.891  1.00  0.00    -0.339 N
ATOM     10  H12 UNL     1     -21.180  87.986  16.070  1.00  0.00     0.157 HD
ATOM     11  H11 UNL     1     -22.844  87.671  15.570  1.00  0.00     0.157 HD
HETATM   12  C16 UNL     1     -22.918  90.552  13.033  1.00  0.00     0.186 A
ATOM     13  H4  UNL     1     -23.872  88.973  13.961  1.00  0.00     0.168 HD
ENDBRANCH   3   4
ENDBRANCH   2   3
ENDBRANCH   1   2
BRANCH   1  14
HETATM   14  C6  UNL     1     -18.529  93.402  11.846  1.00  0.00     0.259 C
BRANCH  14  15
HETATM   15  N3  UNL     1     -17.935  92.168  11.366  1.00  0.00    -0.063 N
ATOM     16  H32 UNL     1     -18.585  91.382  11.378  1.00  0.00     0.278 HD
ATOM     17  H31 UNL     1     -17.755  92.176  10.362  1.00  0.00     0.278 HD
BRANCH  15  18
HETATM   18  C7  UNL     1     -16.728  91.924  12.163  1.00  0.00     0.326 C
BRANCH  18  19
HETATM   19  C8  UNL     1     -17.040  91.107  13.338  1.00  0.00    -0.073 C
HETATM   20  C9  UNL     1     -17.299  90.418  14.294  1.00  0.00    -0.065 C
BRANCH  20  21
HETATM   21  C10 UNL     1     -17.621  89.571  15.429  1.00  0.00     0.017 A
HETATM   22  C11 UNL     1     -17.791  88.211  15.281  1.00  0.00     0.020 A
HETATM   23  C12 UNL     1     -18.097  87.422  16.369  1.00  0.00     0.001 A
HETATM   24  C13 UNL     1     -18.235  87.996  17.630  1.00  0.00     0.000 A
HETATM   25  C14 UNL     1     -18.070  89.352  17.805  1.00  0.00     0.001 A
HETATM   26  C15 UNL     1     -17.766  90.106  16.692  1.00  0.00     0.020 A
ENDBRANCH  20  21
ENDBRANCH  18  19
ENDBRANCH  15  18
ENDBRANCH  14  15
ENDBRANCH   1  14
TORSDOF 8
ENDMDL