MODEL 2
REMARK VINA RESULT: -6.519439176      1.236      1.616
REMARK  9 active torsions:
REMARK  status: ('A' for Active; 'I' for Inactive)
REMARK    1  A    between atoms: C2_2  and  C3_3
REMARK    2  A    between atoms: C3_3  and  N1_4
REMARK    3  A    between atoms: N1_4  and  C4_6
REMARK    4  A    between atoms: C7_9  and  C8_10
REMARK    5  A    between atoms: C8_10  and  C9_11
REMARK    6  A    between atoms: C9_11  and  N2_12
REMARK    7  A    between atoms: N2_12  and  C10_14
REMARK    8  A    between atoms: C13_19  and  N4_20
REMARK    9  A    between atoms: N4_20  and  C14_22
ROOT
HETATM    1  C9  UNL     1     -22.408  92.984  12.137  1.00  0.00     0.142 C
ENDROOT
BRANCH   1   2
HETATM    2  C8  UNL     1     -22.614  91.493  12.029  1.00  0.00     0.060 C
BRANCH   2   3
HETATM    3  C7  UNL     1     -22.052  90.749  13.169  1.00  0.00    -0.041 A
HETATM    4  C6  UNL     1     -20.762  90.917  13.628  1.00  0.00     0.012 A
HETATM    5  C5  UNL     1     -20.309  90.182  14.703  1.00  0.00     0.049 A
HETATM    6  C4  UNL     1     -21.124  89.272  15.338  1.00  0.00     0.101 A
HETATM    7  N6  UNL     1     -22.377  89.115  14.883  1.00  0.00    -0.352 N
HETATM    8  C15 UNL     1     -22.826  89.828  13.837  1.00  0.00     0.096 A
ATOM      9  H6  UNL     1     -22.998  88.445  15.338  1.00  0.00     0.166 HD
BRANCH   6  10
HETATM   10  N1  UNL     1     -20.655  88.605  16.340  1.00  0.00    -0.373 N
ATOM     11  H1  UNL     1     -20.773  87.593  16.358  1.00  0.00     0.161 HD
BRANCH  10  12
HETATM   12  C3  UNL     1     -19.964  89.250  17.443  1.00  0.00     0.147 C
BRANCH  12  13
HETATM   13  C2  UNL     1     -18.702  88.516  17.659  1.00  0.00    -0.018 C
HETATM   14  C1  UNL     1     -17.560  89.146  17.649  1.00  0.00     0.008 C
ENDBRANCH  12  13
ENDBRANCH  10  12
ENDBRANCH   6  10
ENDBRANCH   2   3
ENDBRANCH   1   2
BRANCH   1  15
HETATM   15  N2  UNL     1     -23.155  93.478  13.267  1.00  0.00    -0.226 N
ATOM     16  H2  UNL     1     -22.660  93.718  14.126  1.00  0.00     0.177 HD
BRANCH  15  17
HETATM   17  C10 UNL     1     -24.442  93.623  13.217  1.00  0.00     0.679 A
HETATM   18  N3  UNL     1     -24.986  94.129  12.098  1.00  0.00    -0.202 N
HETATM   19  C11 UNL     1     -26.331  94.316  11.960  1.00  0.00     0.110 A
ATOM     20  H3  UNL     1     -24.372  94.383  11.324  1.00  0.00     0.183 HD
HETATM   21  C12 UNL     1     -27.150  93.970  13.010  1.00  0.00     0.067 A
HETATM   22  C13 UNL     1     -26.581  93.454  14.146  1.00  0.00     0.124 A
HETATM   23  N5  UNL     1     -25.241  93.288  14.233  1.00  0.00    -0.177 N
ATOM     24  H5  UNL     1     -24.837  92.902  15.086  1.00  0.00     0.186 HD
BRANCH  22  25
HETATM   25  N4  UNL     1     -27.320  93.125  15.132  1.00  0.00    -0.320 N
ATOM     26  H4  UNL     1     -28.267  93.496  15.209  1.00  0.00     0.169 HD
BRANCH  25  27
HETATM   27  C14 UNL     1     -26.819  92.243  16.121  1.00  0.00     0.354 C
HETATM   28  O1  UNL     1     -26.506  91.054  15.835  1.00  0.00    -0.283 OA
ENDBRANCH  25  27
ENDBRANCH  22  25
ENDBRANCH  15  17
ENDBRANCH   1  15
TORSDOF 9
ENDMDL