MODEL 3
REMARK VINA RESULT: -7.908568049      1.551      1.896
REMARK  8 active torsions:
REMARK  status: ('A' for Active; 'I' for Inactive)
REMARK       I    between atoms: C1_4  and  N2_5
REMARK       I    between atoms: C1_4  and  N6_22
REMARK    1  A    between atoms: N2_5  and  C2_7
REMARK    2  A    between atoms: C2_7  and  C3_8
REMARK    3  A    between atoms: C3_8  and  C4_9
REMARK    4  A    between atoms: C4_9  and  C5_11
REMARK       I    between atoms: C5_11  and  N4_13
REMARK    5  A    between atoms: N4_13  and  C6_15
REMARK    6  A    between atoms: N6_22  and  N7_24
REMARK       I    between atoms: N7_24  and  C11_26
REMARK       I    between atoms: C11_26  and  N8_28
REMARK    7  A    between atoms: N8_28  and  N9_30
REMARK    8  A    between atoms: N9_30  and  O4_31
ROOT
HETATM    1  N1  UNL     1      -3.364  43.097  53.034  1.00  0.00    -0.234 N
ATOM      2  H11 UNL     1      -4.371  42.934  53.027  1.00  0.00     0.174 HD
ATOM      3  H12 UNL     1      -2.599  42.427  52.952  1.00  0.00     0.174 HD
HETATM    4  C1  UNL     1      -2.980  44.354  53.217  1.00  0.00     0.686 C
HETATM    5  N2  UNL     1      -1.608  44.577  53.226  1.00  0.00    -0.222 N
ATOM      6  H2  UNL     1      -1.044  43.988  52.611  1.00  0.00     0.178 HD
HETATM    7  N6  UNL     1      -4.044  45.287  53.330  1.00  0.00    -0.129 N
ATOM      8  H6  UNL     1      -4.693  45.395  52.551  1.00  0.00     0.205 HD
ENDROOT
BRANCH   5   9
HETATM    9  C2  UNL     1      -0.906  45.547  54.006  1.00  0.00     0.167 C
BRANCH   9  10
HETATM   10  C3  UNL     1      -0.394  46.742  53.332  1.00  0.00     0.025 C
BRANCH  10  11
HETATM   11  C4  UNL     1      -0.818  47.130  51.982  1.00  0.00     0.111 C
HETATM   12  N3  UNL     1      -0.484  46.311  50.878  1.00  0.00    -0.097 NA
BRANCH  11  13
HETATM   13  C5  UNL     1      -2.135  47.791  51.857  1.00  0.00     0.267 C
HETATM   14  O1  UNL     1      -3.038  47.236  51.218  1.00  0.00    -0.266 OA
HETATM   15  N4  UNL     1      -2.330  49.039  52.490  1.00  0.00    -0.326 N
ATOM     16  H4  UNL     1      -1.542  49.459  52.982  1.00  0.00     0.165 HD
BRANCH  15  17
HETATM   17  C6  UNL     1      -3.599  49.761  52.481  1.00  0.00     0.173 A
HETATM   18  C7  UNL     1      -4.535  49.526  53.637  1.00  0.00     0.059 C
HETATM   19  C8  UNL     1      -4.429  50.769  54.542  1.00  0.00     0.019 C
HETATM   20  C9  UNL     1      -3.088  51.354  54.015  1.00  0.00     0.102 C
HETATM   21  N5  UNL     1      -3.431  51.267  52.583  1.00  0.00    -0.215 NA
HETATM   22  C10 UNL     1      -3.840  50.621  51.341  1.00  0.00     0.246 A
HETATM   23  O2  UNL     1      -4.179  50.715  50.112  1.00  0.00    -0.275 OA
ENDBRANCH  15  17
ENDBRANCH  11  13
ENDBRANCH  10  11
ENDBRANCH   9  10
ENDBRANCH   5   9
BRANCH   7  24
HETATM   24  N7  UNL     1      -4.227  46.055  54.469  1.00  0.00    -0.236 N
HETATM   25  C11 UNL     1      -4.777  45.663  55.690  1.00  0.00     0.352 C
HETATM   26  O3  UNL     1      -5.182  44.493  55.890  1.00  0.00    -0.244 OA
HETATM   27  N8  UNL     1      -4.904  46.585  56.787  1.00  0.00    -0.228 N
ATOM     28  H8  UNL     1      -4.585  47.544  56.647  1.00  0.00     0.189 HD
ATOM     29  H7  UNL     1      -3.922  47.027  54.406  1.00  0.00     0.192 HD
BRANCH  27  30
HETATM   30  N9  UNL     1      -5.435  46.246  58.026  1.00  0.00     0.022 NA
BRANCH  30  31
HETATM   31  O4  UNL     1      -6.733  45.848  57.878  1.00  0.00    -0.277 OA
ATOM     32  H4  UNL     1      -7.152  45.801  58.729  1.00  0.00     0.240 HD
ENDBRANCH  30  31
ENDBRANCH  27  30
ENDBRANCH   7  24
TORSDOF 8
ENDMDL