MODEL 1
REMARK VINA RESULT: -8.085215455      0.000      0.000
REMARK  8 active torsions:
REMARK  status: ('A' for Active; 'I' for Inactive)
REMARK    1  A    between atoms: N3_4  and  C2_6
REMARK    2  A    between atoms: C2_6  and  C3_7
REMARK    3  A    between atoms: C3_7  and  C4_8
REMARK    4  A    between atoms: C4_8  and  N4_9
REMARK       I    between atoms: C5_11  and  N6_13
REMARK    5  A    between atoms: N6_13  and  C6_15
REMARK    6  A    between atoms: N10_27  and  C10_29
REMARK    7  A    between atoms: C10_29  and  C11_30
REMARK    8  A    between atoms: C11_30  and  O3_31
ROOT
HETATM    1  C6  UNL     1      -4.559  46.946  54.217  1.00  0.00     0.156 C
HETATM    2  N7  UNL     1      -5.579  47.571  53.578  1.00  0.00    -0.291 N
ATOM      3  H7  UNL     1      -6.476  47.085  53.602  1.00  0.00     0.172 HD
HETATM    4  C7  UNL     1      -5.575  48.733  52.922  1.00  0.00     0.329 C
HETATM    5  O1  UNL     1      -6.665  48.978  52.345  1.00  0.00    -0.246 OA
HETATM    6  N8  UNL     1      -4.573  49.610  52.830  1.00  0.00    -0.260 N
ATOM      7  H8  UNL     1      -4.829  50.543  52.505  1.00  0.00     0.175 HD
HETATM    8  C8  UNL     1      -3.251  49.421  53.113  1.00  0.00     0.329 C
HETATM    9  O2  UNL     1      -2.508  50.344  52.739  1.00  0.00    -0.246 OA
HETATM   10  N9  UNL     1      -2.644  48.395  53.733  1.00  0.00    -0.291 N
ATOM     11  H9  UNL     1      -1.672  48.531  54.010  1.00  0.00     0.172 HD
HETATM   12  C9  UNL     1      -3.214  47.184  54.027  1.00  0.00     0.150 C
HETATM   13  N10 UNL     1      -2.386  46.232  54.115  1.00  0.00    -0.371 N
ATOM     14  H10 UNL     1      -1.417  46.512  53.959  1.00  0.00     0.161 HD
ENDROOT
BRANCH   1  15
HETATM   15  N6  UNL     1      -4.820  46.057  55.077  1.00  0.00    -0.314 N
HETATM   16  C5  UNL     1      -5.566  46.154  56.243  1.00  0.00     0.189 C
HETATM   17  N4  UNL     1      -5.087  46.687  57.309  1.00  0.00    -0.364 N
HETATM   18  N5  UNL     1      -6.883  45.654  56.261  1.00  0.00    -0.063 NA
ATOM     19  H4  UNL     1      -4.131  47.042  57.271  1.00  0.00     0.162 HD
ATOM     20  H6  UNL     1      -4.425  45.137  54.887  1.00  0.00     0.170 HD
BRANCH  17  21
HETATM   21  C4  UNL     1      -5.795  46.820  58.542  1.00  0.00     0.124 C
BRANCH  21  22
HETATM   22  C3  UNL     1      -5.264  47.934  59.413  1.00  0.00     0.039 C
BRANCH  22  23
HETATM   23  C2  UNL     1      -4.914  47.316  60.755  1.00  0.00     0.123 C
BRANCH  23  24
HETATM   24  N3  UNL     1      -3.639  46.653  60.606  1.00  0.00    -0.367 N
HETATM   25  C1  UNL     1      -3.517  45.401  60.860  1.00  0.00     0.196 C
HETATM   26  N1  UNL     1      -2.243  44.768  60.704  1.00  0.00    -0.067 NA
HETATM   27  N2  UNL     1      -4.663  44.687  61.290  1.00  0.00    -0.067 NA
ATOM     28  H3  UNL     1      -2.827  47.186  60.295  1.00  0.00     0.161 HD
ENDBRANCH  23  24
ENDBRANCH  22  23
ENDBRANCH  21  22
ENDBRANCH  17  21
ENDBRANCH   1  15
BRANCH  13  29
HETATM   29  C10 UNL     1      -2.545  44.858  54.389  1.00  0.00     0.147 C
BRANCH  29  30
HETATM   30  C11 UNL     1      -1.133  44.242  54.455  1.00  0.00     0.183 C
BRANCH  30  31
HETATM   31  O3  UNL     1      -0.683  44.356  55.769  1.00  0.00    -0.399 OA
ATOM     32  H3  UNL     1       0.263  44.266  55.759  1.00  0.00     0.209 HD
ENDBRANCH  30  31
ENDBRANCH  29  30
ENDBRANCH  13  29
TORSDOF 8
ENDMDL